data_image0
_cell_length_a       18.658
_cell_length_b       18.658
_cell_length_c       14.84
_cell_angle_alpha    90
_cell_angle_beta     90
_cell_angle_gamma    120

_symmetry_space_group_name_H-M    "P 1"
_symmetry_int_tables_number       1

loop_
  _symmetry_equiv_pos_as_xyz
  'x, y, z'

loop_
  _atom_site_label
  _atom_site_occupancy
  _atom_site_fract_x
  _atom_site_fract_y
  _atom_site_fract_z
  _atom_site_thermal_displace_type
  _atom_site_B_iso_or_equiv
  _atom_site_type_symbol
  N1       1.0000 0.34440  0.57340  0.08680  Biso   1.000  N
  O1       1.0000 0.42070  0.50580  0.08210  Biso   1.000  O
  O2       1.0000 0.49320  0.59070  0.93040  Biso   1.000  O
  O3       1.0000 0.41990  0.65390  0.93630  Biso   1.000  O
  C1       1.0000 0.30440  0.53510  0.16820  Biso   1.000  C
  C2       1.0000 0.22320  0.47000  0.16930  Biso   1.000  C
  C3       1.0000 0.39800  0.55650  0.05300  Biso   1.000  C
  C4       1.0000 0.43840  0.60350  0.96580  Biso   1.000  C
  N2       1.0000 0.42660  0.77100  0.08680  Biso   1.000  N
  O4       1.0000 0.49420  0.91490  0.08210  Biso   1.000  O
  O5       1.0000 0.40930  0.90250  0.93040  Biso   1.000  O
  O6       1.0000 0.34610  0.76600  0.93630  Biso   1.000  O
  C5       1.0000 0.46490  0.76930  0.16820  Biso   1.000  C
  C6       1.0000 0.53000  0.75320  0.16930  Biso   1.000  C
  C7       1.0000 0.44350  0.84150  0.05300  Biso   1.000  C
  C8       1.0000 0.39650  0.83490  0.96580  Biso   1.000  C
  N3       1.0000 0.22900  0.65560  0.08680  Biso   1.000  N
  O7       1.0000 0.08510  0.57930  0.08210  Biso   1.000  O
  O8       1.0000 0.09750  0.50680  0.93040  Biso   1.000  O
  O9       1.0000 0.23400  0.58010  0.93630  Biso   1.000  O
  C9       1.0000 0.23070  0.69560  0.16820  Biso   1.000  C
  C10      1.0000 0.24680  0.77680  0.16930  Biso   1.000  C
  C11      1.0000 0.15850  0.60200  0.05300  Biso   1.000  C
  C12      1.0000 0.16510  0.56160  0.96580  Biso   1.000  C
  N4       1.0000 0.65560  0.42660  0.58680  Biso   1.000  N
  O10      1.0000 0.57930  0.49420  0.58210  Biso   1.000  O
  O11      1.0000 0.50680  0.40930  0.43040  Biso   1.000  O
  O12      1.0000 0.58010  0.34610  0.43630  Biso   1.000  O
  C13      1.0000 0.69560  0.46490  0.66820  Biso   1.000  C
  C14      1.0000 0.77680  0.53000  0.66930  Biso   1.000  C
  C15      1.0000 0.60200  0.44350  0.55300  Biso   1.000  C
  C16      1.0000 0.56160  0.39650  0.46580  Biso   1.000  C
  N5       1.0000 0.57340  0.22900  0.58680  Biso   1.000  N
  O13      1.0000 0.50580  0.08510  0.58210  Biso   1.000  O
  O14      1.0000 0.59070  0.09750  0.43040  Biso   1.000  O
  O15      1.0000 0.65390  0.23400  0.43630  Biso   1.000  O
  C17      1.0000 0.53510  0.23070  0.66820  Biso   1.000  C
  C18      1.0000 0.47000  0.24680  0.66930  Biso   1.000  C
  C19      1.0000 0.55650  0.15850  0.55300  Biso   1.000  C
  C20      1.0000 0.60350  0.16510  0.46580  Biso   1.000  C
  N6       1.0000 0.77100  0.34440  0.58680  Biso   1.000  N
  O16      1.0000 0.91490  0.42070  0.58210  Biso   1.000  O
  O17      1.0000 0.90250  0.49320  0.43040  Biso   1.000  O
  O18      1.0000 0.76600  0.41990  0.43630  Biso   1.000  O
  C21      1.0000 0.76930  0.30440  0.66820  Biso   1.000  C
  C22      1.0000 0.75320  0.22320  0.66930  Biso   1.000  C
  C23      1.0000 0.84150  0.39800  0.55300  Biso   1.000  C
  C24      1.0000 0.83490  0.43840  0.46580  Biso   1.000  C
  N7       1.0000 0.65560  0.42660  0.91320  Biso   1.000  N
  O19      1.0000 0.57930  0.49420  0.91790  Biso   1.000  O
  O20      1.0000 0.50680  0.40930  0.06960  Biso   1.000  O
  O21      1.0000 0.58010  0.34610  0.06370  Biso   1.000  O
  C25      1.0000 0.69560  0.46490  0.83180  Biso   1.000  C
  C26      1.0000 0.77680  0.53000  0.83070  Biso   1.000  C
  C27      1.0000 0.60200  0.44350  0.94700  Biso   1.000  C
  C28      1.0000 0.56160  0.39650  0.03420  Biso   1.000  C
  N8       1.0000 0.57340  0.22900  0.91320  Biso   1.000  N
  O22      1.0000 0.50580  0.08510  0.91790  Biso   1.000  O
  O23      1.0000 0.59070  0.09750  0.06960  Biso   1.000  O
  O24      1.0000 0.65390  0.23400  0.06370  Biso   1.000  O
  C29      1.0000 0.53510  0.23070  0.83180  Biso   1.000  C
  C30      1.0000 0.47000  0.24680  0.83070  Biso   1.000  C
  C31      1.0000 0.55650  0.15850  0.94700  Biso   1.000  C
  C32      1.0000 0.60350  0.16510  0.03420  Biso   1.000  C
  N9       1.0000 0.77100  0.34440  0.91320  Biso   1.000  N
  O25      1.0000 0.91490  0.42070  0.91790  Biso   1.000  O
  O26      1.0000 0.90250  0.49320  0.06960  Biso   1.000  O
  O27      1.0000 0.76600  0.41990  0.06370  Biso   1.000  O
  C33      1.0000 0.76930  0.30440  0.83180  Biso   1.000  C
  C34      1.0000 0.75320  0.22320  0.83070  Biso   1.000  C
  C35      1.0000 0.84150  0.39800  0.94700  Biso   1.000  C
  C36      1.0000 0.83490  0.43840  0.03420  Biso   1.000  C
  N10      1.0000 0.34440  0.57340  0.41320  Biso   1.000  N
  O28      1.0000 0.42070  0.50580  0.41790  Biso   1.000  O
  O29      1.0000 0.49320  0.59070  0.56960  Biso   1.000  O
  O30      1.0000 0.41990  0.65390  0.56370  Biso   1.000  O
  C37      1.0000 0.30440  0.53510  0.33180  Biso   1.000  C
  C38      1.0000 0.22320  0.47000  0.33070  Biso   1.000  C
  C39      1.0000 0.39800  0.55650  0.44700  Biso   1.000  C
  C40      1.0000 0.43840  0.60350  0.53420  Biso   1.000  C
  N11      1.0000 0.42660  0.77100  0.41320  Biso   1.000  N
  O31      1.0000 0.49420  0.91490  0.41790  Biso   1.000  O
  O32      1.0000 0.40930  0.90250  0.56960  Biso   1.000  O
  O33      1.0000 0.34610  0.76600  0.56370  Biso   1.000  O
  C41      1.0000 0.46490  0.76930  0.33180  Biso   1.000  C
  C42      1.0000 0.53000  0.75320  0.33070  Biso   1.000  C
  C43      1.0000 0.44350  0.84150  0.44700  Biso   1.000  C
  C44      1.0000 0.39650  0.83490  0.53420  Biso   1.000  C
  N12      1.0000 0.22900  0.65560  0.41320  Biso   1.000  N
  O34      1.0000 0.08510  0.57930  0.41790  Biso   1.000  O
  O35      1.0000 0.09750  0.50680  0.56960  Biso   1.000  O
  O36      1.0000 0.23400  0.58010  0.56370  Biso   1.000  O
  C45      1.0000 0.23070  0.69560  0.33180  Biso   1.000  C
  C46      1.0000 0.24680  0.77680  0.33070  Biso   1.000  C
  C47      1.0000 0.15850  0.60200  0.44700  Biso   1.000  C
  C48      1.0000 0.16510  0.56160  0.53420  Biso   1.000  C
  Co1      1.0000 0.33333  0.66667  0.01918  Biso   1.000  Co
  Co2      1.0000 0.66667  0.33333  0.51918  Biso   1.000  Co
  Co3      1.0000 0.66667  0.33333  0.98082  Biso   1.000  Co
  Co4      1.0000 0.33333  0.66667  0.48082  Biso   1.000  Co
  Li1      1.0000 0.50000  0.50000  0.00000  Biso   1.000  Li
  Li2      1.0000 0.50000  0.00000  0.00000  Biso   1.000  Li
  Li3      1.0000 0.00000  0.50000  0.00000  Biso   1.000  Li
  Li4      1.0000 0.50000  0.50000  0.50000  Biso   1.000  Li
  Li5      1.0000 0.50000  0.00000  0.50000  Biso   1.000  Li
  Li6      1.0000 0.00000  0.50000  0.50000  Biso   1.000  Li
  C49      1.0000 0.34650  0.56660  0.25000  Biso   1.000  C
  C50      1.0000 0.18430  0.43870  0.25000  Biso   1.000  C
  C51      1.0000 0.43340  0.77990  0.25000  Biso   1.000  C
  C52      1.0000 0.56130  0.74560  0.25000  Biso   1.000  C
  C53      1.0000 0.22010  0.65350  0.25000  Biso   1.000  C
  C54      1.0000 0.25440  0.81570  0.25000  Biso   1.000  C
  C55      1.0000 0.65350  0.43340  0.75000  Biso   1.000  C
  C56      1.0000 0.81570  0.56130  0.75000  Biso   1.000  C
  C57      1.0000 0.56660  0.22010  0.75000  Biso   1.000  C
  C58      1.0000 0.43870  0.25440  0.75000  Biso   1.000  C
  C59      1.0000 0.77990  0.34650  0.75000  Biso   1.000  C
  C60      1.0000 0.74560  0.18430  0.75000  Biso   1.000  C
