data_POBYAH_charged
_audit_creation_date              2014-07-02
_audit_creation_method            'Materials Studio'
_symmetry_space_group_name_H-M    'P1'
_symmetry_Int_Tables_number       1
_symmetry_cell_setting            triclinic
loop_
_symmetry_equiv_pos_as_xyz
  x,y,z
_cell_length_a                    15.5419
_cell_length_b                    15.5419
_cell_length_c                    26.4893
_cell_angle_alpha                 90.0000
_cell_angle_beta                  90.0000
_cell_angle_gamma                 90.0000
loop_
_atom_site_label
_atom_site_type_symbol
_atom_site_fract_x
_atom_site_fract_y
_atom_site_fract_z
_atom_site_U_iso_or_equiv
_atom_site_adp_type
_atom_site_occupancy
Ni1    Ni    0.37036   0.15499   0.25259   0.01267  Uiso   1.00
Ni2    Ni    0.19780   0.15560   0.31293   0.01267  Uiso   1.00
Ni3    Ni    0.34603   0.28740   0.33170   0.01267  Uiso   1.00
Ni4    Ni    0.04160   0.16325   0.38572   0.01267  Uiso   1.00
Ni5    Ni    0.18522   0.29477   0.39899   0.01267  Uiso   1.00
Ni6    Ni    0.58603   0.32810   0.17059   0.01267  Uiso   1.00
Ni7    Ni    0.62964   0.84501   0.75259   0.01267  Uiso   1.00
Ni8    Ni    0.80220   0.84440   0.81293   0.01267  Uiso   1.00
Ni9    Ni    0.65397   0.71260   0.83170   0.01267  Uiso   1.00
Ni10   Ni    0.95840   0.83675   0.88572   0.01267  Uiso   1.00
Ni11   Ni    0.81478   0.70523   0.89899   0.01267  Uiso   1.00
Ni12   Ni    0.41397   0.67190   0.67059   0.01267  Uiso   1.00
Ni13   Ni    0.84501   0.37036   0.00259   0.01267  Uiso   1.00
Ni14   Ni    0.84440   0.19780   0.06293   0.01267  Uiso   1.00
Ni15   Ni    0.71260   0.34603   0.08170   0.01267  Uiso   1.00
Ni16   Ni    0.83675   0.04160   0.13572   0.01267  Uiso   1.00
Ni17   Ni    0.70523   0.18522   0.14899   0.01267  Uiso   1.00
Ni18   Ni    0.67190   0.58603   0.92059   0.01267  Uiso   1.00
Ni19   Ni    0.15499   0.62964   0.50259   0.01267  Uiso   1.00
Ni20   Ni    0.15560   0.80220   0.56293   0.01267  Uiso   1.00
Ni21   Ni    0.28740   0.65397   0.58170   0.01267  Uiso   1.00
Ni22   Ni    0.16325   0.95840   0.63572   0.01267  Uiso   1.00
Ni23   Ni    0.29477   0.81478   0.64899   0.01267  Uiso   1.00
Ni24   Ni    0.32810   0.41397   0.42059   0.01267  Uiso   1.00
P1     P     0.16950   0.36108   0.28153   0.01267  Uiso   1.00
P2     P     0.83050   0.63892   0.78153   0.01267  Uiso   1.00
P3     P     0.63892   0.16950   0.03153   0.01267  Uiso   1.00
P4     P     0.36108   0.83050   0.53153   0.01267  Uiso   1.00
H1     H     0.34770   0.12280   0.34760   0.01267  Uiso   1.00
H2     H     0.19980   0.12840   0.41130   0.01267  Uiso   1.00
H3     H     0.34000   0.24830   0.42560   0.01267  Uiso   1.00
H4     H     0.91030   0.14640   0.45710   0.01267  Uiso   1.00
H5     H     0.56680   0.16790   0.41190   0.01267  Uiso   1.00
H6     H     0.69830   0.14560   0.44370   0.01267  Uiso   1.00
H7     H     0.80540   0.20230   0.30980   0.01267  Uiso   1.00
H8     H     0.65230   0.87720   0.84760   0.01267  Uiso   1.00
H9     H     0.80020   0.87160   0.91130   0.01267  Uiso   1.00
H10    H     0.66000   0.75170   0.92560   0.01267  Uiso   1.00
H11    H     0.08970   0.85360   0.95710   0.01267  Uiso   1.00
H12    H     0.43320   0.83210   0.91190   0.01267  Uiso   1.00
H13    H     0.30170   0.85440   0.94370   0.01267  Uiso   1.00
H14    H     0.19460   0.79770   0.80980   0.01267  Uiso   1.00
H15    H     0.87720   0.34770   0.09760   0.01267  Uiso   1.00
H16    H     0.87160   0.19980   0.16130   0.01267  Uiso   1.00
H17    H     0.75170   0.34000   0.17560   0.01267  Uiso   1.00
H18    H     0.85360   0.91030   0.20710   0.01267  Uiso   1.00
H19    H     0.83210   0.56680   0.16190   0.01267  Uiso   1.00
H20    H     0.85440   0.69830   0.19370   0.01267  Uiso   1.00
H21    H     0.79770   0.80540   0.05980   0.01267  Uiso   1.00
H22    H     0.12280   0.65230   0.59760   0.01267  Uiso   1.00
H23    H     0.12840   0.80020   0.66130   0.01267  Uiso   1.00
H24    H     0.24830   0.66000   0.67560   0.01267  Uiso   1.00
H25    H     0.14640   0.08970   0.70710   0.01267  Uiso   1.00
H26    H     0.16790   0.43320   0.66190   0.01267  Uiso   1.00
H27    H     0.14560   0.30170   0.69370   0.01267  Uiso   1.00
H28    H     0.20230   0.19460   0.55980   0.01267  Uiso   1.00
W1     W     0.35983   0.36517   0.20659   0.01267  Uiso   1.00
W2     W     0.14105   0.51865   0.37885   0.01267  Uiso   1.00
W3     W     0.01882   0.53928   0.27110   0.01267  Uiso   1.00
W4     W     0.97960   0.37349   0.35452   0.01267  Uiso   1.00
W5     W     0.03810   0.37595   0.16900   0.01267  Uiso   1.00
W6     W     0.33698   0.51370   0.30107   0.01267  Uiso   1.00
W7     W     0.21626   0.53156   0.19151   0.01267  Uiso   1.00
W8     W     0.00377   0.21193   0.25423   0.01267  Uiso   1.00
W9     W     0.18596   0.20978   0.18044   0.01267  Uiso   1.00
W10    W     0.64017   0.63483   0.70659   0.01267  Uiso   1.00
W11    W     0.85895   0.48135   0.87885   0.01267  Uiso   1.00
W12    W     0.98118   0.46072   0.77110   0.01267  Uiso   1.00
W13    W     0.02040   0.62651   0.85452   0.01267  Uiso   1.00
W14    W     0.96190   0.62405   0.66900   0.01267  Uiso   1.00
W15    W     0.66302   0.48630   0.80107   0.01267  Uiso   1.00
W16    W     0.78374   0.46844   0.69151   0.01267  Uiso   1.00
W17    W     0.99623   0.78807   0.75423   0.01267  Uiso   1.00
W18    W     0.81404   0.79022   0.68044   0.01267  Uiso   1.00
W19    W     0.63483   0.35983   0.95659   0.01267  Uiso   1.00
W20    W     0.48135   0.14105   0.12885   0.01267  Uiso   1.00
W21    W     0.46072   0.01882   0.02110   0.01267  Uiso   1.00
W22    W     0.62651   0.97960   0.10452   0.01267  Uiso   1.00
W23    W     0.62405   0.03810   0.91900   0.01267  Uiso   1.00
W24    W     0.48630   0.33698   0.05107   0.01267  Uiso   1.00
W25    W     0.46844   0.21626   0.94151   0.01267  Uiso   1.00
W26    W     0.78807   0.00377   0.00423   0.01267  Uiso   1.00
W27    W     0.79022   0.18596   0.93044   0.01267  Uiso   1.00
W28    W     0.36517   0.64017   0.45659   0.01267  Uiso   1.00
W29    W     0.51865   0.85895   0.62885   0.01267  Uiso   1.00
W30    W     0.53928   0.98118   0.52110   0.01267  Uiso   1.00
W31    W     0.37349   0.02040   0.60452   0.01267  Uiso   1.00
W32    W     0.37595   0.96190   0.41900   0.01267  Uiso   1.00
W33    W     0.51370   0.66302   0.55107   0.01267  Uiso   1.00
W34    W     0.53156   0.78374   0.44151   0.01267  Uiso   1.00
W35    W     0.21193   0.99623   0.50423   0.01267  Uiso   1.00
W36    W     0.20978   0.81404   0.43044   0.01267  Uiso   1.00
C1     C     0.60290   0.19620   0.34070   0.01267  Uiso   1.00
C2     C     0.61460   0.17420   0.39110   0.01267  Uiso   1.00
C3     C     0.69220   0.16190   0.41010   0.01267  Uiso   1.00
C4     C     0.76510   0.17320   0.38010   0.01267  Uiso   1.00
C5     C     0.75680   0.19470   0.32980   0.01267  Uiso   1.00
C6     C     0.67500   0.20480   0.30920   0.01267  Uiso   1.00
C7     C     0.51420   0.20970   0.31930   0.01267  Uiso   1.00
C8     C     0.66290   0.22520   0.25420   0.01267  Uiso   1.00
C9     C     0.85360   0.16260   0.40290   0.01267  Uiso   1.00
C10    C     0.39710   0.80380   0.84070   0.01267  Uiso   1.00
C11    C     0.38540   0.82580   0.89110   0.01267  Uiso   1.00
C12    C     0.30780   0.83810   0.91010   0.01267  Uiso   1.00
C13    C     0.23490   0.82680   0.88010   0.01267  Uiso   1.00
C14    C     0.24320   0.80530   0.82980   0.01267  Uiso   1.00
C15    C     0.32500   0.79520   0.80920   0.01267  Uiso   1.00
C16    C     0.48580   0.79030   0.81930   0.01267  Uiso   1.00
C17    C     0.33710   0.77480   0.75420   0.01267  Uiso   1.00
C18    C     0.14640   0.83740   0.90290   0.01267  Uiso   1.00
C19    C     0.80380   0.60290   0.09070   0.01267  Uiso   1.00
C20    C     0.82580   0.61460   0.14110   0.01267  Uiso   1.00
C21    C     0.83810   0.69220   0.16010   0.01267  Uiso   1.00
C22    C     0.82680   0.76510   0.13010   0.01267  Uiso   1.00
C23    C     0.80530   0.75680   0.07980   0.01267  Uiso   1.00
C24    C     0.79520   0.67500   0.05920   0.01267  Uiso   1.00
C25    C     0.79030   0.51420   0.06930   0.01267  Uiso   1.00
C26    C     0.77480   0.66290   0.00420   0.01267  Uiso   1.00
C27    C     0.83740   0.85360   0.15290   0.01267  Uiso   1.00
C28    C     0.19620   0.39710   0.59070   0.01267  Uiso   1.00
C29    C     0.17420   0.38540   0.64110   0.01267  Uiso   1.00
C30    C     0.16190   0.30780   0.66010   0.01267  Uiso   1.00
C31    C     0.17320   0.23490   0.63010   0.01267  Uiso   1.00
C32    C     0.19470   0.24320   0.57980   0.01267  Uiso   1.00
C33    C     0.20480   0.32500   0.55920   0.01267  Uiso   1.00
C34    C     0.20970   0.48580   0.56930   0.01267  Uiso   1.00
C35    C     0.22520   0.33710   0.50420   0.01267  Uiso   1.00
C36    C     0.16260   0.14640   0.65290   0.01267  Uiso   1.00
O1     O     0.23530   0.16290   0.23610   0.01267  Uiso   1.00
O2     O     0.32270   0.16180   0.32250   0.01267  Uiso   1.00
O3     O     0.36420   0.28730   0.25610   0.01267  Uiso   1.00
O4     O     0.06930   0.16800   0.30440   0.01267  Uiso   1.00
O5     O     0.17040   0.16750   0.38790   0.01267  Uiso   1.00
O6     O     0.31390   0.29100   0.40300   0.01267  Uiso   1.00
O7     O     0.35380   0.42230   0.34210   0.01267  Uiso   1.00
O8     O     0.05530   0.29890   0.38260   0.01267  Uiso   1.00
O9     O     0.57420   0.20030   0.15000   0.01267  Uiso   1.00
O10    O     0.20950   0.29670   0.31910   0.01267  Uiso   1.00
O11    O     0.49080   0.16050   0.28440   0.01267  Uiso   1.00
O12    O     0.47110   0.26510   0.34140   0.01267  Uiso   1.00
O13    O     0.61470   0.28940   0.24280   0.01267  Uiso   1.00
O14    O     0.70450   0.17720   0.22430   0.01267  Uiso   1.00
O15    O     0.91690   0.16210   0.37170   0.01267  Uiso   1.00
O16    O     0.85950   0.15110   0.44930   0.01267  Uiso   1.00
O17    O     0.45520   0.34480   0.17420   0.01267  Uiso   1.00
O18    O     0.29000   0.57650   0.24180   0.01267  Uiso   1.00
O19    O     0.11090   0.28990   0.14180   0.01267  Uiso   1.00
O20    O     0.27290   0.29430   0.17450   0.01267  Uiso   1.00
O21    O     0.95270   0.62220   0.25420   0.01267  Uiso   1.00
O22    O     0.21310   0.13990   0.13260   0.01267  Uiso   1.00
O23    O     0.07220   0.58480   0.32940   0.01267  Uiso   1.00
O24    O     0.23650   0.54910   0.33550   0.01267  Uiso   1.00
O25    O     0.91690   0.14460   0.25170   0.01267  Uiso   1.00
O26    O     0.10640   0.42160   0.30880   0.01267  Uiso   1.00
O27    O     0.07550   0.16300   0.20240   0.01267  Uiso   1.00
O28    O     0.88690   0.36090   0.38790   0.01267  Uiso   1.00
O29    O     0.03570   0.46580   0.39620   0.01267  Uiso   1.00
O30    O     0.12170   0.56470   0.23490   0.01267  Uiso   1.00
O31    O     0.40850   0.15050   0.17850   0.01267  Uiso   1.00
O32    O     0.23830   0.41780   0.25670   0.01267  Uiso   1.00
O33    O     0.96690   0.29100   0.19790   0.01267  Uiso   1.00
O34    O     0.00030   0.45540   0.21900   0.01267  Uiso   1.00
O35    O     0.30850   0.46040   0.16860   0.01267  Uiso   1.00
O36    O     0.13690   0.45130   0.16490   0.01267  Uiso   1.00
O37    O     0.98000   0.40780   0.11770   0.01267  Uiso   1.00
O38    O     0.11950   0.31190   0.24000   0.01267  Uiso   1.00
O39    O     0.41180   0.58830   0.32010   0.01267  Uiso   1.00
O40    O     0.96280   0.30390   0.29690   0.01267  Uiso   1.00
O41    O     0.40230   0.45310   0.24940   0.01267  Uiso   1.00
O42    O     0.94510   0.47330   0.31220   0.01267  Uiso   1.00
O43    O     0.21650   0.61180   0.14760   0.01267  Uiso   1.00
O44    O     0.37790   0.02260   0.25100   0.01267  Uiso   1.00
O45    O     0.19270   0.02140   0.31160   0.01267  Uiso   1.00
O46    O     0.04380   0.02840   0.39050   0.01267  Uiso   1.00
O47    O     0.02310   0.18220   0.46220   0.01267  Uiso   1.00
O48    O     0.60030   0.45700   0.18820   0.01267  Uiso   1.00
O49    O     0.76470   0.83710   0.73610   0.01267  Uiso   1.00
O50    O     0.67730   0.83820   0.82250   0.01267  Uiso   1.00
O51    O     0.63580   0.71270   0.75610   0.01267  Uiso   1.00
O52    O     0.93070   0.83200   0.80440   0.01267  Uiso   1.00
O53    O     0.82960   0.83250   0.88790   0.01267  Uiso   1.00
O54    O     0.68610   0.70900   0.90300   0.01267  Uiso   1.00
O55    O     0.64620   0.57770   0.84210   0.01267  Uiso   1.00
O56    O     0.94470   0.70110   0.88260   0.01267  Uiso   1.00
O57    O     0.42580   0.79970   0.65000   0.01267  Uiso   1.00
O58    O     0.79050   0.70330   0.81910   0.01267  Uiso   1.00
O59    O     0.50920   0.83950   0.78440   0.01267  Uiso   1.00
O60    O     0.52890   0.73490   0.84140   0.01267  Uiso   1.00
O61    O     0.38530   0.71060   0.74280   0.01267  Uiso   1.00
O62    O     0.29550   0.82280   0.72430   0.01267  Uiso   1.00
O63    O     0.08310   0.83790   0.87170   0.01267  Uiso   1.00
O64    O     0.14050   0.84890   0.94930   0.01267  Uiso   1.00
O65    O     0.54480   0.65520   0.67420   0.01267  Uiso   1.00
O66    O     0.71000   0.42350   0.74180   0.01267  Uiso   1.00
O67    O     0.88910   0.71010   0.64180   0.01267  Uiso   1.00
O68    O     0.72710   0.70570   0.67450   0.01267  Uiso   1.00
O69    O     0.04730   0.37780   0.75420   0.01267  Uiso   1.00
O70    O     0.78690   0.86010   0.63260   0.01267  Uiso   1.00
O71    O     0.92780   0.41520   0.82940   0.01267  Uiso   1.00
O72    O     0.76350   0.45090   0.83550   0.01267  Uiso   1.00
O73    O     0.08310   0.85540   0.75170   0.01267  Uiso   1.00
O74    O     0.89360   0.57840   0.80880   0.01267  Uiso   1.00
O75    O     0.92450   0.83700   0.70240   0.01267  Uiso   1.00
O76    O     0.11310   0.63910   0.88790   0.01267  Uiso   1.00
O77    O     0.96430   0.53420   0.89620   0.01267  Uiso   1.00
O78    O     0.87830   0.43530   0.73490   0.01267  Uiso   1.00
O79    O     0.59150   0.84950   0.67850   0.01267  Uiso   1.00
O80    O     0.76170   0.58220   0.75670   0.01267  Uiso   1.00
O81    O     0.03310   0.70900   0.69790   0.01267  Uiso   1.00
O82    O     0.99970   0.54460   0.71900   0.01267  Uiso   1.00
O83    O     0.69150   0.53960   0.66860   0.01267  Uiso   1.00
O84    O     0.86310   0.54870   0.66490   0.01267  Uiso   1.00
O85    O     0.02000   0.59220   0.61770   0.01267  Uiso   1.00
O86    O     0.88050   0.68810   0.74000   0.01267  Uiso   1.00
O87    O     0.58820   0.41170   0.82010   0.01267  Uiso   1.00
O88    O     0.03720   0.69610   0.79690   0.01267  Uiso   1.00
O89    O     0.59770   0.54690   0.74940   0.01267  Uiso   1.00
O90    O     0.05490   0.52670   0.81220   0.01267  Uiso   1.00
O91    O     0.78350   0.38820   0.64760   0.01267  Uiso   1.00
O92    O     0.62210   0.97740   0.75100   0.01267  Uiso   1.00
O93    O     0.80730   0.97860   0.81160   0.01267  Uiso   1.00
O94    O     0.95620   0.97160   0.89050   0.01267  Uiso   1.00
O95    O     0.97690   0.81780   0.96220   0.01267  Uiso   1.00
O96    O     0.39970   0.54300   0.68820   0.01267  Uiso   1.00
O97    O     0.83710   0.23530   0.98610   0.01267  Uiso   1.00
O98    O     0.83820   0.32270   0.07250   0.01267  Uiso   1.00
O99    O     0.71270   0.36420   0.00610   0.01267  Uiso   1.00
O100   O     0.83200   0.06930   0.05440   0.01267  Uiso   1.00
O101   O     0.83250   0.17040   0.13790   0.01267  Uiso   1.00
O102   O     0.70900   0.31390   0.15300   0.01267  Uiso   1.00
O103   O     0.57770   0.35380   0.09210   0.01267  Uiso   1.00
O104   O     0.70110   0.05530   0.13260   0.01267  Uiso   1.00
O105   O     0.79970   0.57420   0.90000   0.01267  Uiso   1.00
O106   O     0.70330   0.20950   0.06910   0.01267  Uiso   1.00
O107   O     0.83950   0.49080   0.03440   0.01267  Uiso   1.00
O108   O     0.73490   0.47110   0.09140   0.01267  Uiso   1.00
O109   O     0.71060   0.61470   0.99280   0.01267  Uiso   1.00
O110   O     0.82280   0.70450   0.97430   0.01267  Uiso   1.00
O111   O     0.83790   0.91690   0.12170   0.01267  Uiso   1.00
O112   O     0.84890   0.85950   0.19930   0.01267  Uiso   1.00
O113   O     0.65520   0.45520   0.92420   0.01267  Uiso   1.00
O114   O     0.42350   0.29000   0.99180   0.01267  Uiso   1.00
O115   O     0.71010   0.11090   0.89180   0.01267  Uiso   1.00
O116   O     0.70570   0.27290   0.92450   0.01267  Uiso   1.00
O117   O     0.37780   0.95270   0.00420   0.01267  Uiso   1.00
O118   O     0.86010   0.21310   0.88260   0.01267  Uiso   1.00
O119   O     0.41520   0.07220   0.07940   0.01267  Uiso   1.00
O120   O     0.45090   0.23650   0.08550   0.01267  Uiso   1.00
O121   O     0.85540   0.91690   0.00170   0.01267  Uiso   1.00
O122   O     0.57840   0.10640   0.05880   0.01267  Uiso   1.00
O123   O     0.83700   0.07550   0.95240   0.01267  Uiso   1.00
O124   O     0.63910   0.88690   0.13790   0.01267  Uiso   1.00
O125   O     0.53420   0.03570   0.14620   0.01267  Uiso   1.00
O126   O     0.43530   0.12170   0.98490   0.01267  Uiso   1.00
O127   O     0.84950   0.40850   0.92850   0.01267  Uiso   1.00
O128   O     0.58220   0.23830   0.00670   0.01267  Uiso   1.00
O129   O     0.70900   0.96690   0.94790   0.01267  Uiso   1.00
O130   O     0.54460   0.00030   0.96900   0.01267  Uiso   1.00
O131   O     0.53960   0.30850   0.91860   0.01267  Uiso   1.00
O132   O     0.54870   0.13690   0.91490   0.01267  Uiso   1.00
O133   O     0.59220   0.98000   0.86770   0.01267  Uiso   1.00
O134   O     0.68810   0.11950   0.99000   0.01267  Uiso   1.00
O135   O     0.41170   0.41180   0.07010   0.01267  Uiso   1.00
O136   O     0.69610   0.96280   0.04690   0.01267  Uiso   1.00
O137   O     0.54690   0.40230   0.99940   0.01267  Uiso   1.00
O138   O     0.52670   0.94510   0.06220   0.01267  Uiso   1.00
O139   O     0.38820   0.21650   0.89760   0.01267  Uiso   1.00
O140   O     0.97740   0.37790   0.00100   0.01267  Uiso   1.00
O141   O     0.97860   0.19270   0.06160   0.01267  Uiso   1.00
O142   O     0.97160   0.04380   0.14050   0.01267  Uiso   1.00
O143   O     0.81780   0.02310   0.21220   0.01267  Uiso   1.00
O144   O     0.54300   0.60030   0.93820   0.01267  Uiso   1.00
O145   O     0.16290   0.76470   0.48610   0.01267  Uiso   1.00
O146   O     0.16180   0.67730   0.57250   0.01267  Uiso   1.00
O147   O     0.28730   0.63580   0.50610   0.01267  Uiso   1.00
O148   O     0.16800   0.93070   0.55440   0.01267  Uiso   1.00
O149   O     0.16750   0.82960   0.63790   0.01267  Uiso   1.00
O150   O     0.29100   0.68610   0.65300   0.01267  Uiso   1.00
O151   O     0.42230   0.64620   0.59210   0.01267  Uiso   1.00
O152   O     0.29890   0.94470   0.63260   0.01267  Uiso   1.00
O153   O     0.20030   0.42580   0.40000   0.01267  Uiso   1.00
O154   O     0.29670   0.79050   0.56910   0.01267  Uiso   1.00
O155   O     0.16050   0.50920   0.53440   0.01267  Uiso   1.00
O156   O     0.26510   0.52890   0.59140   0.01267  Uiso   1.00
O157   O     0.28940   0.38530   0.49280   0.01267  Uiso   1.00
O158   O     0.17720   0.29550   0.47430   0.01267  Uiso   1.00
O159   O     0.16210   0.08310   0.62170   0.01267  Uiso   1.00
O160   O     0.15110   0.14050   0.69930   0.01267  Uiso   1.00
O161   O     0.34480   0.54480   0.42420   0.01267  Uiso   1.00
O162   O     0.57650   0.71000   0.49180   0.01267  Uiso   1.00
O163   O     0.28990   0.88910   0.39180   0.01267  Uiso   1.00
O164   O     0.29430   0.72710   0.42450   0.01267  Uiso   1.00
O165   O     0.62220   0.04730   0.50420   0.01267  Uiso   1.00
O166   O     0.13990   0.78690   0.38260   0.01267  Uiso   1.00
O167   O     0.58480   0.92780   0.57940   0.01267  Uiso   1.00
O168   O     0.54910   0.76350   0.58550   0.01267  Uiso   1.00
O169   O     0.14460   0.08310   0.50170   0.01267  Uiso   1.00
O170   O     0.42160   0.89360   0.55880   0.01267  Uiso   1.00
O171   O     0.16300   0.92450   0.45240   0.01267  Uiso   1.00
O172   O     0.36090   0.11310   0.63790   0.01267  Uiso   1.00
O173   O     0.46580   0.96430   0.64620   0.01267  Uiso   1.00
O174   O     0.56470   0.87830   0.48490   0.01267  Uiso   1.00
O175   O     0.15050   0.59150   0.42850   0.01267  Uiso   1.00
O176   O     0.41780   0.76170   0.50670   0.01267  Uiso   1.00
O177   O     0.29100   0.03310   0.44790   0.01267  Uiso   1.00
O178   O     0.45540   0.99970   0.46900   0.01267  Uiso   1.00
O179   O     0.46040   0.69150   0.41860   0.01267  Uiso   1.00
O180   O     0.45130   0.86310   0.41490   0.01267  Uiso   1.00
O181   O     0.40780   0.02000   0.36770   0.01267  Uiso   1.00
O182   O     0.31190   0.88050   0.49000   0.01267  Uiso   1.00
O183   O     0.58830   0.58820   0.57010   0.01267  Uiso   1.00
O184   O     0.30390   0.03720   0.54690   0.01267  Uiso   1.00
O185   O     0.45310   0.59770   0.49940   0.01267  Uiso   1.00
O186   O     0.47330   0.05490   0.56220   0.01267  Uiso   1.00
O187   O     0.61180   0.78350   0.39760   0.01267  Uiso   1.00
O188   O     0.02260   0.62210   0.50100   0.01267  Uiso   1.00
O189   O     0.02140   0.80730   0.56160   0.01267  Uiso   1.00
O190   O     0.02840   0.95620   0.64050   0.01267  Uiso   1.00
O191   O     0.18220   0.97690   0.71220   0.01267  Uiso   1.00
O192   O     0.45700   0.39970   0.43820   0.01267  Uiso   1.00
H29    H     0.67350   0.02140   0.25500   0.01267  Uiso   1.00
H30    H     0.60580   0.98400   0.21700   0.01267  Uiso   1.00
H31    H     0.59950   0.08020   0.23440   0.01267  Uiso   1.00
H32    H     0.52620   0.04090   0.30740   0.01267  Uiso   1.00
H33    H     0.56710   0.86350   0.29770   0.01267  Uiso   1.00
H34    H     0.47960   0.89900   0.31790   0.01267  Uiso   1.00
H35    H     0.41960   0.84480   0.24450   0.01267  Uiso   1.00
H36    H     0.46200   0.91240   0.21580   0.01267  Uiso   1.00
H37    H     0.50280   0.82880   0.22130   0.01267  Uiso   1.00
H38    H     0.68040   0.98120   0.30150   0.01267  Uiso   1.00
H39    H     0.62960   0.96370   0.34640   0.01267  Uiso   1.00
H40    H     0.63400   0.90040   0.30610   0.01267  Uiso   1.00
C37    C     0.61430   0.02290   0.24470   0.01267  Uiso   1.00
C38    C     0.55700   0.99600   0.28900   0.01267  Uiso   1.00
C39    C     0.52000   0.90300   0.29030   0.01267  Uiso   1.00
N1     N     0.47000   0.86800   0.23650   0.01267  Uiso   1.00
N2     N     0.63300   0.95600   0.31300   0.01267  Uiso   1.00
H41    H     0.32650   0.97860   0.75500   0.01267  Uiso   1.00
H42    H     0.39420   0.01600   0.71700   0.01267  Uiso   1.00
H43    H     0.40050   0.91980   0.73440   0.01267  Uiso   1.00
H44    H     0.47380   0.95910   0.80740   0.01267  Uiso   1.00
H45    H     0.43290   0.13650   0.79770   0.01267  Uiso   1.00
H46    H     0.52040   0.10100   0.81790   0.01267  Uiso   1.00
H47    H     0.58040   0.15520   0.74450   0.01267  Uiso   1.00
H48    H     0.53800   0.08760   0.71580   0.01267  Uiso   1.00
H49    H     0.49720   0.17120   0.72130   0.01267  Uiso   1.00
H50    H     0.31960   0.01880   0.80150   0.01267  Uiso   1.00
H51    H     0.37040   0.03630   0.84640   0.01267  Uiso   1.00
H52    H     0.36600   0.09960   0.80610   0.01267  Uiso   1.00
C40    C     0.38570   0.97710   0.74470   0.01267  Uiso   1.00
C41    C     0.44300   0.00400   0.78900   0.01267  Uiso   1.00
C42    C     0.48000   0.09700   0.79030   0.01267  Uiso   1.00
N3     N     0.53000   0.13200   0.73650   0.01267  Uiso   1.00
N4     N     0.36700   0.04400   0.81300   0.01267  Uiso   1.00
H53    H     0.97860   0.67350   0.00500   0.01267  Uiso   1.00
H54    H     0.01600   0.60580   0.96700   0.01267  Uiso   1.00
H55    H     0.91980   0.59950   0.98440   0.01267  Uiso   1.00
H56    H     0.95910   0.52620   0.05740   0.01267  Uiso   1.00
H57    H     0.13650   0.56710   0.04770   0.01267  Uiso   1.00
H58    H     0.10100   0.47960   0.06790   0.01267  Uiso   1.00
H59    H     0.15520   0.41960   0.99450   0.01267  Uiso   1.00
H60    H     0.08760   0.46200   0.96580   0.01267  Uiso   1.00
H61    H     0.17120   0.50280   0.97130   0.01267  Uiso   1.00
H62    H     0.01880   0.68040   0.05150   0.01267  Uiso   1.00
H63    H     0.03630   0.62960   0.09640   0.01267  Uiso   1.00
H64    H     0.09960   0.63400   0.05610   0.01267  Uiso   1.00
C43    C     0.97710   0.61430   0.99470   0.01267  Uiso   1.00
C44    C     0.00400   0.55700   0.03900   0.01267  Uiso   1.00
C45    C     0.09700   0.52000   0.04030   0.01267  Uiso   1.00
N5     N     0.13200   0.47000   0.98650   0.01267  Uiso   1.00
N6     N     0.04400   0.63300   0.06300   0.01267  Uiso   1.00
H65    H     0.02140   0.32650   0.50500   0.01267  Uiso   1.00
H66    H     0.98400   0.39420   0.46700   0.01267  Uiso   1.00
H67    H     0.08020   0.40050   0.48440   0.01267  Uiso   1.00
H68    H     0.04090   0.47380   0.55740   0.01267  Uiso   1.00
H69    H     0.86350   0.43290   0.54770   0.01267  Uiso   1.00
H70    H     0.89900   0.52040   0.56790   0.01267  Uiso   1.00
H71    H     0.84480   0.58040   0.49450   0.01267  Uiso   1.00
H72    H     0.91240   0.53800   0.46580   0.01267  Uiso   1.00
H73    H     0.82880   0.49720   0.47130   0.01267  Uiso   1.00
H74    H     0.98120   0.31960   0.55150   0.01267  Uiso   1.00
H75    H     0.96370   0.37040   0.59640   0.01267  Uiso   1.00
H76    H     0.90040   0.36600   0.55610   0.01267  Uiso   1.00
C46    C     0.02290   0.38570   0.49470   0.01267  Uiso   1.00
C47    C     0.99600   0.44300   0.53900   0.01267  Uiso   1.00
C48    C     0.90300   0.48000   0.54030   0.01267  Uiso   1.00
N7     N     0.86800   0.53000   0.48650   0.01267  Uiso   1.00
N8     N     0.95600   0.36700   0.56300   0.01267  Uiso   1.00
