data_PODVIP_clean
_audit_creation_date              2015-10-16
_audit_creation_method            'Materials Studio'
_symmetry_space_group_name_H-M    'P1'
_symmetry_Int_Tables_number       1
_symmetry_cell_setting            triclinic
loop_
_symmetry_equiv_pos_as_xyz
  x,y,z
_cell_length_a                    9.2355
_cell_length_b                    11.2780
_cell_length_c                    18.6400
_cell_angle_alpha                 93.9480
_cell_angle_beta                  98.2730
_cell_angle_gamma                 109.0900
loop_
_atom_site_label
_atom_site_type_symbol
_atom_site_fract_x
_atom_site_fract_y
_atom_site_fract_z
_atom_site_U_iso_or_equiv
_atom_site_adp_type
_atom_site_occupancy
U1     U     0.59184   0.45743   0.31343   0.01267  Uiso   1.00
U2     U     0.65801   0.97687   0.30952   0.01267  Uiso   1.00
U3     U     0.34199   0.02313   0.69048   0.01267  Uiso   1.00
U4     U     0.40816   0.54257   0.68657   0.01267  Uiso   1.00
Cu1    Cu    0.86876   0.04595   0.61779   0.01267  Uiso   1.00
Cu2    Cu    0.13124   0.95405   0.38221   0.01267  Uiso   1.00
P1     P     0.64600   0.86794   0.71395   0.01267  Uiso   1.00
P2     P     0.87940   0.30453   0.28546   0.01267  Uiso   1.00
P3     P     0.34920   0.66427   0.28874   0.01267  Uiso   1.00
P4     P     0.12060   0.69547   0.71454   0.01267  Uiso   1.00
P5     P     0.65080   0.33573   0.71126   0.01267  Uiso   1.00
P6     P     0.12440   0.23227   0.71886   0.01267  Uiso   1.00
P7     P     0.35400   0.13206   0.28605   0.01267  Uiso   1.00
P8     P     0.87560   0.76773   0.28114   0.01267  Uiso   1.00
H1     H     0.75430   0.17770   0.80230   0.01267  Uiso   1.00
H2     H     0.07680   0.49610   0.80400   0.01267  Uiso   1.00
H3     H     0.11970   0.48450   0.92830   0.01267  Uiso   1.00
H4     H     0.73170   0.49630   0.96370   0.01267  Uiso   1.00
H5     H     0.84950   0.77180   0.80110   0.01267  Uiso   1.00
H6     H     0.60260   0.64280   0.03390   0.01267  Uiso   1.00
H7     H     0.80770   0.17110   0.92500   0.01267  Uiso   1.00
H8     H     0.32890   0.49860   0.16080   0.01267  Uiso   1.00
H9     H     0.20870   0.25510   0.39890   0.01267  Uiso   1.00
H10    H     0.89950   0.74470   0.92160   0.01267  Uiso   1.00
H11    H     0.92320   0.50390   0.19600   0.01267  Uiso   1.00
H12    H     0.86160   0.60530   0.52860   0.01267  Uiso   1.00
H13    H     0.10050   0.25530   0.07840   0.01267  Uiso   1.00
H14    H     0.99710   0.31970   0.56110   0.01267  Uiso   1.00
H15    H     0.00290   0.68030   0.43890   0.01267  Uiso   1.00
H16    H     0.88030   0.51550   0.07170   0.01267  Uiso   1.00
H17    H     0.41290   0.10150   0.03470   0.01267  Uiso   1.00
H18    H     0.73640   0.13790   0.03260   0.01267  Uiso   1.00
H19    H     0.01610   0.93970   0.18670   0.01267  Uiso   1.00
H20    H     0.98390   0.06030   0.81330   0.01267  Uiso   1.00
H21    H     0.34730   0.38000   0.84340   0.01267  Uiso   1.00
H22    H     0.26830   0.50370   0.03630   0.01267  Uiso   1.00
H23    H     0.39740   0.35720   0.96610   0.01267  Uiso   1.00
H24    H     0.79130   0.74490   0.60110   0.01267  Uiso   1.00
H25    H     0.67110   0.50140   0.83920   0.01267  Uiso   1.00
H26    H     0.13840   0.39470   0.47140   0.01267  Uiso   1.00
H27    H     0.24570   0.82230   0.19770   0.01267  Uiso   1.00
H28    H     0.53880   0.93090   0.84460   0.01267  Uiso   1.00
H29    H     0.15050   0.22820   0.19890   0.01267  Uiso   1.00
H30    H     0.19230   0.82890   0.07500   0.01267  Uiso   1.00
H31    H     0.97400   0.95650   0.06500   0.01267  Uiso   1.00
H32    H     0.22000   0.87430   0.84280   0.01267  Uiso   1.00
H33    H     0.78000   0.12570   0.15720   0.01267  Uiso   1.00
H34    H     0.65270   0.62000   0.15660   0.01267  Uiso   1.00
H35    H     0.58710   0.89850   0.96530   0.01267  Uiso   1.00
H36    H     0.26360   0.86210   0.96740   0.01267  Uiso   1.00
H37    H     0.46120   0.06910   0.15540   0.01267  Uiso   1.00
H38    H     0.02600   0.04350   0.93500   0.01267  Uiso   1.00
C1     C     0.71820   0.68830   0.13830   0.01267  Uiso   1.00
C2     C     0.30270   0.56570   0.14370   0.01267  Uiso   1.00
C3     C     0.74610   0.24090   0.83450   0.01267  Uiso   1.00
C4     C     0.31040   0.14480   0.19050   0.01267  Uiso   1.00
C5     C     0.20170   0.79590   0.85970   0.01267  Uiso   1.00
C6     C     0.15540   0.22530   0.81530   0.01267  Uiso   1.00
C7     C     0.06530   0.12280   0.84410   0.01267  Uiso   1.00
C8     C     0.93470   0.87720   0.15590   0.01267  Uiso   1.00
C9     C     0.85030   0.31310   0.18920   0.01267  Uiso   1.00
C10    C     0.68960   0.85520   0.80950   0.01267  Uiso   1.00
C11    C     0.70050   0.33570   0.80720   0.01267  Uiso   1.00
C12    C     0.25390   0.75910   0.16550   0.01267  Uiso   1.00
C13    C     0.38850   0.10720   0.14040   0.01267  Uiso   1.00
C14    C     0.02470   0.26430   0.53110   0.01267  Uiso   1.00
C15    C     0.97530   0.73570   0.46890   0.01267  Uiso   1.00
C16    C     0.29950   0.66430   0.19280   0.01267  Uiso   1.00
C17    C     0.14960   0.22560   0.43450   0.01267  Uiso   1.00
C18    C     0.97560   0.93300   0.50410   0.01267  Uiso   1.00
C19    C     0.25150   0.18030   0.04310   0.01267  Uiso   1.00
C20    C     0.14970   0.68690   0.81080   0.01267  Uiso   1.00
C21    C     0.14120   0.56320   0.91150   0.01267  Uiso   1.00
C22    C     0.89080   0.69030   0.52200   0.01267  Uiso   1.00
C23    C     0.80210   0.32800   0.03830   0.01267  Uiso   1.00
C24    C     0.35840   0.12630   0.06760   0.01267  Uiso   1.00
C25    C     0.85040   0.77440   0.56550   0.01267  Uiso   1.00
C26    C     0.77980   0.23770   0.90810   0.01267  Uiso   1.00
C27    C     0.82620   0.78200   0.90630   0.01267  Uiso   1.00
C28    C     0.64160   0.87370   0.93240   0.01267  Uiso   1.00
C29    C     0.68780   0.70220   0.06440   0.01267  Uiso   1.00
C30    C     0.10920   0.30970   0.47800   0.01267  Uiso   1.00
C31    C     0.74850   0.81970   0.95690   0.01267  Uiso   1.00
C32    C     0.19790   0.67200   0.96170   0.01267  Uiso   1.00
C33    C     0.61150   0.89280   0.85960   0.01267  Uiso   1.00
C34    C     0.22700   0.66650   0.04120   0.01267  Uiso   1.00
C35    C     0.85880   0.43680   0.08850   0.01267  Uiso   1.00
C36    C     0.17380   0.21800   0.09370   0.01267  Uiso   1.00
C37    C     0.90700   0.88890   0.08320   0.01267  Uiso   1.00
C38    C     0.77320   0.21190   0.06520   0.01267  Uiso   1.00
C39    C     0.20330   0.20120   0.16590   0.01267  Uiso   1.00
C40    C     0.73390   0.43060   0.93130   0.01267  Uiso   1.00
C41    C     0.11610   0.56990   0.83670   0.01267  Uiso   1.00
C42    C     0.02440   0.06700   0.49590   0.01267  Uiso   1.00
C43    C     0.09300   0.11110   0.91680   0.01267  Uiso   1.00
C44    C     0.21720   0.19670   0.96380   0.01267  Uiso   1.00
C45    C     0.31220   0.29780   0.93560   0.01267  Uiso   1.00
C46    C     0.22680   0.78810   0.93480   0.01267  Uiso   1.00
C47    C     0.28180   0.31170   0.86170   0.01267  Uiso   1.00
C48    C     0.79670   0.79880   0.83410   0.01267  Uiso   1.00
C49    C     0.88390   0.43010   0.16330   0.01267  Uiso   1.00
C50    C     0.84460   0.77470   0.18470   0.01267  Uiso   1.00
C51    C     0.78280   0.80330   0.03620   0.01267  Uiso   1.00
C52    C     0.77300   0.33350   0.95880   0.01267  Uiso   1.00
C53    C     0.22020   0.76230   0.09190   0.01267  Uiso   1.00
C54    C     0.26610   0.56940   0.06870   0.01267  Uiso   1.00
C55    C     0.69730   0.43430   0.85630   0.01267  Uiso   1.00
C56    C     0.79830   0.20410   0.14030   0.01267  Uiso   1.00
N1     N     0.98080   0.14020   0.54070   0.01267  Uiso   1.00
N2     N     0.89450   0.89740   0.55740   0.01267  Uiso   1.00
N3     N     0.10550   0.10260   0.44260   0.01267  Uiso   1.00
N4     N     0.01920   0.85980   0.45930   0.01267  Uiso   1.00
O1     O     0.78920   0.37310   0.32180   0.01267  Uiso   1.00
O2     O     0.45500   0.79440   0.32260   0.01267  Uiso   1.00
O3     O     0.19070   0.63290   0.32010   0.01267  Uiso   1.00
O4     O     0.84230   0.16940   0.29950   0.01267  Uiso   1.00
O5     O     0.20410   0.05650   0.30900   0.01267  Uiso   1.00
O6     O     0.52280   0.93050   0.70330   0.01267  Uiso   1.00
O7     O     0.79590   0.94350   0.69100   0.01267  Uiso   1.00
O8     O     0.57940   0.73310   0.67280   0.01267  Uiso   1.00
O9     O     0.15770   0.83060   0.70050   0.01267  Uiso   1.00
O10    O     0.42060   0.26690   0.32720   0.01267  Uiso   1.00
O11    O     0.22410   0.36140   0.70400   0.01267  Uiso   1.00
O12    O     0.16740   0.12680   0.68190   0.01267  Uiso   1.00
O13    O     0.77590   0.63860   0.29600   0.01267  Uiso   1.00
O14    O     0.04900   0.79430   0.31020   0.01267  Uiso   1.00
O15    O     0.80930   0.36710   0.67990   0.01267  Uiso   1.00
O16    O     0.94230   0.62760   0.68360   0.01267  Uiso   1.00
O17    O     0.54500   0.20560   0.67740   0.01267  Uiso   1.00
O18    O     0.41150   0.55980   0.30450   0.01267  Uiso   1.00
O19    O     0.47720   0.06950   0.29670   0.01267  Uiso   1.00
O20    O     0.83260   0.87320   0.31810   0.01267  Uiso   1.00
O21    O     0.95100   0.20570   0.68980   0.01267  Uiso   1.00
O22    O     0.58850   0.44020   0.69550   0.01267  Uiso   1.00
O23    O     0.05770   0.37240   0.31640   0.01267  Uiso   1.00
O24    O     0.21080   0.62690   0.67820   0.01267  Uiso   1.00
