data_PODXEN_clean
_audit_creation_date              2015-10-16
_audit_creation_method            'Materials Studio'
_symmetry_space_group_name_H-M    'P1'
_symmetry_Int_Tables_number       1
_symmetry_cell_setting            triclinic
loop_
_symmetry_equiv_pos_as_xyz
  x,y,z
_cell_length_a                    8.4804
_cell_length_b                    14.1017
_cell_length_c                    20.7617
_cell_angle_alpha                 83.4720
_cell_angle_beta                  81.2410
_cell_angle_gamma                 82.8230
loop_
_atom_site_label
_atom_site_type_symbol
_atom_site_fract_x
_atom_site_fract_y
_atom_site_fract_z
_atom_site_U_iso_or_equiv
_atom_site_adp_type
_atom_site_occupancy
Zn1    Zn    0.95977   0.36078   0.27634   0.01267  Uiso   1.00
Zn2    Zn    0.80240   0.38528   0.08453   0.01267  Uiso   1.00
Zn3    Zn    0.04023   0.63922   0.72366   0.01267  Uiso   1.00
Zn4    Zn    0.19760   0.61472   0.91547   0.01267  Uiso   1.00
H1     H     0.74050   0.17180   0.50570   0.01267  Uiso   1.00
H2     H     0.96570   0.95970   0.13900   0.01267  Uiso   1.00
H3     H     0.51360   0.41110   0.20830   0.01267  Uiso   1.00
H4     H     0.39770   0.35400   0.64970   0.01267  Uiso   1.00
H5     H     0.40580   0.27630   0.27560   0.01267  Uiso   1.00
H6     H     0.95430   0.93360   0.00310   0.01267  Uiso   1.00
H7     H     0.89610   0.73530   0.30300   0.01267  Uiso   1.00
H8     H     0.61190   0.92410   0.83690   0.01267  Uiso   1.00
H9     H     0.03820   0.84950   0.32040   0.01267  Uiso   1.00
H10    H     0.58330   0.69530   0.09090   0.01267  Uiso   1.00
H11    H     0.70960   0.17990   0.12790   0.01267  Uiso   1.00
H12    H     0.63570   0.91950   0.33570   0.01267  Uiso   1.00
H13    H     0.01260   0.33660   0.91180   0.01267  Uiso   1.00
H14    H     0.53480   0.14140   0.02970   0.01267  Uiso   1.00
H15    H     0.05820   0.99990   0.34630   0.01267  Uiso   1.00
H16    H     0.26710   0.95620   0.98150   0.01267  Uiso   1.00
H17    H     0.65810   0.08050   0.30480   0.01267  Uiso   1.00
H18    H     0.30540   0.88290   0.38490   0.01267  Uiso   1.00
H19    H     0.14670   0.41240   0.72110   0.01267  Uiso   1.00
H20    H     0.79050   0.56410   0.96930   0.01267  Uiso   1.00
H21    H     0.36430   0.08050   0.66430   0.01267  Uiso   1.00
H22    H     0.29040   0.82010   0.87210   0.01267  Uiso   1.00
H23    H     0.03430   0.04030   0.86100   0.01267  Uiso   1.00
H24    H     0.98740   0.66340   0.08820   0.01267  Uiso   1.00
H25    H     0.56400   0.57480   0.57460   0.01267  Uiso   1.00
H26    H     0.48640   0.58890   0.79170   0.01267  Uiso   1.00
H27    H     0.43600   0.42520   0.42540   0.01267  Uiso   1.00
H28    H     0.63200   0.78700   0.16970   0.01267  Uiso   1.00
H29    H     0.99180   0.11130   0.16590   0.01267  Uiso   1.00
H30    H     0.04120   0.80920   0.11320   0.01267  Uiso   1.00
H31    H     0.36800   0.21300   0.83030   0.01267  Uiso   1.00
H32    H     0.30990   0.24850   0.05070   0.01267  Uiso   1.00
H33    H     0.00820   0.88870   0.83410   0.01267  Uiso   1.00
H34    H     0.25950   0.82820   0.49430   0.01267  Uiso   1.00
H35    H     0.40870   0.54400   0.68330   0.01267  Uiso   1.00
H36    H     0.70580   0.33290   0.70240   0.01267  Uiso   1.00
H37    H     0.34190   0.91950   0.69520   0.01267  Uiso   1.00
H38    H     0.86220   0.27530   0.41900   0.01267  Uiso   1.00
H39    H     0.13780   0.72470   0.58100   0.01267  Uiso   1.00
H40    H     0.96180   0.15050   0.67960   0.01267  Uiso   1.00
H41    H     0.10390   0.26470   0.69700   0.01267  Uiso   1.00
H42    H     0.62010   0.31640   0.98120   0.01267  Uiso   1.00
H43    H     0.69460   0.11710   0.61510   0.01267  Uiso   1.00
H44    H     0.37990   0.68360   0.01880   0.01267  Uiso   1.00
H45    H     0.36110   0.91520   0.19560   0.01267  Uiso   1.00
H46    H     0.41670   0.30470   0.90910   0.01267  Uiso   1.00
H47    H     0.04570   0.06640   0.99690   0.01267  Uiso   1.00
H48    H     0.55010   0.58880   0.45840   0.01267  Uiso   1.00
H49    H     0.85330   0.58760   0.27890   0.01267  Uiso   1.00
H50    H     0.73290   0.04380   0.01850   0.01267  Uiso   1.00
H51    H     0.94180   0.00010   0.65370   0.01267  Uiso   1.00
H52    H     0.71320   0.54830   0.86340   0.01267  Uiso   1.00
H53    H     0.24480   0.57540   0.21820   0.01267  Uiso   1.00
H54    H     0.44990   0.41120   0.54160   0.01267  Uiso   1.00
H55    H     0.20950   0.43590   0.03070   0.01267  Uiso   1.00
H56    H     0.46520   0.85860   0.97030   0.01267  Uiso   1.00
H57    H     0.59420   0.72370   0.72440   0.01267  Uiso   1.00
H58    H     0.38810   0.07590   0.16310   0.01267  Uiso   1.00
H59    H     0.60230   0.64600   0.35030   0.01267  Uiso   1.00
H60    H     0.95880   0.19080   0.88680   0.01267  Uiso   1.00
H61    H     0.29420   0.66710   0.29760   0.01267  Uiso   1.00
H62    H     0.63890   0.08480   0.80440   0.01267  Uiso   1.00
H63    H     0.75520   0.42460   0.78180   0.01267  Uiso   1.00
H64    H     0.28680   0.45170   0.13660   0.01267  Uiso   1.00
H65    H     0.69010   0.75150   0.94930   0.01267  Uiso   1.00
H66    H     0.59130   0.45600   0.31670   0.01267  Uiso   1.00
C1     C     0.08490   0.27890   0.74030   0.01267  Uiso   1.00
C2     C     0.60140   0.29850   0.51320   0.01267  Uiso   1.00
C3     C     0.02250   0.07210   0.26040   0.01267  Uiso   1.00
C4     C     0.49930   0.35170   0.55630   0.01267  Uiso   1.00
C5     C     0.40580   0.63000   0.14650   0.01267  Uiso   1.00
C6     C     0.88760   0.63300   0.24520   0.01267  Uiso   1.00
C7     C     0.96150   0.00780   0.69550   0.01267  Uiso   1.00
C8     C     0.98400   0.96730   0.18100   0.01267  Uiso   1.00
C9     C     0.69990   0.81030   0.96380   0.01267  Uiso   1.00
C10    C     0.41470   0.04920   0.69880   0.01267  Uiso   1.00
C11    C     0.51980   0.72670   0.76220   0.01267  Uiso   1.00
C12    C     0.02850   0.20910   0.78940   0.01267  Uiso   1.00
C13    C     0.67940   0.38100   0.79170   0.01267  Uiso   1.00
C14    C     0.11240   0.36700   0.75480   0.01267  Uiso   1.00
C15    C     0.00160   0.94110   0.80270   0.01267  Uiso   1.00
C16    C     0.46020   0.60110   0.58890   0.01267  Uiso   1.00
C17    C     0.27760   0.01530   0.99520   0.01267  Uiso   1.00
C18    C     0.97360   0.09840   0.71090   0.01267  Uiso   1.00
C19    C     0.53980   0.39890   0.41110   0.01267  Uiso   1.00
C20    C     0.70260   0.50390   0.90010   0.01267  Uiso   1.00
C21    C     0.00000   0.23440   0.85330   0.01267  Uiso   1.00
C22    C     0.54380   0.23030   0.64420   0.01267  Uiso   1.00
C23    C     0.99830   0.76590   0.95890   0.01267  Uiso   1.00
C24    C     0.49630   0.90070   0.26860   0.01267  Uiso   1.00
C25    C     0.01600   0.03270   0.81900   0.01267  Uiso   1.00
C26    C     0.56300   0.95560   0.80210   0.01267  Uiso   1.00
C27    C     0.54040   0.34690   0.20080   0.01267  Uiso   1.00
C28    C     0.55200   0.74600   0.17920   0.01267  Uiso   1.00
C29    C     0.52640   0.09290   0.23150   0.01267  Uiso   1.00
C30    C     0.43550   0.12420   0.02440   0.01267  Uiso   1.00
C31    C     0.91510   0.72110   0.25970   0.01267  Uiso   1.00
C32    C     0.74610   0.51200   0.95850   0.01267  Uiso   1.00
C33    C     0.29740   0.49610   0.09990   0.01267  Uiso   1.00
C34    C     0.40080   0.95300   0.71740   0.01267  Uiso   1.00
C35    C     0.96890   0.67760   0.13160   0.01267  Uiso   1.00
C36    C     0.97150   0.79090   0.21060   0.01267  Uiso   1.00
C37    C     0.03850   0.99220   0.30450   0.01267  Uiso   1.00
C38    C     0.30010   0.18970   0.03620   0.01267  Uiso   1.00
C39    C     0.02640   0.90160   0.28910   0.01267  Uiso   1.00
C40    C     0.44800   0.25400   0.82080   0.01267  Uiso   1.00
C41    C     0.57810   0.05180   0.78270   0.01267  Uiso   1.00
C42    C     0.22460   0.68310   0.59330   0.01267  Uiso   1.00
C43    C     0.32650   0.79070   0.46510   0.01267  Uiso   1.00
C44    C     0.46910   0.31780   0.62100   0.01267  Uiso   1.00
C45    C     0.32060   0.61900   0.20830   0.01267  Uiso   1.00
C46    C     0.56450   0.87580   0.97560   0.01267  Uiso   1.00
C47    C     0.03110   0.32240   0.86840   0.01267  Uiso   1.00
C48    C     0.59420   0.37000   0.85350   0.01267  Uiso   1.00
C49    C     0.99650   0.88670   0.22670   0.01267  Uiso   1.00
C50    C     0.42190   0.94820   0.21730   0.01267  Uiso   1.00
C51    C     0.45620   0.76970   0.35580   0.01267  Uiso   1.00
C52    C     0.84820   0.83170   0.97320   0.01267  Uiso   1.00
C53    C     0.57170   0.96420   0.99480   0.01267  Uiso   1.00
C54    C     0.97540   0.82910   0.72060   0.01267  Uiso   1.00
C55    C     0.00000   0.76560   0.14670   0.01267  Uiso   1.00
C56    C     0.65200   0.37650   0.96540   0.01267  Uiso   1.00
C57    C     0.64830   0.22090   0.15650   0.01267  Uiso   1.00
C58    C     0.25390   0.48800   0.04150   0.01267  Uiso   1.00
C59    C     0.43700   0.04440   0.19790   0.01267  Uiso   1.00
C60    C     0.00170   0.23410   0.04110   0.01267  Uiso   1.00
C61    C     0.42830   0.03580   0.00520   0.01267  Uiso   1.00
C62    C     0.00350   0.11330   0.77330   0.01267  Uiso   1.00
C63    C     0.35170   0.77910   0.84350   0.01267  Uiso   1.00
C64    C     0.47360   0.90710   0.76850   0.01267  Uiso   1.00
C65    C     0.85610   0.91850   0.99480   0.01267  Uiso   1.00
C66    C     0.35020   0.67440   0.25550   0.01267  Uiso   1.00
C67    C     0.46070   0.73980   0.24110   0.01267  Uiso   1.00
C68    C     0.72240   0.98470   0.00480   0.01267  Uiso   1.00
C69    C     0.77540   0.31690   0.40670   0.01267  Uiso   1.00
C70    C     0.50370   0.09930   0.73140   0.01267  Uiso   1.00
C71    C     0.37250   0.58460   0.64880   0.01267  Uiso   1.00
C72    C     0.59920   0.04700   0.28260   0.01267  Uiso   1.00
C73    C     0.87220   0.51610   0.16410   0.01267  Uiso   1.00
C74    C     0.34800   0.62350   0.03460   0.01267  Uiso   1.00
C75    C     0.39860   0.70150   0.48680   0.01267  Uiso   1.00
C76    C     0.53930   0.26020   0.75890   0.01267  Uiso   1.00
C77    C     0.47690   0.30900   0.86770   0.01267  Uiso   1.00
C78    C     0.12780   0.48390   0.83590   0.01267  Uiso   1.00
C79    C     0.45960   0.65310   0.79920   0.01267  Uiso   1.00
C80    C     0.02460   0.17090   0.27940   0.01267  Uiso   1.00
C81    C     0.15180   0.16830   0.02680   0.01267  Uiso   1.00
C82    C     0.53090   0.68220   0.37900   0.01267  Uiso   1.00
C83    C     0.52310   0.69100   0.13230   0.01267  Uiso   1.00
C84    C     0.14390   0.08150   0.00520   0.01267  Uiso   1.00
C85    C     0.50070   0.64830   0.44370   0.01267  Uiso   1.00
C86    C     0.67350   0.20930   0.53490   0.01267  Uiso   1.00
C87    C     0.99840   0.05890   0.19730   0.01267  Uiso   1.00
C88    C     0.91040   0.61010   0.18030   0.01267  Uiso   1.00
C89    C     0.35510   0.82350   0.39960   0.01267  Uiso   1.00
C90    C     0.64980   0.32560   0.74450   0.01267  Uiso   1.00
C91    C     0.08960   0.38990   0.81970   0.01267  Uiso   1.00
C92    C     0.64490   0.17650   0.60040   0.01267  Uiso   1.00
C93    C     0.97750   0.92790   0.73960   0.01267  Uiso   1.00
C94    C     0.48020   0.27330   0.23780   0.01267  Uiso   1.00
C95    C     0.58530   0.95080   0.30120   0.01267  Uiso   1.00
C96    C     0.62750   0.41540   0.35120   0.01267  Uiso   1.00
N1     N     0.48340   0.80150   0.28790   0.01267  Uiso   1.00
N2     N     0.36090   0.58280   0.09545   0.01267  Uiso   1.00
N3     N     0.28570   0.56960   0.99982   0.01267  Uiso   1.00
N4     N     0.71430   0.43040   0.00018   0.01267  Uiso   1.00
N5     N     0.22520   0.63550   0.65160   0.01267  Uiso   1.00
N6     N     0.63910   0.41720   0.90455   0.01267  Uiso   1.00
N7     N     0.35140   0.68610   0.85015   0.01267  Uiso   1.00
N8     N     0.54880   0.19160   0.20950   0.01267  Uiso   1.00
N9     N     0.64860   0.31390   0.14985   0.01267  Uiso   1.00
N10    N     0.51660   0.19850   0.71210   0.01267  Uiso   1.00
N11    N     0.36100   0.66550   0.55414   0.01267  Uiso   1.00
N12    N     0.77480   0.36450   0.34840   0.01267  Uiso   1.00
N13    N     0.45120   0.80840   0.79050   0.01267  Uiso   1.00
N14    N     0.63900   0.33450   0.44586   0.01267  Uiso   1.00
O1     O     0.86000   0.44700   0.20733   0.01267  Uiso   1.00
O2     O     0.84520   0.51110   0.10704   0.01267  Uiso   1.00
O3     O     0.12760   0.79050   0.96869   0.01267  Uiso   1.00
O4     O     0.94940   0.81760   0.66590   0.01267  Uiso   1.00
O5     O     0.15480   0.48890   0.89296   0.01267  Uiso   1.00
O6     O     0.14000   0.55300   0.79267   0.01267  Uiso   1.00
O7     O     0.98590   0.68630   0.93706   0.01267  Uiso   1.00
O8     O     0.01410   0.31370   0.06294   0.01267  Uiso   1.00
O9     O     0.05060   0.18240   0.33410   0.01267  Uiso   1.00
O10    O     0.87240   0.20950   0.03131   0.01267  Uiso   1.00
O11    O     0.99370   0.24060   0.23680   0.01267  Uiso   1.00
O12    O     0.00630   0.75940   0.76320   0.01267  Uiso   1.00
