data_image0
_cell_length_a       21.1288
_cell_length_b       21.1288
_cell_length_c       21.1288
_cell_angle_alpha    90
_cell_angle_beta     90
_cell_angle_gamma    90

_symmetry_space_group_name_H-M    "P 1"
_symmetry_int_tables_number       1

loop_
  _symmetry_equiv_pos_as_xyz
  'x, y, z'

loop_
  _atom_site_label
  _atom_site_occupancy
  _atom_site_fract_x
  _atom_site_fract_y
  _atom_site_fract_z
  _atom_site_thermal_displace_type
  _atom_site_B_iso_or_equiv
  _atom_site_type_symbol
  O1       1.0000 0.97755  0.79765  0.55950  Biso   1.000  O
  O2       1.0000 0.09180  0.60847  0.36050  Biso   1.000  O
  O3       1.0000 0.07790  0.65757  0.26842  Biso   1.000  O
  C1       1.0000 0.07060  0.65180  0.32710  Biso   1.000  C
  C2       1.0000 0.03300  0.70440  0.42760  Biso   1.000  C
  C3       1.0000 0.03370  0.70380  0.36130  Biso   1.000  C
  Li1      1.0000 0.02820  0.84200  0.62770  Biso   1.000  Li
  H1       1.0000 0.05900  0.66600  0.45400  Biso   1.000  H
  O4       1.0000 0.47755  0.29765  0.05950  Biso   1.000  O
  O5       1.0000 0.59180  0.10847  0.86050  Biso   1.000  O
  O6       1.0000 0.57790  0.15757  0.76842  Biso   1.000  O
  C4       1.0000 0.57060  0.15180  0.82710  Biso   1.000  C
  C5       1.0000 0.53300  0.20440  0.92760  Biso   1.000  C
  C6       1.0000 0.53370  0.20380  0.86130  Biso   1.000  C
  Li2      1.0000 0.52820  0.34200  0.12770  Biso   1.000  Li
  H2       1.0000 0.55900  0.16600  0.95400  Biso   1.000  H
  O7       1.0000 0.52245  0.20235  0.05950  Biso   1.000  O
  O8       1.0000 0.40820  0.39153  0.86050  Biso   1.000  O
  O9       1.0000 0.42210  0.34243  0.76842  Biso   1.000  O
  C7       1.0000 0.42940  0.34820  0.82710  Biso   1.000  C
  C8       1.0000 0.46700  0.29560  0.92760  Biso   1.000  C
  C9       1.0000 0.46630  0.29620  0.86130  Biso   1.000  C
  Li3      1.0000 0.47180  0.15800  0.12770  Biso   1.000  Li
  H3       1.0000 0.44100  0.33400  0.95400  Biso   1.000  H
  O10      1.0000 0.02245  0.70235  0.55950  Biso   1.000  O
  O11      1.0000 0.90820  0.89153  0.36050  Biso   1.000  O
  O12      1.0000 0.92210  0.84243  0.26842  Biso   1.000  O
  C10      1.0000 0.92940  0.84820  0.32710  Biso   1.000  C
  C11      1.0000 0.96700  0.79560  0.42760  Biso   1.000  C
  C12      1.0000 0.96630  0.79620  0.36130  Biso   1.000  C
  Li4      1.0000 0.97180  0.65800  0.62770  Biso   1.000  Li
  H4       1.0000 0.94100  0.83400  0.45400  Biso   1.000  H
  O13      1.0000 0.02245  0.29765  0.94050  Biso   1.000  O
  O14      1.0000 0.90820  0.10847  0.13950  Biso   1.000  O
  O15      1.0000 0.92210  0.15757  0.23158  Biso   1.000  O
  C13      1.0000 0.92940  0.15180  0.17290  Biso   1.000  C
  C14      1.0000 0.96700  0.20440  0.07240  Biso   1.000  C
  C15      1.0000 0.96630  0.20380  0.13870  Biso   1.000  C
  Li5      1.0000 0.97180  0.34200  0.87230  Biso   1.000  Li
  H5       1.0000 0.94100  0.16600  0.04600  Biso   1.000  H
  O16      1.0000 0.52245  0.79765  0.44050  Biso   1.000  O
  O17      1.0000 0.40820  0.60847  0.63950  Biso   1.000  O
  O18      1.0000 0.42210  0.65757  0.73158  Biso   1.000  O
  C16      1.0000 0.42940  0.65180  0.67290  Biso   1.000  C
  C17      1.0000 0.46700  0.70440  0.57240  Biso   1.000  C
  C18      1.0000 0.46630  0.70380  0.63870  Biso   1.000  C
  Li6      1.0000 0.47180  0.84200  0.37230  Biso   1.000  Li
  H6       1.0000 0.44100  0.66600  0.54600  Biso   1.000  H
  O19      1.0000 0.47755  0.70235  0.44050  Biso   1.000  O
  O20      1.0000 0.59180  0.89153  0.63950  Biso   1.000  O
  O21      1.0000 0.57790  0.84243  0.73158  Biso   1.000  O
  C19      1.0000 0.57060  0.84820  0.67290  Biso   1.000  C
  C20      1.0000 0.53300  0.79560  0.57240  Biso   1.000  C
  C21      1.0000 0.53370  0.79620  0.63870  Biso   1.000  C
  Li7      1.0000 0.52820  0.65800  0.37230  Biso   1.000  Li
  H7       1.0000 0.55900  0.83400  0.54600  Biso   1.000  H
  O22      1.0000 0.97755  0.20235  0.94050  Biso   1.000  O
  O23      1.0000 0.09180  0.39153  0.13950  Biso   1.000  O
  O24      1.0000 0.07790  0.34243  0.23158  Biso   1.000  O
  C22      1.0000 0.07060  0.34820  0.17290  Biso   1.000  C
  C23      1.0000 0.03300  0.29560  0.07240  Biso   1.000  C
  C24      1.0000 0.03370  0.29620  0.13870  Biso   1.000  C
  Li8      1.0000 0.02820  0.15800  0.87230  Biso   1.000  Li
  H8       1.0000 0.05900  0.33400  0.04600  Biso   1.000  H
  O25      1.0000 0.55950  0.97755  0.79765  Biso   1.000  O
  O26      1.0000 0.36050  0.09180  0.60847  Biso   1.000  O
  O27      1.0000 0.26842  0.07790  0.65757  Biso   1.000  O
  C25      1.0000 0.32710  0.07060  0.65180  Biso   1.000  C
  C26      1.0000 0.42760  0.03300  0.70440  Biso   1.000  C
  C27      1.0000 0.36130  0.03370  0.70380  Biso   1.000  C
  Li9      1.0000 0.62770  0.02820  0.84200  Biso   1.000  Li
  H9       1.0000 0.45400  0.05900  0.66600  Biso   1.000  H
  O28      1.0000 0.05950  0.47755  0.29765  Biso   1.000  O
  O29      1.0000 0.86050  0.59180  0.10847  Biso   1.000  O
  O30      1.0000 0.76842  0.57790  0.15757  Biso   1.000  O
  C28      1.0000 0.82710  0.57060  0.15180  Biso   1.000  C
  C29      1.0000 0.92760  0.53300  0.20440  Biso   1.000  C
  C30      1.0000 0.86130  0.53370  0.20380  Biso   1.000  C
  Li10     1.0000 0.12770  0.52820  0.34200  Biso   1.000  Li
  H10      1.0000 0.95400  0.55900  0.16600  Biso   1.000  H
  O31      1.0000 0.05950  0.52245  0.20235  Biso   1.000  O
  O32      1.0000 0.86050  0.40820  0.39153  Biso   1.000  O
  O33      1.0000 0.76842  0.42210  0.34243  Biso   1.000  O
  C31      1.0000 0.82710  0.42940  0.34820  Biso   1.000  C
  C32      1.0000 0.92760  0.46700  0.29560  Biso   1.000  C
  C33      1.0000 0.86130  0.46630  0.29620  Biso   1.000  C
  Li11     1.0000 0.12770  0.47180  0.15800  Biso   1.000  Li
  H11      1.0000 0.95400  0.44100  0.33400  Biso   1.000  H
  O34      1.0000 0.55950  0.02245  0.70235  Biso   1.000  O
  O35      1.0000 0.36050  0.90820  0.89153  Biso   1.000  O
  O36      1.0000 0.26842  0.92210  0.84243  Biso   1.000  O
  C34      1.0000 0.32710  0.92940  0.84820  Biso   1.000  C
  C35      1.0000 0.42760  0.96700  0.79560  Biso   1.000  C
  C36      1.0000 0.36130  0.96630  0.79620  Biso   1.000  C
  Li12     1.0000 0.62770  0.97180  0.65800  Biso   1.000  Li
  H12      1.0000 0.45400  0.94100  0.83400  Biso   1.000  H
  O37      1.0000 0.94050  0.02245  0.29765  Biso   1.000  O
  O38      1.0000 0.13950  0.90820  0.10847  Biso   1.000  O
  O39      1.0000 0.23158  0.92210  0.15757  Biso   1.000  O
  C37      1.0000 0.17290  0.92940  0.15180  Biso   1.000  C
  C38      1.0000 0.07240  0.96700  0.20440  Biso   1.000  C
  C39      1.0000 0.13870  0.96630  0.20380  Biso   1.000  C
  Li13     1.0000 0.87230  0.97180  0.34200  Biso   1.000  Li
  H13      1.0000 0.04600  0.94100  0.16600  Biso   1.000  H
  O40      1.0000 0.44050  0.52245  0.79765  Biso   1.000  O
  O41      1.0000 0.63950  0.40820  0.60847  Biso   1.000  O
  O42      1.0000 0.73158  0.42210  0.65757  Biso   1.000  O
  C40      1.0000 0.67290  0.42940  0.65180  Biso   1.000  C
  C41      1.0000 0.57240  0.46700  0.70440  Biso   1.000  C
  C42      1.0000 0.63870  0.46630  0.70380  Biso   1.000  C
  Li14     1.0000 0.37230  0.47180  0.84200  Biso   1.000  Li
  H14      1.0000 0.54600  0.44100  0.66600  Biso   1.000  H
  O43      1.0000 0.44050  0.47755  0.70235  Biso   1.000  O
  O44      1.0000 0.63950  0.59180  0.89153  Biso   1.000  O
  O45      1.0000 0.73158  0.57790  0.84243  Biso   1.000  O
  C43      1.0000 0.67290  0.57060  0.84820  Biso   1.000  C
  C44      1.0000 0.57240  0.53300  0.79560  Biso   1.000  C
  C45      1.0000 0.63870  0.53370  0.79620  Biso   1.000  C
  Li15     1.0000 0.37230  0.52820  0.65800  Biso   1.000  Li
  H15      1.0000 0.54600  0.55900  0.83400  Biso   1.000  H
  O46      1.0000 0.94050  0.97755  0.20235  Biso   1.000  O
  O47      1.0000 0.13950  0.09180  0.39153  Biso   1.000  O
  O48      1.0000 0.23158  0.07790  0.34243  Biso   1.000  O
  C46      1.0000 0.17290  0.07060  0.34820  Biso   1.000  C
  C47      1.0000 0.07240  0.03300  0.29560  Biso   1.000  C
  C48      1.0000 0.13870  0.03370  0.29620  Biso   1.000  C
  Li16     1.0000 0.87230  0.02820  0.15800  Biso   1.000  Li
  H16      1.0000 0.04600  0.05900  0.33400  Biso   1.000  H
  O49      1.0000 0.79765  0.55950  0.97755  Biso   1.000  O
  O50      1.0000 0.60847  0.36050  0.09180  Biso   1.000  O
  O51      1.0000 0.65757  0.26842  0.07790  Biso   1.000  O
  C49      1.0000 0.65180  0.32710  0.07060  Biso   1.000  C
  C50      1.0000 0.70440  0.42760  0.03300  Biso   1.000  C
  C51      1.0000 0.70380  0.36130  0.03370  Biso   1.000  C
  Li17     1.0000 0.84200  0.62770  0.02820  Biso   1.000  Li
  H17      1.0000 0.66600  0.45400  0.05900  Biso   1.000  H
  O52      1.0000 0.29765  0.05950  0.47755  Biso   1.000  O
  O53      1.0000 0.10847  0.86050  0.59180  Biso   1.000  O
  O54      1.0000 0.15757  0.76842  0.57790  Biso   1.000  O
  C52      1.0000 0.15180  0.82710  0.57060  Biso   1.000  C
  C53      1.0000 0.20440  0.92760  0.53300  Biso   1.000  C
  C54      1.0000 0.20380  0.86130  0.53370  Biso   1.000  C
  Li18     1.0000 0.34200  0.12770  0.52820  Biso   1.000  Li
  H18      1.0000 0.16600  0.95400  0.55900  Biso   1.000  H
  O55      1.0000 0.20235  0.05950  0.52245  Biso   1.000  O
  O56      1.0000 0.39153  0.86050  0.40820  Biso   1.000  O
  O57      1.0000 0.34243  0.76842  0.42210  Biso   1.000  O
  C55      1.0000 0.34820  0.82710  0.42940  Biso   1.000  C
  C56      1.0000 0.29560  0.92760  0.46700  Biso   1.000  C
  C57      1.0000 0.29620  0.86130  0.46630  Biso   1.000  C
  Li19     1.0000 0.15800  0.12770  0.47180  Biso   1.000  Li
  H19      1.0000 0.33400  0.95400  0.44100  Biso   1.000  H
  O58      1.0000 0.70235  0.55950  0.02245  Biso   1.000  O
  O59      1.0000 0.89153  0.36050  0.90820  Biso   1.000  O
  O60      1.0000 0.84243  0.26842  0.92210  Biso   1.000  O
  C58      1.0000 0.84820  0.32710  0.92940  Biso   1.000  C
  C59      1.0000 0.79560  0.42760  0.96700  Biso   1.000  C
  C60      1.0000 0.79620  0.36130  0.96630  Biso   1.000  C
  Li20     1.0000 0.65800  0.62770  0.97180  Biso   1.000  Li
  H20      1.0000 0.83400  0.45400  0.94100  Biso   1.000  H
  O61      1.0000 0.29765  0.94050  0.02245  Biso   1.000  O
  O62      1.0000 0.10847  0.13950  0.90820  Biso   1.000  O
  O63      1.0000 0.15757  0.23158  0.92210  Biso   1.000  O
  C61      1.0000 0.15180  0.17290  0.92940  Biso   1.000  C
  C62      1.0000 0.20440  0.07240  0.96700  Biso   1.000  C
  C63      1.0000 0.20380  0.13870  0.96630  Biso   1.000  C
  Li21     1.0000 0.34200  0.87230  0.97180  Biso   1.000  Li
  H21      1.0000 0.16600  0.04600  0.94100  Biso   1.000  H
  O64      1.0000 0.79765  0.44050  0.52245  Biso   1.000  O
  O65      1.0000 0.60847  0.63950  0.40820  Biso   1.000  O
  O66      1.0000 0.65757  0.73158  0.42210  Biso   1.000  O
  C64      1.0000 0.65180  0.67290  0.42940  Biso   1.000  C
  C65      1.0000 0.70440  0.57240  0.46700  Biso   1.000  C
  C66      1.0000 0.70380  0.63870  0.46630  Biso   1.000  C
  Li22     1.0000 0.84200  0.37230  0.47180  Biso   1.000  Li
  H22      1.0000 0.66600  0.54600  0.44100  Biso   1.000  H
  O67      1.0000 0.70235  0.44050  0.47755  Biso   1.000  O
  O68      1.0000 0.89153  0.63950  0.59180  Biso   1.000  O
  O69      1.0000 0.84243  0.73158  0.57790  Biso   1.000  O
  C67      1.0000 0.84820  0.67290  0.57060  Biso   1.000  C
  C68      1.0000 0.79560  0.57240  0.53300  Biso   1.000  C
  C69      1.0000 0.79620  0.63870  0.53370  Biso   1.000  C
  Li23     1.0000 0.65800  0.37230  0.52820  Biso   1.000  Li
  H23      1.0000 0.83400  0.54600  0.55900  Biso   1.000  H
  O70      1.0000 0.20235  0.94050  0.97755  Biso   1.000  O
  O71      1.0000 0.39153  0.13950  0.09180  Biso   1.000  O
  O72      1.0000 0.34243  0.23158  0.07790  Biso   1.000  O
  C70      1.0000 0.34820  0.17290  0.07060  Biso   1.000  C
  C71      1.0000 0.29560  0.07240  0.03300  Biso   1.000  C
  C72      1.0000 0.29620  0.13870  0.03370  Biso   1.000  C
  Li24     1.0000 0.15800  0.87230  0.02820  Biso   1.000  Li
  H24      1.0000 0.33400  0.04600  0.05900  Biso   1.000  H
  O73      1.0000 0.04765  0.22755  0.80950  Biso   1.000  O
  O74      1.0000 0.85847  0.34180  0.61050  Biso   1.000  O
  O75      1.0000 0.90757  0.32790  0.51842  Biso   1.000  O
  C73      1.0000 0.90180  0.32060  0.57710  Biso   1.000  C
  C74      1.0000 0.95440  0.28300  0.67760  Biso   1.000  C
  C75      1.0000 0.95380  0.28370  0.61130  Biso   1.000  C
  Li25     1.0000 0.09200  0.27820  0.87770  Biso   1.000  Li
  H25      1.0000 0.91600  0.30900  0.70400  Biso   1.000  H
  O76      1.0000 0.54765  0.72755  0.30950  Biso   1.000  O
  O77      1.0000 0.35847  0.84180  0.11050  Biso   1.000  O
  O78      1.0000 0.40757  0.82790  0.01842  Biso   1.000  O
  C76      1.0000 0.40180  0.82060  0.07710  Biso   1.000  C
  C77      1.0000 0.45440  0.78300  0.17760  Biso   1.000  C
  C78      1.0000 0.45380  0.78370  0.11130  Biso   1.000  C
  Li26     1.0000 0.59200  0.77820  0.37770  Biso   1.000  Li
  H26      1.0000 0.41600  0.80900  0.20400  Biso   1.000  H
  O79      1.0000 0.45235  0.77245  0.30950  Biso   1.000  O
  O80      1.0000 0.64153  0.65820  0.11050  Biso   1.000  O
  O81      1.0000 0.59243  0.67210  0.01842  Biso   1.000  O
  C79      1.0000 0.59820  0.67940  0.07710  Biso   1.000  C
  C80      1.0000 0.54560  0.71700  0.17760  Biso   1.000  C
  C81      1.0000 0.54620  0.71630  0.11130  Biso   1.000  C
  Li27     1.0000 0.40800  0.72180  0.37770  Biso   1.000  Li
  H27      1.0000 0.58400  0.69100  0.20400  Biso   1.000  H
  O82      1.0000 0.95235  0.27245  0.80950  Biso   1.000  O
  O83      1.0000 0.14153  0.15820  0.61050  Biso   1.000  O
  O84      1.0000 0.09243  0.17210  0.51842  Biso   1.000  O
  C82      1.0000 0.09820  0.17940  0.57710  Biso   1.000  C
  C83      1.0000 0.04560  0.21700  0.67760  Biso   1.000  C
  C84      1.0000 0.04620  0.21630  0.61130  Biso   1.000  C
  Li28     1.0000 0.90800  0.22180  0.87770  Biso   1.000  Li
  H28      1.0000 0.08400  0.19100  0.70400  Biso   1.000  H
  O85      1.0000 0.54765  0.27245  0.19050  Biso   1.000  O
  O86      1.0000 0.35847  0.15820  0.38950  Biso   1.000  O
  O87      1.0000 0.40757  0.17210  0.48158  Biso   1.000  O
  C85      1.0000 0.40180  0.17940  0.42290  Biso   1.000  C
  C86      1.0000 0.45440  0.21700  0.32240  Biso   1.000  C
  C87      1.0000 0.45380  0.21630  0.38870  Biso   1.000  C
  Li29     1.0000 0.59200  0.22180  0.12230  Biso   1.000  Li
  H29      1.0000 0.41600  0.19100  0.29600  Biso   1.000  H
  O88      1.0000 0.04765  0.77245  0.69050  Biso   1.000  O
  O89      1.0000 0.85847  0.65820  0.88950  Biso   1.000  O
  O90      1.0000 0.90757  0.67210  0.98158  Biso   1.000  O
  C88      1.0000 0.90180  0.67940  0.92290  Biso   1.000  C
  C89      1.0000 0.95440  0.71700  0.82240  Biso   1.000  C
  C90      1.0000 0.95380  0.71630  0.88870  Biso   1.000  C
  Li30     1.0000 0.09200  0.72180  0.62230  Biso   1.000  Li
  H30      1.0000 0.91600  0.69100  0.79600  Biso   1.000  H
  O91      1.0000 0.95235  0.72755  0.69050  Biso   1.000  O
  O92      1.0000 0.14153  0.84180  0.88950  Biso   1.000  O
  O93      1.0000 0.09243  0.82790  0.98158  Biso   1.000  O
  C91      1.0000 0.09820  0.82060  0.92290  Biso   1.000  C
  C92      1.0000 0.04560  0.78300  0.82240  Biso   1.000  C
  C93      1.0000 0.04620  0.78370  0.88870  Biso   1.000  C
  Li31     1.0000 0.90800  0.77820  0.62230  Biso   1.000  Li
  H31      1.0000 0.08400  0.80900  0.79600  Biso   1.000  H
  O94      1.0000 0.45235  0.22755  0.19050  Biso   1.000  O
  O95      1.0000 0.64153  0.34180  0.38950  Biso   1.000  O
  O96      1.0000 0.59243  0.32790  0.48158  Biso   1.000  O
  C94      1.0000 0.59820  0.32060  0.42290  Biso   1.000  C
  C95      1.0000 0.54560  0.28300  0.32240  Biso   1.000  C
  C96      1.0000 0.54620  0.28370  0.38870  Biso   1.000  C
  Li32     1.0000 0.40800  0.27820  0.12230  Biso   1.000  Li
  H32      1.0000 0.58400  0.30900  0.29600  Biso   1.000  H
  O97      1.0000 0.22755  0.80950  0.04765  Biso   1.000  O
  O98      1.0000 0.34180  0.61050  0.85847  Biso   1.000  O
  O99      1.0000 0.32790  0.51842  0.90757  Biso   1.000  O
  C97      1.0000 0.32060  0.57710  0.90180  Biso   1.000  C
  C98      1.0000 0.28300  0.67760  0.95440  Biso   1.000  C
  C99      1.0000 0.28370  0.61130  0.95380  Biso   1.000  C
  Li33     1.0000 0.27820  0.87770  0.09200  Biso   1.000  Li
  H33      1.0000 0.30900  0.70400  0.91600  Biso   1.000  H
  O100     1.0000 0.72755  0.30950  0.54765  Biso   1.000  O
  O101     1.0000 0.84180  0.11050  0.35847  Biso   1.000  O
  O102     1.0000 0.82790  0.01842  0.40757  Biso   1.000  O
  C100     1.0000 0.82060  0.07710  0.40180  Biso   1.000  C
  C101     1.0000 0.78300  0.17760  0.45440  Biso   1.000  C
  C102     1.0000 0.78370  0.11130  0.45380  Biso   1.000  C
  Li34     1.0000 0.77820  0.37770  0.59200  Biso   1.000  Li
  H34      1.0000 0.80900  0.20400  0.41600  Biso   1.000  H
  O103     1.0000 0.77245  0.30950  0.45235  Biso   1.000  O
  O104     1.0000 0.65820  0.11050  0.64153  Biso   1.000  O
  O105     1.0000 0.67210  0.01842  0.59243  Biso   1.000  O
  C103     1.0000 0.67940  0.07710  0.59820  Biso   1.000  C
  C104     1.0000 0.71700  0.17760  0.54560  Biso   1.000  C
  C105     1.0000 0.71630  0.11130  0.54620  Biso   1.000  C
  Li35     1.0000 0.72180  0.37770  0.40800  Biso   1.000  Li
  H35      1.0000 0.69100  0.20400  0.58400  Biso   1.000  H
  O106     1.0000 0.27245  0.80950  0.95235  Biso   1.000  O
  O107     1.0000 0.15820  0.61050  0.14153  Biso   1.000  O
  O108     1.0000 0.17210  0.51842  0.09243  Biso   1.000  O
  C106     1.0000 0.17940  0.57710  0.09820  Biso   1.000  C
  C107     1.0000 0.21700  0.67760  0.04560  Biso   1.000  C
  C108     1.0000 0.21630  0.61130  0.04620  Biso   1.000  C
  Li36     1.0000 0.22180  0.87770  0.90800  Biso   1.000  Li
  H36      1.0000 0.19100  0.70400  0.08400  Biso   1.000  H
  O109     1.0000 0.27245  0.19050  0.54765  Biso   1.000  O
  O110     1.0000 0.15820  0.38950  0.35847  Biso   1.000  O
  O111     1.0000 0.17210  0.48158  0.40757  Biso   1.000  O
  C109     1.0000 0.17940  0.42290  0.40180  Biso   1.000  C
  C110     1.0000 0.21700  0.32240  0.45440  Biso   1.000  C
  C111     1.0000 0.21630  0.38870  0.45380  Biso   1.000  C
  Li37     1.0000 0.22180  0.12230  0.59200  Biso   1.000  Li
  H37      1.0000 0.19100  0.29600  0.41600  Biso   1.000  H
  O112     1.0000 0.77245  0.69050  0.04765  Biso   1.000  O
  O113     1.0000 0.65820  0.88950  0.85847  Biso   1.000  O
  O114     1.0000 0.67210  0.98158  0.90757  Biso   1.000  O
  C112     1.0000 0.67940  0.92290  0.90180  Biso   1.000  C
  C113     1.0000 0.71700  0.82240  0.95440  Biso   1.000  C
  C114     1.0000 0.71630  0.88870  0.95380  Biso   1.000  C
  Li38     1.0000 0.72180  0.62230  0.09200  Biso   1.000  Li
  H38      1.0000 0.69100  0.79600  0.91600  Biso   1.000  H
  O115     1.0000 0.72755  0.69050  0.95235  Biso   1.000  O
  O116     1.0000 0.84180  0.88950  0.14153  Biso   1.000  O
  O117     1.0000 0.82790  0.98158  0.09243  Biso   1.000  O
  C115     1.0000 0.82060  0.92290  0.09820  Biso   1.000  C
  C116     1.0000 0.78300  0.82240  0.04560  Biso   1.000  C
  C117     1.0000 0.78370  0.88870  0.04620  Biso   1.000  C
  Li39     1.0000 0.77820  0.62230  0.90800  Biso   1.000  Li
  H39      1.0000 0.80900  0.79600  0.08400  Biso   1.000  H
  O118     1.0000 0.22755  0.19050  0.45235  Biso   1.000  O
  O119     1.0000 0.34180  0.38950  0.64153  Biso   1.000  O
  O120     1.0000 0.32790  0.48158  0.59243  Biso   1.000  O
  C118     1.0000 0.32060  0.42290  0.59820  Biso   1.000  C
  C119     1.0000 0.28300  0.32240  0.54560  Biso   1.000  C
  C120     1.0000 0.28370  0.38870  0.54620  Biso   1.000  C
  Li40     1.0000 0.27820  0.12230  0.40800  Biso   1.000  Li
  H40      1.0000 0.30900  0.29600  0.58400  Biso   1.000  H
  O121     1.0000 0.80950  0.04765  0.22755  Biso   1.000  O
  O122     1.0000 0.61050  0.85847  0.34180  Biso   1.000  O
  O123     1.0000 0.51842  0.90757  0.32790  Biso   1.000  O
  C121     1.0000 0.57710  0.90180  0.32060  Biso   1.000  C
  C122     1.0000 0.67760  0.95440  0.28300  Biso   1.000  C
  C123     1.0000 0.61130  0.95380  0.28370  Biso   1.000  C
  Li41     1.0000 0.87770  0.09200  0.27820  Biso   1.000  Li
  H41      1.0000 0.70400  0.91600  0.30900  Biso   1.000  H
  O124     1.0000 0.30950  0.54765  0.72755  Biso   1.000  O
  O125     1.0000 0.11050  0.35847  0.84180  Biso   1.000  O
  O126     1.0000 0.01842  0.40757  0.82790  Biso   1.000  O
  C124     1.0000 0.07710  0.40180  0.82060  Biso   1.000  C
  C125     1.0000 0.17760  0.45440  0.78300  Biso   1.000  C
  C126     1.0000 0.11130  0.45380  0.78370  Biso   1.000  C
  Li42     1.0000 0.37770  0.59200  0.77820  Biso   1.000  Li
  H42      1.0000 0.20400  0.41600  0.80900  Biso   1.000  H
  O127     1.0000 0.30950  0.45235  0.77245  Biso   1.000  O
  O128     1.0000 0.11050  0.64153  0.65820  Biso   1.000  O
  O129     1.0000 0.01842  0.59243  0.67210  Biso   1.000  O
  C127     1.0000 0.07710  0.59820  0.67940  Biso   1.000  C
  C128     1.0000 0.17760  0.54560  0.71700  Biso   1.000  C
  C129     1.0000 0.11130  0.54620  0.71630  Biso   1.000  C
  Li43     1.0000 0.37770  0.40800  0.72180  Biso   1.000  Li
  H43      1.0000 0.20400  0.58400  0.69100  Biso   1.000  H
  O130     1.0000 0.80950  0.95235  0.27245  Biso   1.000  O
  O131     1.0000 0.61050  0.14153  0.15820  Biso   1.000  O
  O132     1.0000 0.51842  0.09243  0.17210  Biso   1.000  O
  C130     1.0000 0.57710  0.09820  0.17940  Biso   1.000  C
  C131     1.0000 0.67760  0.04560  0.21700  Biso   1.000  C
  C132     1.0000 0.61130  0.04620  0.21630  Biso   1.000  C
  Li44     1.0000 0.87770  0.90800  0.22180  Biso   1.000  Li
  H44      1.0000 0.70400  0.08400  0.19100  Biso   1.000  H
  O133     1.0000 0.19050  0.54765  0.27245  Biso   1.000  O
  O134     1.0000 0.38950  0.35847  0.15820  Biso   1.000  O
  O135     1.0000 0.48158  0.40757  0.17210  Biso   1.000  O
  C133     1.0000 0.42290  0.40180  0.17940  Biso   1.000  C
  C134     1.0000 0.32240  0.45440  0.21700  Biso   1.000  C
  C135     1.0000 0.38870  0.45380  0.21630  Biso   1.000  C
  Li45     1.0000 0.12230  0.59200  0.22180  Biso   1.000  Li
  H45      1.0000 0.29600  0.41600  0.19100  Biso   1.000  H
  O136     1.0000 0.69050  0.04765  0.77245  Biso   1.000  O
  O137     1.0000 0.88950  0.85847  0.65820  Biso   1.000  O
  O138     1.0000 0.98158  0.90757  0.67210  Biso   1.000  O
  C136     1.0000 0.92290  0.90180  0.67940  Biso   1.000  C
  C137     1.0000 0.82240  0.95440  0.71700  Biso   1.000  C
  C138     1.0000 0.88870  0.95380  0.71630  Biso   1.000  C
  Li46     1.0000 0.62230  0.09200  0.72180  Biso   1.000  Li
  H46      1.0000 0.79600  0.91600  0.69100  Biso   1.000  H
  O139     1.0000 0.69050  0.95235  0.72755  Biso   1.000  O
  O140     1.0000 0.88950  0.14153  0.84180  Biso   1.000  O
  O141     1.0000 0.98158  0.09243  0.82790  Biso   1.000  O
  C139     1.0000 0.92290  0.09820  0.82060  Biso   1.000  C
  C140     1.0000 0.82240  0.04560  0.78300  Biso   1.000  C
  C141     1.0000 0.88870  0.04620  0.78370  Biso   1.000  C
  Li47     1.0000 0.62230  0.90800  0.77820  Biso   1.000  Li
  H47      1.0000 0.79600  0.08400  0.80900  Biso   1.000  H
  O142     1.0000 0.19050  0.45235  0.22755  Biso   1.000  O
  O143     1.0000 0.38950  0.64153  0.34180  Biso   1.000  O
  O144     1.0000 0.48158  0.59243  0.32790  Biso   1.000  O
  C142     1.0000 0.42290  0.59820  0.32060  Biso   1.000  C
  C143     1.0000 0.32240  0.54560  0.28300  Biso   1.000  C
  C144     1.0000 0.38870  0.54620  0.28370  Biso   1.000  C
  Li48     1.0000 0.12230  0.40800  0.27820  Biso   1.000  Li
  H48      1.0000 0.29600  0.58400  0.30900  Biso   1.000  H
  C145     1.0000 0.00000  0.75000  0.46060  Biso   1.000  C
  C146     1.0000 0.00000  0.75000  0.32990  Biso   1.000  C
  C147     1.0000 0.00000  0.75000  0.53180  Biso   1.000  C
  H49      1.0000 0.00000  0.75000  0.27500  Biso   1.000  H
  C148     1.0000 0.50000  0.25000  0.96060  Biso   1.000  C
  C149     1.0000 0.50000  0.25000  0.82990  Biso   1.000  C
  C150     1.0000 0.50000  0.25000  0.03180  Biso   1.000  C
  H50      1.0000 0.50000  0.25000  0.77500  Biso   1.000  H
  C151     1.0000 0.00000  0.25000  0.03940  Biso   1.000  C
  C152     1.0000 0.00000  0.25000  0.17010  Biso   1.000  C
  C153     1.0000 0.00000  0.25000  0.96820  Biso   1.000  C
  H51      1.0000 0.00000  0.25000  0.22500  Biso   1.000  H
  C154     1.0000 0.50000  0.75000  0.53940  Biso   1.000  C
  C155     1.0000 0.50000  0.75000  0.67010  Biso   1.000  C
  C156     1.0000 0.50000  0.75000  0.46820  Biso   1.000  C
  H52      1.0000 0.50000  0.75000  0.72500  Biso   1.000  H
  C157     1.0000 0.46060  0.00000  0.75000  Biso   1.000  C
  C158     1.0000 0.32990  0.00000  0.75000  Biso   1.000  C
  C159     1.0000 0.53180  0.00000  0.75000  Biso   1.000  C
  H53      1.0000 0.27500  0.00000  0.75000  Biso   1.000  H
  C160     1.0000 0.96060  0.50000  0.25000  Biso   1.000  C
  C161     1.0000 0.82990  0.50000  0.25000  Biso   1.000  C
  C162     1.0000 0.03180  0.50000  0.25000  Biso   1.000  C
  H54      1.0000 0.77500  0.50000  0.25000  Biso   1.000  H
  C163     1.0000 0.03940  0.00000  0.25000  Biso   1.000  C
  C164     1.0000 0.17010  0.00000  0.25000  Biso   1.000  C
  C165     1.0000 0.96820  0.00000  0.25000  Biso   1.000  C
  H55      1.0000 0.22500  0.00000  0.25000  Biso   1.000  H
  C166     1.0000 0.53940  0.50000  0.75000  Biso   1.000  C
  C167     1.0000 0.67010  0.50000  0.75000  Biso   1.000  C
  C168     1.0000 0.46820  0.50000  0.75000  Biso   1.000  C
  H56      1.0000 0.72500  0.50000  0.75000  Biso   1.000  H
  C169     1.0000 0.75000  0.46060  0.00000  Biso   1.000  C
  C170     1.0000 0.75000  0.32990  0.00000  Biso   1.000  C
  C171     1.0000 0.75000  0.53180  0.00000  Biso   1.000  C
  H57      1.0000 0.75000  0.27500  0.00000  Biso   1.000  H
  C172     1.0000 0.25000  0.96060  0.50000  Biso   1.000  C
  C173     1.0000 0.25000  0.82990  0.50000  Biso   1.000  C
  C174     1.0000 0.25000  0.03180  0.50000  Biso   1.000  C
  H58      1.0000 0.25000  0.77500  0.50000  Biso   1.000  H
  C175     1.0000 0.25000  0.03940  0.00000  Biso   1.000  C
  C176     1.0000 0.25000  0.17010  0.00000  Biso   1.000  C
  C177     1.0000 0.25000  0.96820  0.00000  Biso   1.000  C
  H59      1.0000 0.25000  0.22500  0.00000  Biso   1.000  H
  C178     1.0000 0.75000  0.53940  0.50000  Biso   1.000  C
  C179     1.0000 0.75000  0.67010  0.50000  Biso   1.000  C
  C180     1.0000 0.75000  0.46820  0.50000  Biso   1.000  C
  H60      1.0000 0.75000  0.72500  0.50000  Biso   1.000  H
  C181     1.0000 0.00000  0.25000  0.71060  Biso   1.000  C
  C182     1.0000 0.00000  0.25000  0.57990  Biso   1.000  C
  C183     1.0000 0.00000  0.25000  0.78180  Biso   1.000  C
  H61      1.0000 0.00000  0.25000  0.52500  Biso   1.000  H
  C184     1.0000 0.50000  0.75000  0.21060  Biso   1.000  C
  C185     1.0000 0.50000  0.75000  0.07990  Biso   1.000  C
  C186     1.0000 0.50000  0.75000  0.28180  Biso   1.000  C
  H62      1.0000 0.50000  0.75000  0.02500  Biso   1.000  H
  C187     1.0000 0.50000  0.25000  0.28940  Biso   1.000  C
  C188     1.0000 0.50000  0.25000  0.42010  Biso   1.000  C
  C189     1.0000 0.50000  0.25000  0.21820  Biso   1.000  C
  H63      1.0000 0.50000  0.25000  0.47500  Biso   1.000  H
  C190     1.0000 0.00000  0.75000  0.78940  Biso   1.000  C
  C191     1.0000 0.00000  0.75000  0.92010  Biso   1.000  C
  C192     1.0000 0.00000  0.75000  0.71820  Biso   1.000  C
  H64      1.0000 0.00000  0.75000  0.97500  Biso   1.000  H
  C193     1.0000 0.25000  0.71060  0.00000  Biso   1.000  C
  C194     1.0000 0.25000  0.57990  0.00000  Biso   1.000  C
  C195     1.0000 0.25000  0.78180  0.00000  Biso   1.000  C
  H65      1.0000 0.25000  0.52500  0.00000  Biso   1.000  H
  C196     1.0000 0.75000  0.21060  0.50000  Biso   1.000  C
  C197     1.0000 0.75000  0.07990  0.50000  Biso   1.000  C
  C198     1.0000 0.75000  0.28180  0.50000  Biso   1.000  C
  H66      1.0000 0.75000  0.02500  0.50000  Biso   1.000  H
  C199     1.0000 0.25000  0.28940  0.50000  Biso   1.000  C
  C200     1.0000 0.25000  0.42010  0.50000  Biso   1.000  C
  C201     1.0000 0.25000  0.21820  0.50000  Biso   1.000  C
  H67      1.0000 0.25000  0.47500  0.50000  Biso   1.000  H
  C202     1.0000 0.75000  0.78940  0.00000  Biso   1.000  C
  C203     1.0000 0.75000  0.92010  0.00000  Biso   1.000  C
  C204     1.0000 0.75000  0.71820  0.00000  Biso   1.000  C
  H68      1.0000 0.75000  0.97500  0.00000  Biso   1.000  H
  C205     1.0000 0.71060  0.00000  0.25000  Biso   1.000  C
  C206     1.0000 0.57990  0.00000  0.25000  Biso   1.000  C
  C207     1.0000 0.78180  0.00000  0.25000  Biso   1.000  C
  H69      1.0000 0.52500  0.00000  0.25000  Biso   1.000  H
  C208     1.0000 0.21060  0.50000  0.75000  Biso   1.000  C
  C209     1.0000 0.07990  0.50000  0.75000  Biso   1.000  C
  C210     1.0000 0.28180  0.50000  0.75000  Biso   1.000  C
  H70      1.0000 0.02500  0.50000  0.75000  Biso   1.000  H
  C211     1.0000 0.28940  0.50000  0.25000  Biso   1.000  C
  C212     1.0000 0.42010  0.50000  0.25000  Biso   1.000  C
  C213     1.0000 0.21820  0.50000  0.25000  Biso   1.000  C
  H71      1.0000 0.47500  0.50000  0.25000  Biso   1.000  H
  C214     1.0000 0.78940  0.00000  0.75000  Biso   1.000  C
  C215     1.0000 0.92010  0.00000  0.75000  Biso   1.000  C
  C216     1.0000 0.71820  0.00000  0.75000  Biso   1.000  C
  H72      1.0000 0.97500  0.00000  0.75000  Biso   1.000  H
