data_image0
_cell_length_a       12.0144
_cell_length_b       16.9892
_cell_length_c       31.2716
_cell_angle_alpha    90
_cell_angle_beta     90
_cell_angle_gamma    90

_symmetry_space_group_name_H-M    "P 1"
_symmetry_int_tables_number       1

loop_
  _symmetry_equiv_pos_as_xyz
  'x, y, z'

loop_
  _atom_site_label
  _atom_site_occupancy
  _atom_site_fract_x
  _atom_site_fract_y
  _atom_site_fract_z
  _atom_site_thermal_displace_type
  _atom_site_B_iso_or_equiv
  _atom_site_type_symbol
  Ag1      1.0000 0.48790  0.25694  0.43223  Biso   1.000  Ag
  Ag2      1.0000 0.90630  0.17597  0.45366  Biso   1.000  Ag
  Ag3      1.0000 0.57111  0.30894  0.53443  Biso   1.000  Ag
  N1       1.0000 0.35620  0.09450  0.42520  Biso   1.000  N
  N2       1.0000 0.63120  0.41310  0.42860  Biso   1.000  N
  N3       1.0000 0.12100  0.07820  0.42280  Biso   1.000  N
  N4       1.0000 0.76960  0.22440  0.48680  Biso   1.000  N
  N5       1.0000 0.37070  0.41580  0.56990  Biso   1.000  N
  C1       1.0000 0.40610  0.14890  0.42790  Biso   1.000  C
  C2       1.0000 0.57150  0.36130  0.42980  Biso   1.000  C
  C3       1.0000 0.04600  0.11890  0.42990  Biso   1.000  C
  C4       1.0000 0.70050  0.25110  0.50620  Biso   1.000  C
  C5       1.0000 0.44250  0.37220  0.56040  Biso   1.000  C
  C6       1.0000 0.33950  0.02280  0.33440  Biso   1.000  C
  H1       1.0000 0.40350  0.03950  0.34970  Biso   1.000  H
  C7       1.0000 0.34140  0.02280  0.28960  Biso   1.000  C
  H2       1.0000 0.40730  0.03880  0.27530  Biso   1.000  H
  C8       1.0000 0.34120  0.97200  0.19530  Biso   1.000  C
  H3       1.0000 0.40340  0.95180  0.21050  Biso   1.000  H
  C9       1.0000 0.34310  0.97280  0.15190  Biso   1.000  C
  H4       1.0000 0.40740  0.95510  0.13710  Biso   1.000  H
  C10      1.0000 0.34580  0.01760  0.05790  Biso   1.000  C
  H5       1.0000 0.41340  0.03020  0.07210  Biso   1.000  H
  C11      1.0000 0.34200  0.01650  0.01340  Biso   1.000  C
  H6       1.0000 0.40850  0.02810  0.99820  Biso   1.000  H
  C12      1.0000 0.65700  0.51380  0.33850  Biso   1.000  C
  H7       1.0000 0.59020  0.52380  0.35380  Biso   1.000  H
  C13      1.0000 0.65380  0.51430  0.29470  Biso   1.000  C
  H8       1.0000 0.58550  0.52440  0.28040  Biso   1.000  H
  C14      1.0000 0.66640  0.46220  0.20130  Biso   1.000  C
  H9       1.0000 0.60900  0.43520  0.21620  Biso   1.000  H
  C15      1.0000 0.66520  0.46330  0.15660  Biso   1.000  C
  H10      1.0000 0.60600  0.43890  0.14150  Biso   1.000  H
  C16      1.0000 0.65800  0.49500  0.06320  Biso   1.000  C
  H11      1.0000 0.58850  0.49190  0.07750  Biso   1.000  H
  C17      1.0000 0.65900  0.49400  0.01740  Biso   1.000  C
  H12      1.0000 0.59090  0.48870  0.00250  Biso   1.000  H
  Ag4      1.0000 0.01210  0.74306  0.43223  Biso   1.000  Ag
  Ag5      1.0000 0.59370  0.82403  0.45366  Biso   1.000  Ag
  Ag6      1.0000 0.92889  0.69106  0.53443  Biso   1.000  Ag
  N6       1.0000 0.14380  0.90550  0.42520  Biso   1.000  N
  N7       1.0000 0.86880  0.58690  0.42860  Biso   1.000  N
  N8       1.0000 0.37900  0.92180  0.42280  Biso   1.000  N
  N9       1.0000 0.73040  0.77560  0.48680  Biso   1.000  N
  N10      1.0000 0.12930  0.58420  0.56990  Biso   1.000  N
  C18      1.0000 0.09390  0.85110  0.42790  Biso   1.000  C
  C19      1.0000 0.92850  0.63870  0.42980  Biso   1.000  C
  C20      1.0000 0.45400  0.88110  0.42990  Biso   1.000  C
  C21      1.0000 0.79950  0.74890  0.50620  Biso   1.000  C
  C22      1.0000 0.05750  0.62780  0.56040  Biso   1.000  C
  C23      1.0000 0.16050  0.97720  0.33440  Biso   1.000  C
  H13      1.0000 0.09650  0.96050  0.34970  Biso   1.000  H
  C24      1.0000 0.15860  0.97720  0.28960  Biso   1.000  C
  H14      1.0000 0.09270  0.96120  0.27530  Biso   1.000  H
  C25      1.0000 0.15880  0.02800  0.19530  Biso   1.000  C
  H15      1.0000 0.09660  0.04820  0.21050  Biso   1.000  H
  C26      1.0000 0.15690  0.02720  0.15190  Biso   1.000  C
  H16      1.0000 0.09260  0.04490  0.13710  Biso   1.000  H
  C27      1.0000 0.15420  0.98240  0.05790  Biso   1.000  C
  H17      1.0000 0.08660  0.96980  0.07210  Biso   1.000  H
  C28      1.0000 0.15800  0.98350  0.01340  Biso   1.000  C
  H18      1.0000 0.09150  0.97190  0.99820  Biso   1.000  H
  C29      1.0000 0.84300  0.48620  0.33850  Biso   1.000  C
  H19      1.0000 0.90980  0.47620  0.35380  Biso   1.000  H
  C30      1.0000 0.84620  0.48570  0.29470  Biso   1.000  C
  H20      1.0000 0.91450  0.47560  0.28040  Biso   1.000  H
  C31      1.0000 0.83360  0.53780  0.20130  Biso   1.000  C
  H21      1.0000 0.89100  0.56480  0.21620  Biso   1.000  H
  C32      1.0000 0.83480  0.53670  0.15660  Biso   1.000  C
  H22      1.0000 0.89400  0.56110  0.14150  Biso   1.000  H
  C33      1.0000 0.84200  0.50500  0.06320  Biso   1.000  C
  H23      1.0000 0.91150  0.50810  0.07750  Biso   1.000  H
  C34      1.0000 0.84100  0.50600  0.01740  Biso   1.000  C
  H24      1.0000 0.90910  0.51130  0.00250  Biso   1.000  H
  Ag7      1.0000 0.51210  0.25694  0.06777  Biso   1.000  Ag
  Ag8      1.0000 0.09370  0.17597  0.04634  Biso   1.000  Ag
  Ag9      1.0000 0.42889  0.30894  0.96557  Biso   1.000  Ag
  N11      1.0000 0.64380  0.09450  0.07480  Biso   1.000  N
  N12      1.0000 0.36880  0.41310  0.07140  Biso   1.000  N
  N13      1.0000 0.87900  0.07820  0.07720  Biso   1.000  N
  N14      1.0000 0.23040  0.22440  0.01320  Biso   1.000  N
  N15      1.0000 0.62930  0.41580  0.93010  Biso   1.000  N
  C35      1.0000 0.59390  0.14890  0.07210  Biso   1.000  C
  C36      1.0000 0.42850  0.36130  0.07020  Biso   1.000  C
  C37      1.0000 0.95400  0.11890  0.07010  Biso   1.000  C
  C38      1.0000 0.29950  0.25110  0.99380  Biso   1.000  C
  C39      1.0000 0.55750  0.37220  0.93960  Biso   1.000  C
  C40      1.0000 0.66050  0.02280  0.16560  Biso   1.000  C
  H25      1.0000 0.59650  0.03950  0.15030  Biso   1.000  H
  C41      1.0000 0.65860  0.02280  0.21040  Biso   1.000  C
  H26      1.0000 0.59270  0.03880  0.22470  Biso   1.000  H
  C42      1.0000 0.65880  0.97200  0.30470  Biso   1.000  C
  H27      1.0000 0.59660  0.95180  0.28950  Biso   1.000  H
  C43      1.0000 0.65690  0.97280  0.34810  Biso   1.000  C
  H28      1.0000 0.59260  0.95510  0.36290  Biso   1.000  H
  C44      1.0000 0.65420  0.01760  0.44210  Biso   1.000  C
  H29      1.0000 0.58660  0.03020  0.42790  Biso   1.000  H
  C45      1.0000 0.65800  0.01650  0.48660  Biso   1.000  C
  H30      1.0000 0.59150  0.02810  0.50180  Biso   1.000  H
  C46      1.0000 0.34300  0.51380  0.16150  Biso   1.000  C
  H31      1.0000 0.40980  0.52380  0.14620  Biso   1.000  H
  C47      1.0000 0.34620  0.51430  0.20530  Biso   1.000  C
  H32      1.0000 0.41450  0.52440  0.21960  Biso   1.000  H
  C48      1.0000 0.33360  0.46220  0.29870  Biso   1.000  C
  H33      1.0000 0.39100  0.43520  0.28380  Biso   1.000  H
  C49      1.0000 0.33480  0.46330  0.34340  Biso   1.000  C
  H34      1.0000 0.39400  0.43890  0.35850  Biso   1.000  H
  C50      1.0000 0.34200  0.49500  0.43680  Biso   1.000  C
  H35      1.0000 0.41150  0.49190  0.42250  Biso   1.000  H
  C51      1.0000 0.34100  0.49400  0.48260  Biso   1.000  C
  H36      1.0000 0.40910  0.48870  0.49750  Biso   1.000  H
  Ag10     1.0000 0.98790  0.74306  0.06777  Biso   1.000  Ag
  Ag11     1.0000 0.40630  0.82403  0.04634  Biso   1.000  Ag
  Ag12     1.0000 0.07111  0.69106  0.96557  Biso   1.000  Ag
  N16      1.0000 0.85620  0.90550  0.07480  Biso   1.000  N
  N17      1.0000 0.13120  0.58690  0.07140  Biso   1.000  N
  N18      1.0000 0.62100  0.92180  0.07720  Biso   1.000  N
  N19      1.0000 0.26960  0.77560  0.01320  Biso   1.000  N
  N20      1.0000 0.87070  0.58420  0.93010  Biso   1.000  N
  C52      1.0000 0.90610  0.85110  0.07210  Biso   1.000  C
  C53      1.0000 0.07150  0.63870  0.07020  Biso   1.000  C
  C54      1.0000 0.54600  0.88110  0.07010  Biso   1.000  C
  C55      1.0000 0.20050  0.74890  0.99380  Biso   1.000  C
  C56      1.0000 0.94250  0.62780  0.93960  Biso   1.000  C
  C57      1.0000 0.83950  0.97720  0.16560  Biso   1.000  C
  H37      1.0000 0.90350  0.96050  0.15030  Biso   1.000  H
  C58      1.0000 0.84140  0.97720  0.21040  Biso   1.000  C
  H38      1.0000 0.90730  0.96120  0.22470  Biso   1.000  H
  C59      1.0000 0.84120  0.02800  0.30470  Biso   1.000  C
  H39      1.0000 0.90340  0.04820  0.28950  Biso   1.000  H
  C60      1.0000 0.84310  0.02720  0.34810  Biso   1.000  C
  H40      1.0000 0.90740  0.04490  0.36290  Biso   1.000  H
  C61      1.0000 0.84580  0.98240  0.44210  Biso   1.000  C
  H41      1.0000 0.91340  0.96980  0.42790  Biso   1.000  H
  C62      1.0000 0.84200  0.98350  0.48660  Biso   1.000  C
  H42      1.0000 0.90850  0.97190  0.50180  Biso   1.000  H
  C63      1.0000 0.15700  0.48620  0.16150  Biso   1.000  C
  H43      1.0000 0.09020  0.47620  0.14620  Biso   1.000  H
  C64      1.0000 0.15380  0.48570  0.20530  Biso   1.000  C
  H44      1.0000 0.08550  0.47560  0.21960  Biso   1.000  H
  C65      1.0000 0.16640  0.53780  0.29870  Biso   1.000  C
  H45      1.0000 0.10900  0.56480  0.28380  Biso   1.000  H
  C66      1.0000 0.16520  0.53670  0.34340  Biso   1.000  C
  H46      1.0000 0.10600  0.56110  0.35850  Biso   1.000  H
  C67      1.0000 0.15800  0.50500  0.43680  Biso   1.000  C
  H47      1.0000 0.08850  0.50810  0.42250  Biso   1.000  H
  C68      1.0000 0.15900  0.50600  0.48260  Biso   1.000  C
  H48      1.0000 0.09090  0.51130  0.49750  Biso   1.000  H
  Ag13     1.0000 0.51210  0.74306  0.56777  Biso   1.000  Ag
  Ag14     1.0000 0.09370  0.82403  0.54634  Biso   1.000  Ag
  Ag15     1.0000 0.42889  0.69106  0.46557  Biso   1.000  Ag
  N21      1.0000 0.64380  0.90550  0.57480  Biso   1.000  N
  N22      1.0000 0.36880  0.58690  0.57140  Biso   1.000  N
  N23      1.0000 0.87900  0.92180  0.57720  Biso   1.000  N
  N24      1.0000 0.23040  0.77560  0.51320  Biso   1.000  N
  N25      1.0000 0.62930  0.58420  0.43010  Biso   1.000  N
  C69      1.0000 0.59390  0.85110  0.57210  Biso   1.000  C
  C70      1.0000 0.42850  0.63870  0.57020  Biso   1.000  C
  C71      1.0000 0.95400  0.88110  0.57010  Biso   1.000  C
  C72      1.0000 0.29950  0.74890  0.49380  Biso   1.000  C
  C73      1.0000 0.55750  0.62780  0.43960  Biso   1.000  C
  C74      1.0000 0.66050  0.97720  0.66560  Biso   1.000  C
  H49      1.0000 0.59650  0.96050  0.65030  Biso   1.000  H
  C75      1.0000 0.65860  0.97720  0.71040  Biso   1.000  C
  H50      1.0000 0.59270  0.96120  0.72470  Biso   1.000  H
  C76      1.0000 0.65880  0.02800  0.80470  Biso   1.000  C
  H51      1.0000 0.59660  0.04820  0.78950  Biso   1.000  H
  C77      1.0000 0.65690  0.02720  0.84810  Biso   1.000  C
  H52      1.0000 0.59260  0.04490  0.86290  Biso   1.000  H
  C78      1.0000 0.65420  0.98240  0.94210  Biso   1.000  C
  H53      1.0000 0.58660  0.96980  0.92790  Biso   1.000  H
  C79      1.0000 0.65800  0.98350  0.98660  Biso   1.000  C
  H54      1.0000 0.59150  0.97190  0.00180  Biso   1.000  H
  C80      1.0000 0.34300  0.48620  0.66150  Biso   1.000  C
  H55      1.0000 0.40980  0.47620  0.64620  Biso   1.000  H
  C81      1.0000 0.34620  0.48570  0.70530  Biso   1.000  C
  H56      1.0000 0.41450  0.47560  0.71960  Biso   1.000  H
  C82      1.0000 0.33360  0.53780  0.79870  Biso   1.000  C
  H57      1.0000 0.39100  0.56480  0.78380  Biso   1.000  H
  C83      1.0000 0.33480  0.53670  0.84340  Biso   1.000  C
  H58      1.0000 0.39400  0.56110  0.85850  Biso   1.000  H
  C84      1.0000 0.34200  0.50500  0.93680  Biso   1.000  C
  H59      1.0000 0.41150  0.50810  0.92250  Biso   1.000  H
  C85      1.0000 0.34100  0.50600  0.98260  Biso   1.000  C
  H60      1.0000 0.40910  0.51130  0.99750  Biso   1.000  H
  Ag16     1.0000 0.98790  0.25694  0.56777  Biso   1.000  Ag
  Ag17     1.0000 0.40630  0.17597  0.54634  Biso   1.000  Ag
  Ag18     1.0000 0.07111  0.30894  0.46557  Biso   1.000  Ag
  N26      1.0000 0.85620  0.09450  0.57480  Biso   1.000  N
  N27      1.0000 0.13120  0.41310  0.57140  Biso   1.000  N
  N28      1.0000 0.62100  0.07820  0.57720  Biso   1.000  N
  N29      1.0000 0.26960  0.22440  0.51320  Biso   1.000  N
  N30      1.0000 0.87070  0.41580  0.43010  Biso   1.000  N
  C86      1.0000 0.90610  0.14890  0.57210  Biso   1.000  C
  C87      1.0000 0.07150  0.36130  0.57020  Biso   1.000  C
  C88      1.0000 0.54600  0.11890  0.57010  Biso   1.000  C
  C89      1.0000 0.20050  0.25110  0.49380  Biso   1.000  C
  C90      1.0000 0.94250  0.37220  0.43960  Biso   1.000  C
  C91      1.0000 0.83950  0.02280  0.66560  Biso   1.000  C
  H61      1.0000 0.90350  0.03950  0.65030  Biso   1.000  H
  C92      1.0000 0.84140  0.02280  0.71040  Biso   1.000  C
  H62      1.0000 0.90730  0.03880  0.72470  Biso   1.000  H
  C93      1.0000 0.84120  0.97200  0.80470  Biso   1.000  C
  H63      1.0000 0.90340  0.95180  0.78950  Biso   1.000  H
  C94      1.0000 0.84310  0.97280  0.84810  Biso   1.000  C
  H64      1.0000 0.90740  0.95510  0.86290  Biso   1.000  H
  C95      1.0000 0.84580  0.01760  0.94210  Biso   1.000  C
  H65      1.0000 0.91340  0.03020  0.92790  Biso   1.000  H
  C96      1.0000 0.84200  0.01650  0.98660  Biso   1.000  C
  H66      1.0000 0.90850  0.02810  0.00180  Biso   1.000  H
  C97      1.0000 0.15700  0.51380  0.66150  Biso   1.000  C
  H67      1.0000 0.09020  0.52380  0.64620  Biso   1.000  H
  C98      1.0000 0.15380  0.51430  0.70530  Biso   1.000  C
  H68      1.0000 0.08550  0.52440  0.71960  Biso   1.000  H
  C99      1.0000 0.16640  0.46220  0.79870  Biso   1.000  C
  H69      1.0000 0.10900  0.43520  0.78380  Biso   1.000  H
  C100     1.0000 0.16520  0.46330  0.84340  Biso   1.000  C
  H70      1.0000 0.10600  0.43890  0.85850  Biso   1.000  H
  C101     1.0000 0.15800  0.49500  0.93680  Biso   1.000  C
  H71      1.0000 0.08850  0.49190  0.92250  Biso   1.000  H
  C102     1.0000 0.15900  0.49400  0.98260  Biso   1.000  C
  H72      1.0000 0.09090  0.48870  0.99750  Biso   1.000  H
  Ag19     1.0000 0.48790  0.74306  0.93223  Biso   1.000  Ag
  Ag20     1.0000 0.90630  0.82403  0.95366  Biso   1.000  Ag
  Ag21     1.0000 0.57111  0.69106  0.03443  Biso   1.000  Ag
  N31      1.0000 0.35620  0.90550  0.92520  Biso   1.000  N
  N32      1.0000 0.63120  0.58690  0.92860  Biso   1.000  N
  N33      1.0000 0.12100  0.92180  0.92280  Biso   1.000  N
  N34      1.0000 0.76960  0.77560  0.98680  Biso   1.000  N
  N35      1.0000 0.37070  0.58420  0.06990  Biso   1.000  N
  C103     1.0000 0.40610  0.85110  0.92790  Biso   1.000  C
  C104     1.0000 0.57150  0.63870  0.92980  Biso   1.000  C
  C105     1.0000 0.04600  0.88110  0.92990  Biso   1.000  C
  C106     1.0000 0.70050  0.74890  0.00620  Biso   1.000  C
  C107     1.0000 0.44250  0.62780  0.06040  Biso   1.000  C
  C108     1.0000 0.33950  0.97720  0.83440  Biso   1.000  C
  H73      1.0000 0.40350  0.96050  0.84970  Biso   1.000  H
  C109     1.0000 0.34140  0.97720  0.78960  Biso   1.000  C
  H74      1.0000 0.40730  0.96120  0.77530  Biso   1.000  H
  C110     1.0000 0.34120  0.02800  0.69530  Biso   1.000  C
  H75      1.0000 0.40340  0.04820  0.71050  Biso   1.000  H
  C111     1.0000 0.34310  0.02720  0.65190  Biso   1.000  C
  H76      1.0000 0.40740  0.04490  0.63710  Biso   1.000  H
  C112     1.0000 0.34580  0.98240  0.55790  Biso   1.000  C
  H77      1.0000 0.41340  0.96980  0.57210  Biso   1.000  H
  C113     1.0000 0.34200  0.98350  0.51340  Biso   1.000  C
  H78      1.0000 0.40850  0.97190  0.49820  Biso   1.000  H
  C114     1.0000 0.65700  0.48620  0.83850  Biso   1.000  C
  H79      1.0000 0.59020  0.47620  0.85380  Biso   1.000  H
  C115     1.0000 0.65380  0.48570  0.79470  Biso   1.000  C
  H80      1.0000 0.58550  0.47560  0.78040  Biso   1.000  H
  C116     1.0000 0.66640  0.53780  0.70130  Biso   1.000  C
  H81      1.0000 0.60900  0.56480  0.71620  Biso   1.000  H
  C117     1.0000 0.66520  0.53670  0.65660  Biso   1.000  C
  H82      1.0000 0.60600  0.56110  0.64150  Biso   1.000  H
  C118     1.0000 0.65800  0.50500  0.56320  Biso   1.000  C
  H83      1.0000 0.58850  0.50810  0.57750  Biso   1.000  H
  C119     1.0000 0.65900  0.50600  0.51740  Biso   1.000  C
  H84      1.0000 0.59090  0.51130  0.50250  Biso   1.000  H
  Ag22     1.0000 0.01210  0.25694  0.93223  Biso   1.000  Ag
  Ag23     1.0000 0.59370  0.17597  0.95366  Biso   1.000  Ag
  Ag24     1.0000 0.92889  0.30894  0.03443  Biso   1.000  Ag
  N36      1.0000 0.14380  0.09450  0.92520  Biso   1.000  N
  N37      1.0000 0.86880  0.41310  0.92860  Biso   1.000  N
  N38      1.0000 0.37900  0.07820  0.92280  Biso   1.000  N
  N39      1.0000 0.73040  0.22440  0.98680  Biso   1.000  N
  N40      1.0000 0.12930  0.41580  0.06990  Biso   1.000  N
  C120     1.0000 0.09390  0.14890  0.92790  Biso   1.000  C
  C121     1.0000 0.92850  0.36130  0.92980  Biso   1.000  C
  C122     1.0000 0.45400  0.11890  0.92990  Biso   1.000  C
  C123     1.0000 0.79950  0.25110  0.00620  Biso   1.000  C
  C124     1.0000 0.05750  0.37220  0.06040  Biso   1.000  C
  C125     1.0000 0.16050  0.02280  0.83440  Biso   1.000  C
  H85      1.0000 0.09650  0.03950  0.84970  Biso   1.000  H
  C126     1.0000 0.15860  0.02280  0.78960  Biso   1.000  C
  H86      1.0000 0.09270  0.03880  0.77530  Biso   1.000  H
  C127     1.0000 0.15880  0.97200  0.69530  Biso   1.000  C
  H87      1.0000 0.09660  0.95180  0.71050  Biso   1.000  H
  C128     1.0000 0.15690  0.97280  0.65190  Biso   1.000  C
  H88      1.0000 0.09260  0.95510  0.63710  Biso   1.000  H
  C129     1.0000 0.15420  0.01760  0.55790  Biso   1.000  C
  H89      1.0000 0.08660  0.03020  0.57210  Biso   1.000  H
  C130     1.0000 0.15800  0.01650  0.51340  Biso   1.000  C
  H90      1.0000 0.09150  0.02810  0.49820  Biso   1.000  H
  C131     1.0000 0.84300  0.51380  0.83850  Biso   1.000  C
  H91      1.0000 0.90980  0.52380  0.85380  Biso   1.000  H
  C132     1.0000 0.84620  0.51430  0.79470  Biso   1.000  C
  H92      1.0000 0.91450  0.52440  0.78040  Biso   1.000  H
  C133     1.0000 0.83360  0.46220  0.70130  Biso   1.000  C
  H93      1.0000 0.89100  0.43520  0.71620  Biso   1.000  H
  C134     1.0000 0.83480  0.46330  0.65660  Biso   1.000  C
  H94      1.0000 0.89400  0.43890  0.64150  Biso   1.000  H
  C135     1.0000 0.84200  0.49500  0.56320  Biso   1.000  C
  H95      1.0000 0.91150  0.49190  0.57750  Biso   1.000  H
  C136     1.0000 0.84100  0.49400  0.51740  Biso   1.000  C
  H96      1.0000 0.90910  0.48870  0.50250  Biso   1.000  H
  Fe1      1.0000 0.25000  0.00000  0.42348  Biso   1.000  Fe
  N41      1.0000 0.25000  0.00000  0.35560  Biso   1.000  N
  N42      1.0000 0.25000  0.00000  0.99080  Biso   1.000  N
  C137     1.0000 0.25000  0.00000  0.26560  Biso   1.000  C
  C138     1.0000 0.25000  0.00000  0.21790  Biso   1.000  C
  C139     1.0000 0.25000  0.00000  0.12880  Biso   1.000  C
  C140     1.0000 0.25000  0.00000  0.08210  Biso   1.000  C
  Fe2      1.0000 0.75000  0.00000  0.07652  Biso   1.000  Fe
  N43      1.0000 0.75000  0.00000  0.14440  Biso   1.000  N
  N44      1.0000 0.75000  0.00000  0.50920  Biso   1.000  N
  C141     1.0000 0.75000  0.00000  0.23440  Biso   1.000  C
  C142     1.0000 0.75000  0.00000  0.28210  Biso   1.000  C
  C143     1.0000 0.75000  0.00000  0.37120  Biso   1.000  C
  C144     1.0000 0.75000  0.00000  0.41790  Biso   1.000  C
  Fe3      1.0000 0.75000  0.00000  0.57652  Biso   1.000  Fe
  N45      1.0000 0.75000  0.00000  0.64440  Biso   1.000  N
  N46      1.0000 0.75000  0.00000  0.00920  Biso   1.000  N
  C145     1.0000 0.75000  0.00000  0.73440  Biso   1.000  C
  C146     1.0000 0.75000  0.00000  0.78210  Biso   1.000  C
  C147     1.0000 0.75000  0.00000  0.87120  Biso   1.000  C
  C148     1.0000 0.75000  0.00000  0.91790  Biso   1.000  C
  Fe4      1.0000 0.25000  0.00000  0.92348  Biso   1.000  Fe
  N47      1.0000 0.25000  0.00000  0.85560  Biso   1.000  N
  N48      1.0000 0.25000  0.00000  0.49080  Biso   1.000  N
  C149     1.0000 0.25000  0.00000  0.76560  Biso   1.000  C
  C150     1.0000 0.25000  0.00000  0.71790  Biso   1.000  C
  C151     1.0000 0.25000  0.00000  0.62880  Biso   1.000  C
  C152     1.0000 0.25000  0.00000  0.58210  Biso   1.000  C
  Fe5      1.0000 0.75000  0.50000  0.42820  Biso   1.000  Fe
  N49      1.0000 0.75000  0.50000  0.36050  Biso   1.000  N
  N50      1.0000 0.75000  0.50000  0.99600  Biso   1.000  N
  C153     1.0000 0.75000  0.50000  0.27080  Biso   1.000  C
  C154     1.0000 0.75000  0.50000  0.22450  Biso   1.000  C
  C155     1.0000 0.75000  0.50000  0.13430  Biso   1.000  C
  C156     1.0000 0.75000  0.50000  0.08650  Biso   1.000  C
  Fe6      1.0000 0.25000  0.50000  0.07180  Biso   1.000  Fe
  N51      1.0000 0.25000  0.50000  0.13950  Biso   1.000  N
  N52      1.0000 0.25000  0.50000  0.50400  Biso   1.000  N
  C157     1.0000 0.25000  0.50000  0.22920  Biso   1.000  C
  C158     1.0000 0.25000  0.50000  0.27550  Biso   1.000  C
  C159     1.0000 0.25000  0.50000  0.36570  Biso   1.000  C
  C160     1.0000 0.25000  0.50000  0.41350  Biso   1.000  C
  Fe7      1.0000 0.25000  0.50000  0.57180  Biso   1.000  Fe
  N53      1.0000 0.25000  0.50000  0.63950  Biso   1.000  N
  N54      1.0000 0.25000  0.50000  0.00400  Biso   1.000  N
  C161     1.0000 0.25000  0.50000  0.72920  Biso   1.000  C
  C162     1.0000 0.25000  0.50000  0.77550  Biso   1.000  C
  C163     1.0000 0.25000  0.50000  0.86570  Biso   1.000  C
  C164     1.0000 0.25000  0.50000  0.91350  Biso   1.000  C
  Fe8      1.0000 0.75000  0.50000  0.92820  Biso   1.000  Fe
  N55      1.0000 0.75000  0.50000  0.86050  Biso   1.000  N
  N56      1.0000 0.75000  0.50000  0.49600  Biso   1.000  N
  C165     1.0000 0.75000  0.50000  0.77080  Biso   1.000  C
  C166     1.0000 0.75000  0.50000  0.72450  Biso   1.000  C
  C167     1.0000 0.75000  0.50000  0.63430  Biso   1.000  C
  C168     1.0000 0.75000  0.50000  0.58650  Biso   1.000  C
