data_POHLUV_clean
_audit_creation_date              2015-10-16
_audit_creation_method            'Materials Studio'
_symmetry_space_group_name_H-M    'P1'
_symmetry_Int_Tables_number       1
_symmetry_cell_setting            triclinic
loop_
_symmetry_equiv_pos_as_xyz
  x,y,z
_cell_length_a                    8.7280
_cell_length_b                    9.2890
_cell_length_c                    18.9110
_cell_angle_alpha                 90.0000
_cell_angle_beta                  90.0000
_cell_angle_gamma                 109.3070
loop_
_atom_site_label
_atom_site_type_symbol
_atom_site_fract_x
_atom_site_fract_y
_atom_site_fract_z
_atom_site_U_iso_or_equiv
_atom_site_adp_type
_atom_site_occupancy
Tb1    Tb    0.20942   0.48394   0.44684   0.01267  Uiso   1.00
Tb2    Tb    0.79058   0.51606   0.55316   0.01267  Uiso   1.00
Tb3    Tb    0.20942   0.98394   0.05316   0.01267  Uiso   1.00
Tb4    Tb    0.79058   0.01606   0.94684   0.01267  Uiso   1.00
H1     H     0.79680   0.05970   0.44020   0.01267  Uiso   1.00
H2     H     0.58600   0.57740   0.29020   0.01267  Uiso   1.00
H3     H     0.74400   0.66820   0.19190   0.01267  Uiso   1.00
H4     H     0.41400   0.92260   0.79020   0.01267  Uiso   1.00
H5     H     0.79680   0.55970   0.05980   0.01267  Uiso   1.00
H6     H     0.25600   0.83180   0.69190   0.01267  Uiso   1.00
H7     H     0.58600   0.07740   0.20980   0.01267  Uiso   1.00
H8     H     0.05990   0.98560   0.31270   0.01267  Uiso   1.00
H9     H     0.20320   0.44030   0.94020   0.01267  Uiso   1.00
H10    H     0.94010   0.01440   0.68730   0.01267  Uiso   1.00
H11    H     0.94010   0.51440   0.81270   0.01267  Uiso   1.00
H12    H     0.25600   0.33180   0.80810   0.01267  Uiso   1.00
H13    H     0.05990   0.48560   0.18730   0.01267  Uiso   1.00
H14    H     0.20320   0.94030   0.55980   0.01267  Uiso   1.00
H15    H     0.74400   0.16820   0.30810   0.01267  Uiso   1.00
H16    H     0.41400   0.42260   0.70980   0.01267  Uiso   1.00
C1     C     0.12840   0.65520   0.86760   0.01267  Uiso   1.00
C2     C     0.72710   0.22490   0.13870   0.01267  Uiso   1.00
C3     C     0.93400   0.92240   0.43760   0.01267  Uiso   1.00
C4     C     0.03530   0.59700   0.80810   0.01267  Uiso   1.00
C5     C     0.94530   0.61390   0.97440   0.01267  Uiso   1.00
C6     C     0.03530   0.09700   0.69190   0.01267  Uiso   1.00
C7     C     0.27290   0.27510   0.63870   0.01267  Uiso   1.00
C8     C     0.61600   0.15900   0.07690   0.01267  Uiso   1.00
C9     C     0.93400   0.42240   0.06240   0.01267  Uiso   1.00
C10    C     0.06600   0.07760   0.56240   0.01267  Uiso   1.00
C11    C     0.38400   0.84100   0.92310   0.01267  Uiso   1.00
C12    C     0.08260   0.66040   0.74230   0.01267  Uiso   1.00
C13    C     0.77510   0.71420   0.23570   0.01267  Uiso   1.00
C14    C     0.01660   0.90090   0.17730   0.01267  Uiso   1.00
C15    C     0.68160   0.15960   0.20530   0.01267  Uiso   1.00
C16    C     0.12140   0.46430   0.96380   0.01267  Uiso   1.00
C17    C     0.31840   0.84040   0.79470   0.01267  Uiso   1.00
C18    C     0.72710   0.72490   0.36130   0.01267  Uiso   1.00
C19    C     0.31840   0.34040   0.70530   0.01267  Uiso   1.00
C20    C     0.96470   0.40300   0.19190   0.01267  Uiso   1.00
C21    C     0.89510   0.74550   0.95210   0.01267  Uiso   1.00
C22    C     0.98340   0.09910   0.82270   0.01267  Uiso   1.00
C23    C     0.68160   0.65960   0.29470   0.01267  Uiso   1.00
C24    C     0.06600   0.57760   0.93760   0.01267  Uiso   1.00
C25    C     0.27290   0.77510   0.86130   0.01267  Uiso   1.00
C26    C     0.12840   0.15520   0.63240   0.01267  Uiso   1.00
C27    C     0.91740   0.83960   0.24230   0.01267  Uiso   1.00
C28    C     0.91740   0.33960   0.25770   0.01267  Uiso   1.00
C29    C     0.12140   0.96430   0.53620   0.01267  Uiso   1.00
C30    C     0.10490   0.25450   0.04790   0.01267  Uiso   1.00
C31    C     0.10490   0.75450   0.45210   0.01267  Uiso   1.00
C32    C     0.22490   0.78580   0.73570   0.01267  Uiso   1.00
C33    C     0.05470   0.88610   0.47440   0.01267  Uiso   1.00
C34    C     0.08260   0.16040   0.75770   0.01267  Uiso   1.00
C35    C     0.87160   0.84480   0.36760   0.01267  Uiso   1.00
C36    C     0.87160   0.34480   0.13240   0.01267  Uiso   1.00
C37    C     0.05470   0.38610   0.02560   0.01267  Uiso   1.00
C38    C     0.22490   0.28580   0.76430   0.01267  Uiso   1.00
C39    C     0.96470   0.90300   0.30810   0.01267  Uiso   1.00
C40    C     0.89510   0.24550   0.54790   0.01267  Uiso   1.00
C41    C     0.01660   0.40090   0.32270   0.01267  Uiso   1.00
C42    C     0.38400   0.34100   0.57690   0.01267  Uiso   1.00
C43    C     0.94530   0.11390   0.52560   0.01267  Uiso   1.00
C44    C     0.61600   0.65900   0.42310   0.01267  Uiso   1.00
C45    C     0.77510   0.21420   0.26430   0.01267  Uiso   1.00
C46    C     0.87860   0.53570   0.03620   0.01267  Uiso   1.00
C47    C     0.98340   0.59910   0.67730   0.01267  Uiso   1.00
C48    C     0.87860   0.03570   0.46380   0.01267  Uiso   1.00
O1     O     0.15240   0.00440   0.18190   0.01267  Uiso   1.00
O2     O     0.23960   0.77080   0.42480   0.01267  Uiso   1.00
O3     O     0.84760   0.49560   0.68190   0.01267  Uiso   1.00
O4     O     0.96210   0.34550   0.38200   0.01267  Uiso   1.00
O5     O     0.00600   0.12060   0.03540   0.01267  Uiso   1.00
O6     O     0.96210   0.84550   0.11800   0.01267  Uiso   1.00
O7     O     0.67490   0.16030   0.01670   0.01267  Uiso   1.00
O8     O     0.67490   0.66030   0.48330   0.01267  Uiso   1.00
O9     O     0.03790   0.65450   0.61800   0.01267  Uiso   1.00
O10    O     0.00600   0.62060   0.46460   0.01267  Uiso   1.00
O11    O     0.76040   0.72920   0.92480   0.01267  Uiso   1.00
O12    O     0.23960   0.27080   0.07520   0.01267  Uiso   1.00
O13    O     0.99400   0.37940   0.53540   0.01267  Uiso   1.00
O14    O     0.15240   0.50440   0.31810   0.01267  Uiso   1.00
O15    O     0.76040   0.22920   0.57520   0.01267  Uiso   1.00
O16    O     0.84760   0.99560   0.81810   0.01267  Uiso   1.00
O17    O     0.46720   0.60850   0.40900   0.01267  Uiso   1.00
O18    O     0.53280   0.39150   0.59100   0.01267  Uiso   1.00
O19    O     0.99400   0.87940   0.96460   0.01267  Uiso   1.00
O20    O     0.53280   0.89150   0.90900   0.01267  Uiso   1.00
O21    O     0.32510   0.83970   0.98330   0.01267  Uiso   1.00
O22    O     0.03790   0.15450   0.88200   0.01267  Uiso   1.00
O23    O     0.32510   0.33970   0.51670   0.01267  Uiso   1.00
O24    O     0.46720   0.10850   0.09100   0.01267  Uiso   1.00
