data_image0
_cell_length_a       21.8729
_cell_length_b       21.8729
_cell_length_c       28.6804
_cell_angle_alpha    90
_cell_angle_beta     90
_cell_angle_gamma    90

_symmetry_space_group_name_H-M    "P 1"
_symmetry_int_tables_number       1

loop_
  _symmetry_equiv_pos_as_xyz
  'x, y, z'

loop_
  _atom_site_label
  _atom_site_occupancy
  _atom_site_fract_x
  _atom_site_fract_y
  _atom_site_fract_z
  _atom_site_thermal_displace_type
  _atom_site_B_iso_or_equiv
  _atom_site_type_symbol
  O1       1.0000 0.43590  0.15490  0.45100  Biso   1.000  O
  O2       1.0000 0.43580  0.25810  0.45110  Biso   1.000  O
  C1       1.0000 0.12760  0.04930  0.24640  Biso   1.000  C
  C2       1.0000 0.18970  0.02990  0.23890  Biso   1.000  C
  H1       1.0000 0.22420  0.05570  0.23480  Biso   1.000  H
  C3       1.0000 0.20000  0.16180  0.28680  Biso   1.000  C
  H2       1.0000 0.19690  0.13410  0.31220  Biso   1.000  H
  C4       1.0000 0.24550  0.20520  0.28630  Biso   1.000  C
  C5       1.0000 0.29040  0.20620  0.32460  Biso   1.000  C
  C6       1.0000 0.31310  0.14930  0.34210  Biso   1.000  C
  H3       1.0000 0.30050  0.11170  0.32840  Biso   1.000  H
  C7       1.0000 0.35350  0.14960  0.37930  Biso   1.000  C
  H4       1.0000 0.36640  0.11220  0.39290  Biso   1.000  H
  C8       1.0000 0.37470  0.20450  0.39620  Biso   1.000  C
  C9       1.0000 0.35440  0.26230  0.37780  Biso   1.000  C
  H5       1.0000 0.36930  0.29980  0.39010  Biso   1.000  H
  C10      1.0000 0.31370  0.26150  0.34260  Biso   1.000  C
  H6       1.0000 0.30040  0.29910  0.32950  Biso   1.000  H
  C11      1.0000 0.41920  0.20630  0.43660  Biso   1.000  C
  O3       1.0000 0.56410  0.84510  0.45100  Biso   1.000  O
  O4       1.0000 0.56420  0.74190  0.45110  Biso   1.000  O
  C12      1.0000 0.87240  0.95070  0.24640  Biso   1.000  C
  C13      1.0000 0.81030  0.97010  0.23890  Biso   1.000  C
  H7       1.0000 0.77580  0.94430  0.23480  Biso   1.000  H
  C14      1.0000 0.80000  0.83820  0.28680  Biso   1.000  C
  H8       1.0000 0.80310  0.86590  0.31220  Biso   1.000  H
  C15      1.0000 0.75450  0.79480  0.28630  Biso   1.000  C
  C16      1.0000 0.70960  0.79380  0.32460  Biso   1.000  C
  C17      1.0000 0.68690  0.85070  0.34210  Biso   1.000  C
  H9       1.0000 0.69950  0.88830  0.32840  Biso   1.000  H
  C18      1.0000 0.64650  0.85040  0.37930  Biso   1.000  C
  H10      1.0000 0.63360  0.88780  0.39290  Biso   1.000  H
  C19      1.0000 0.62530  0.79550  0.39620  Biso   1.000  C
  C20      1.0000 0.64560  0.73770  0.37780  Biso   1.000  C
  H11      1.0000 0.63070  0.70020  0.39010  Biso   1.000  H
  C21      1.0000 0.68630  0.73850  0.34260  Biso   1.000  C
  H12      1.0000 0.69960  0.70090  0.32950  Biso   1.000  H
  C22      1.0000 0.58080  0.79370  0.43660  Biso   1.000  C
  O5       1.0000 0.84510  0.43590  0.95100  Biso   1.000  O
  O6       1.0000 0.74190  0.43580  0.95110  Biso   1.000  O
  C23      1.0000 0.95070  0.12760  0.74640  Biso   1.000  C
  C24      1.0000 0.97010  0.18970  0.73890  Biso   1.000  C
  H13      1.0000 0.94430  0.22420  0.73480  Biso   1.000  H
  C25      1.0000 0.83820  0.20000  0.78680  Biso   1.000  C
  H14      1.0000 0.86590  0.19690  0.81220  Biso   1.000  H
  C26      1.0000 0.79480  0.24550  0.78630  Biso   1.000  C
  C27      1.0000 0.79380  0.29040  0.82460  Biso   1.000  C
  C28      1.0000 0.85070  0.31310  0.84210  Biso   1.000  C
  H15      1.0000 0.88830  0.30050  0.82840  Biso   1.000  H
  C29      1.0000 0.85040  0.35350  0.87930  Biso   1.000  C
  H16      1.0000 0.88780  0.36640  0.89290  Biso   1.000  H
  C30      1.0000 0.79550  0.37470  0.89620  Biso   1.000  C
  C31      1.0000 0.73770  0.35440  0.87780  Biso   1.000  C
  H17      1.0000 0.70020  0.36930  0.89010  Biso   1.000  H
  C32      1.0000 0.73850  0.31370  0.84260  Biso   1.000  C
  H18      1.0000 0.70090  0.30040  0.82950  Biso   1.000  H
  C33      1.0000 0.79370  0.41920  0.93660  Biso   1.000  C
  O7       1.0000 0.15490  0.56410  0.95100  Biso   1.000  O
  O8       1.0000 0.25810  0.56420  0.95110  Biso   1.000  O
  C34      1.0000 0.04930  0.87240  0.74640  Biso   1.000  C
  C35      1.0000 0.02990  0.81030  0.73890  Biso   1.000  C
  H19      1.0000 0.05570  0.77580  0.73480  Biso   1.000  H
  C36      1.0000 0.16180  0.80000  0.78680  Biso   1.000  C
  H20      1.0000 0.13410  0.80310  0.81220  Biso   1.000  H
  C37      1.0000 0.20520  0.75450  0.78630  Biso   1.000  C
  C38      1.0000 0.20620  0.70960  0.82460  Biso   1.000  C
  C39      1.0000 0.14930  0.68690  0.84210  Biso   1.000  C
  H21      1.0000 0.11170  0.69950  0.82840  Biso   1.000  H
  C40      1.0000 0.14960  0.64650  0.87930  Biso   1.000  C
  H22      1.0000 0.11220  0.63360  0.89290  Biso   1.000  H
  C41      1.0000 0.20450  0.62530  0.89620  Biso   1.000  C
  C42      1.0000 0.26230  0.64560  0.87780  Biso   1.000  C
  H23      1.0000 0.29980  0.63070  0.89010  Biso   1.000  H
  C43      1.0000 0.26150  0.68630  0.84260  Biso   1.000  C
  H24      1.0000 0.29910  0.69960  0.82950  Biso   1.000  H
  C44      1.0000 0.20630  0.58080  0.93660  Biso   1.000  C
  O9       1.0000 0.56410  0.15490  0.54900  Biso   1.000  O
  O10      1.0000 0.56420  0.25810  0.54890  Biso   1.000  O
  C45      1.0000 0.87240  0.04930  0.75360  Biso   1.000  C
  C46      1.0000 0.81030  0.02990  0.76110  Biso   1.000  C
  H25      1.0000 0.77580  0.05570  0.76520  Biso   1.000  H
  C47      1.0000 0.80000  0.16180  0.71320  Biso   1.000  C
  H26      1.0000 0.80310  0.13410  0.68780  Biso   1.000  H
  C48      1.0000 0.75450  0.20520  0.71370  Biso   1.000  C
  C49      1.0000 0.70960  0.20620  0.67540  Biso   1.000  C
  C50      1.0000 0.68690  0.14930  0.65790  Biso   1.000  C
  H27      1.0000 0.69950  0.11170  0.67160  Biso   1.000  H
  C51      1.0000 0.64650  0.14960  0.62070  Biso   1.000  C
  H28      1.0000 0.63360  0.11220  0.60710  Biso   1.000  H
  C52      1.0000 0.62530  0.20450  0.60380  Biso   1.000  C
  C53      1.0000 0.64560  0.26230  0.62220  Biso   1.000  C
  H29      1.0000 0.63070  0.29980  0.60990  Biso   1.000  H
  C54      1.0000 0.68630  0.26150  0.65740  Biso   1.000  C
  H30      1.0000 0.69960  0.29910  0.67050  Biso   1.000  H
  C55      1.0000 0.58080  0.20630  0.56340  Biso   1.000  C
  O11      1.0000 0.43590  0.84510  0.54900  Biso   1.000  O
  O12      1.0000 0.43580  0.74190  0.54890  Biso   1.000  O
  C56      1.0000 0.12760  0.95070  0.75360  Biso   1.000  C
  C57      1.0000 0.18970  0.97010  0.76110  Biso   1.000  C
  H31      1.0000 0.22420  0.94430  0.76520  Biso   1.000  H
  C58      1.0000 0.20000  0.83820  0.71320  Biso   1.000  C
  H32      1.0000 0.19690  0.86590  0.68780  Biso   1.000  H
  C59      1.0000 0.24550  0.79480  0.71370  Biso   1.000  C
  C60      1.0000 0.29040  0.79380  0.67540  Biso   1.000  C
  C61      1.0000 0.31310  0.85070  0.65790  Biso   1.000  C
  H33      1.0000 0.30050  0.88830  0.67160  Biso   1.000  H
  C62      1.0000 0.35350  0.85040  0.62070  Biso   1.000  C
  H34      1.0000 0.36640  0.88780  0.60710  Biso   1.000  H
  C63      1.0000 0.37470  0.79550  0.60380  Biso   1.000  C
  C64      1.0000 0.35440  0.73770  0.62220  Biso   1.000  C
  H35      1.0000 0.36930  0.70020  0.60990  Biso   1.000  H
  C65      1.0000 0.31370  0.73850  0.65740  Biso   1.000  C
  H36      1.0000 0.30040  0.70090  0.67050  Biso   1.000  H
  C66      1.0000 0.41920  0.79370  0.56340  Biso   1.000  C
  O13      1.0000 0.15490  0.43590  0.04900  Biso   1.000  O
  O14      1.0000 0.25810  0.43580  0.04890  Biso   1.000  O
  C67      1.0000 0.04930  0.12760  0.25360  Biso   1.000  C
  C68      1.0000 0.02990  0.18970  0.26110  Biso   1.000  C
  H37      1.0000 0.05570  0.22420  0.26520  Biso   1.000  H
  C69      1.0000 0.16180  0.20000  0.21320  Biso   1.000  C
  H38      1.0000 0.13410  0.19690  0.18780  Biso   1.000  H
  C70      1.0000 0.20520  0.24550  0.21370  Biso   1.000  C
  C71      1.0000 0.20620  0.29040  0.17540  Biso   1.000  C
  C72      1.0000 0.14930  0.31310  0.15790  Biso   1.000  C
  H39      1.0000 0.11170  0.30050  0.17160  Biso   1.000  H
  C73      1.0000 0.14960  0.35350  0.12070  Biso   1.000  C
  H40      1.0000 0.11220  0.36640  0.10710  Biso   1.000  H
  C74      1.0000 0.20450  0.37470  0.10380  Biso   1.000  C
  C75      1.0000 0.26230  0.35440  0.12220  Biso   1.000  C
  H41      1.0000 0.29980  0.36930  0.10990  Biso   1.000  H
  C76      1.0000 0.26150  0.31370  0.15740  Biso   1.000  C
  H42      1.0000 0.29910  0.30040  0.17050  Biso   1.000  H
  C77      1.0000 0.20630  0.41920  0.06340  Biso   1.000  C
  O15      1.0000 0.84510  0.56410  0.04900  Biso   1.000  O
  O16      1.0000 0.74190  0.56420  0.04890  Biso   1.000  O
  C78      1.0000 0.95070  0.87240  0.25360  Biso   1.000  C
  C79      1.0000 0.97010  0.81030  0.26110  Biso   1.000  C
  H43      1.0000 0.94430  0.77580  0.26520  Biso   1.000  H
  C80      1.0000 0.83820  0.80000  0.21320  Biso   1.000  C
  H44      1.0000 0.86590  0.80310  0.18780  Biso   1.000  H
  C81      1.0000 0.79480  0.75450  0.21370  Biso   1.000  C
  C82      1.0000 0.79380  0.70960  0.17540  Biso   1.000  C
  C83      1.0000 0.85070  0.68690  0.15790  Biso   1.000  C
  H45      1.0000 0.88830  0.69950  0.17160  Biso   1.000  H
  C84      1.0000 0.85040  0.64650  0.12070  Biso   1.000  C
  H46      1.0000 0.88780  0.63360  0.10710  Biso   1.000  H
  C85      1.0000 0.79550  0.62530  0.10380  Biso   1.000  C
  C86      1.0000 0.73770  0.64560  0.12220  Biso   1.000  C
  H47      1.0000 0.70020  0.63070  0.10990  Biso   1.000  H
  C87      1.0000 0.73850  0.68630  0.15740  Biso   1.000  C
  H48      1.0000 0.70090  0.69960  0.17050  Biso   1.000  H
  C88      1.0000 0.79370  0.58080  0.06340  Biso   1.000  C
  O17      1.0000 0.56410  0.84510  0.54900  Biso   1.000  O
  O18      1.0000 0.56420  0.74190  0.54890  Biso   1.000  O
  C89      1.0000 0.87240  0.95070  0.75360  Biso   1.000  C
  C90      1.0000 0.81030  0.97010  0.76110  Biso   1.000  C
  H49      1.0000 0.77580  0.94430  0.76520  Biso   1.000  H
  C91      1.0000 0.80000  0.83820  0.71320  Biso   1.000  C
  H50      1.0000 0.80310  0.86590  0.68780  Biso   1.000  H
  C92      1.0000 0.75450  0.79480  0.71370  Biso   1.000  C
  C93      1.0000 0.70960  0.79380  0.67540  Biso   1.000  C
  C94      1.0000 0.68690  0.85070  0.65790  Biso   1.000  C
  H51      1.0000 0.69950  0.88830  0.67160  Biso   1.000  H
  C95      1.0000 0.64650  0.85040  0.62070  Biso   1.000  C
  H52      1.0000 0.63360  0.88780  0.60710  Biso   1.000  H
  C96      1.0000 0.62530  0.79550  0.60380  Biso   1.000  C
  C97      1.0000 0.64560  0.73770  0.62220  Biso   1.000  C
  H53      1.0000 0.63070  0.70020  0.60990  Biso   1.000  H
  C98      1.0000 0.68630  0.73850  0.65740  Biso   1.000  C
  H54      1.0000 0.69960  0.70090  0.67050  Biso   1.000  H
  C99      1.0000 0.58080  0.79370  0.56340  Biso   1.000  C
  O19      1.0000 0.43590  0.15490  0.54900  Biso   1.000  O
  O20      1.0000 0.43580  0.25810  0.54890  Biso   1.000  O
  C100     1.0000 0.12760  0.04930  0.75360  Biso   1.000  C
  C101     1.0000 0.18970  0.02990  0.76110  Biso   1.000  C
  H55      1.0000 0.22420  0.05570  0.76520  Biso   1.000  H
  C102     1.0000 0.20000  0.16180  0.71320  Biso   1.000  C
  H56      1.0000 0.19690  0.13410  0.68780  Biso   1.000  H
  C103     1.0000 0.24550  0.20520  0.71370  Biso   1.000  C
  C104     1.0000 0.29040  0.20620  0.67540  Biso   1.000  C
  C105     1.0000 0.31310  0.14930  0.65790  Biso   1.000  C
  H57      1.0000 0.30050  0.11170  0.67160  Biso   1.000  H
  C106     1.0000 0.35350  0.14960  0.62070  Biso   1.000  C
  H58      1.0000 0.36640  0.11220  0.60710  Biso   1.000  H
  C107     1.0000 0.37470  0.20450  0.60380  Biso   1.000  C
  C108     1.0000 0.35440  0.26230  0.62220  Biso   1.000  C
  H59      1.0000 0.36930  0.29980  0.60990  Biso   1.000  H
  C109     1.0000 0.31370  0.26150  0.65740  Biso   1.000  C
  H60      1.0000 0.30040  0.29910  0.67050  Biso   1.000  H
  C110     1.0000 0.41920  0.20630  0.56340  Biso   1.000  C
  O21      1.0000 0.15490  0.56410  0.04900  Biso   1.000  O
  O22      1.0000 0.25810  0.56420  0.04890  Biso   1.000  O
  C111     1.0000 0.04930  0.87240  0.25360  Biso   1.000  C
  C112     1.0000 0.02990  0.81030  0.26110  Biso   1.000  C
  H61      1.0000 0.05570  0.77580  0.26520  Biso   1.000  H
  C113     1.0000 0.16180  0.80000  0.21320  Biso   1.000  C
  H62      1.0000 0.13410  0.80310  0.18780  Biso   1.000  H
  C114     1.0000 0.20520  0.75450  0.21370  Biso   1.000  C
  C115     1.0000 0.20620  0.70960  0.17540  Biso   1.000  C
  C116     1.0000 0.14930  0.68690  0.15790  Biso   1.000  C
  H63      1.0000 0.11170  0.69950  0.17160  Biso   1.000  H
  C117     1.0000 0.14960  0.64650  0.12070  Biso   1.000  C
  H64      1.0000 0.11220  0.63360  0.10710  Biso   1.000  H
  C118     1.0000 0.20450  0.62530  0.10380  Biso   1.000  C
  C119     1.0000 0.26230  0.64560  0.12220  Biso   1.000  C
  H65      1.0000 0.29980  0.63070  0.10990  Biso   1.000  H
  C120     1.0000 0.26150  0.68630  0.15740  Biso   1.000  C
  H66      1.0000 0.29910  0.69960  0.17050  Biso   1.000  H
  C121     1.0000 0.20630  0.58080  0.06340  Biso   1.000  C
  O23      1.0000 0.84510  0.43590  0.04900  Biso   1.000  O
  O24      1.0000 0.74190  0.43580  0.04890  Biso   1.000  O
  C122     1.0000 0.95070  0.12760  0.25360  Biso   1.000  C
  C123     1.0000 0.97010  0.18970  0.26110  Biso   1.000  C
  H67      1.0000 0.94430  0.22420  0.26520  Biso   1.000  H
  C124     1.0000 0.83820  0.20000  0.21320  Biso   1.000  C
  H68      1.0000 0.86590  0.19690  0.18780  Biso   1.000  H
  C125     1.0000 0.79480  0.24550  0.21370  Biso   1.000  C
  C126     1.0000 0.79380  0.29040  0.17540  Biso   1.000  C
  C127     1.0000 0.85070  0.31310  0.15790  Biso   1.000  C
  H69      1.0000 0.88830  0.30050  0.17160  Biso   1.000  H
  C128     1.0000 0.85040  0.35350  0.12070  Biso   1.000  C
  H70      1.0000 0.88780  0.36640  0.10710  Biso   1.000  H
  C129     1.0000 0.79550  0.37470  0.10380  Biso   1.000  C
  C130     1.0000 0.73770  0.35440  0.12220  Biso   1.000  C
  H71      1.0000 0.70020  0.36930  0.10990  Biso   1.000  H
  C131     1.0000 0.73850  0.31370  0.15740  Biso   1.000  C
  H72      1.0000 0.70090  0.30040  0.17050  Biso   1.000  H
  C132     1.0000 0.79370  0.41920  0.06340  Biso   1.000  C
  O25      1.0000 0.43590  0.84510  0.45100  Biso   1.000  O
  O26      1.0000 0.43580  0.74190  0.45110  Biso   1.000  O
  C133     1.0000 0.12760  0.95070  0.24640  Biso   1.000  C
  C134     1.0000 0.18970  0.97010  0.23890  Biso   1.000  C
  H73      1.0000 0.22420  0.94430  0.23480  Biso   1.000  H
  C135     1.0000 0.20000  0.83820  0.28680  Biso   1.000  C
  H74      1.0000 0.19690  0.86590  0.31220  Biso   1.000  H
  C136     1.0000 0.24550  0.79480  0.28630  Biso   1.000  C
  C137     1.0000 0.29040  0.79380  0.32460  Biso   1.000  C
  C138     1.0000 0.31310  0.85070  0.34210  Biso   1.000  C
  H75      1.0000 0.30050  0.88830  0.32840  Biso   1.000  H
  C139     1.0000 0.35350  0.85040  0.37930  Biso   1.000  C
  H76      1.0000 0.36640  0.88780  0.39290  Biso   1.000  H
  C140     1.0000 0.37470  0.79550  0.39620  Biso   1.000  C
  C141     1.0000 0.35440  0.73770  0.37780  Biso   1.000  C
  H77      1.0000 0.36930  0.70020  0.39010  Biso   1.000  H
  C142     1.0000 0.31370  0.73850  0.34260  Biso   1.000  C
  H78      1.0000 0.30040  0.70090  0.32950  Biso   1.000  H
  C143     1.0000 0.41920  0.79370  0.43660  Biso   1.000  C
  O27      1.0000 0.56410  0.15490  0.45100  Biso   1.000  O
  O28      1.0000 0.56420  0.25810  0.45110  Biso   1.000  O
  C144     1.0000 0.87240  0.04930  0.24640  Biso   1.000  C
  C145     1.0000 0.81030  0.02990  0.23890  Biso   1.000  C
  H79      1.0000 0.77580  0.05570  0.23480  Biso   1.000  H
  C146     1.0000 0.80000  0.16180  0.28680  Biso   1.000  C
  H80      1.0000 0.80310  0.13410  0.31220  Biso   1.000  H
  C147     1.0000 0.75450  0.20520  0.28630  Biso   1.000  C
  C148     1.0000 0.70960  0.20620  0.32460  Biso   1.000  C
  C149     1.0000 0.68690  0.14930  0.34210  Biso   1.000  C
  H81      1.0000 0.69950  0.11170  0.32840  Biso   1.000  H
  C150     1.0000 0.64650  0.14960  0.37930  Biso   1.000  C
  H82      1.0000 0.63360  0.11220  0.39290  Biso   1.000  H
  C151     1.0000 0.62530  0.20450  0.39620  Biso   1.000  C
  C152     1.0000 0.64560  0.26230  0.37780  Biso   1.000  C
  H83      1.0000 0.63070  0.29980  0.39010  Biso   1.000  H
  C153     1.0000 0.68630  0.26150  0.34260  Biso   1.000  C
  H84      1.0000 0.69960  0.29910  0.32950  Biso   1.000  H
  C154     1.0000 0.58080  0.20630  0.43660  Biso   1.000  C
  O29      1.0000 0.84510  0.56410  0.95100  Biso   1.000  O
  O30      1.0000 0.74190  0.56420  0.95110  Biso   1.000  O
  C155     1.0000 0.95070  0.87240  0.74640  Biso   1.000  C
  C156     1.0000 0.97010  0.81030  0.73890  Biso   1.000  C
  H85      1.0000 0.94430  0.77580  0.73480  Biso   1.000  H
  C157     1.0000 0.83820  0.80000  0.78680  Biso   1.000  C
  H86      1.0000 0.86590  0.80310  0.81220  Biso   1.000  H
  C158     1.0000 0.79480  0.75450  0.78630  Biso   1.000  C
  C159     1.0000 0.79380  0.70960  0.82460  Biso   1.000  C
  C160     1.0000 0.85070  0.68690  0.84210  Biso   1.000  C
  H87      1.0000 0.88830  0.69950  0.82840  Biso   1.000  H
  C161     1.0000 0.85040  0.64650  0.87930  Biso   1.000  C
  H88      1.0000 0.88780  0.63360  0.89290  Biso   1.000  H
  C162     1.0000 0.79550  0.62530  0.89620  Biso   1.000  C
  C163     1.0000 0.73770  0.64560  0.87780  Biso   1.000  C
  H89      1.0000 0.70020  0.63070  0.89010  Biso   1.000  H
  C164     1.0000 0.73850  0.68630  0.84260  Biso   1.000  C
  H90      1.0000 0.70090  0.69960  0.82950  Biso   1.000  H
  C165     1.0000 0.79370  0.58080  0.93660  Biso   1.000  C
  O31      1.0000 0.15490  0.43590  0.95100  Biso   1.000  O
  O32      1.0000 0.25810  0.43580  0.95110  Biso   1.000  O
  C166     1.0000 0.04930  0.12760  0.74640  Biso   1.000  C
  C167     1.0000 0.02990  0.18970  0.73890  Biso   1.000  C
  H91      1.0000 0.05570  0.22420  0.73480  Biso   1.000  H
  C168     1.0000 0.16180  0.20000  0.78680  Biso   1.000  C
  H92      1.0000 0.13410  0.19690  0.81220  Biso   1.000  H
  C169     1.0000 0.20520  0.24550  0.78630  Biso   1.000  C
  C170     1.0000 0.20620  0.29040  0.82460  Biso   1.000  C
  C171     1.0000 0.14930  0.31310  0.84210  Biso   1.000  C
  H93      1.0000 0.11170  0.30050  0.82840  Biso   1.000  H
  C172     1.0000 0.14960  0.35350  0.87930  Biso   1.000  C
  H94      1.0000 0.11220  0.36640  0.89290  Biso   1.000  H
  C173     1.0000 0.20450  0.37470  0.89620  Biso   1.000  C
  C174     1.0000 0.26230  0.35440  0.87780  Biso   1.000  C
  H95      1.0000 0.29980  0.36930  0.89010  Biso   1.000  H
  C175     1.0000 0.26150  0.31370  0.84260  Biso   1.000  C
  H96      1.0000 0.29910  0.30040  0.82950  Biso   1.000  H
  C176     1.0000 0.20630  0.41920  0.93660  Biso   1.000  C
  Co1      1.0000 0.00000  0.00000  0.25000  Biso   1.000  Co
  Co2      1.0000 0.00000  0.00000  0.75000  Biso   1.000  Co
  Co3      1.0000 0.50000  0.13862  0.50000  Biso   1.000  Co
  Co4      1.0000 0.50000  0.27216  0.50000  Biso   1.000  Co
  O33      1.0000 0.50000  0.04810  0.50000  Biso   1.000  O
  Co5      1.0000 0.50000  0.86138  0.50000  Biso   1.000  Co
  Co6      1.0000 0.50000  0.72784  0.50000  Biso   1.000  Co
  O34      1.0000 0.50000  0.95190  0.50000  Biso   1.000  O
  Co7      1.0000 0.86138  0.50000  0.00000  Biso   1.000  Co
  Co8      1.0000 0.72784  0.50000  0.00000  Biso   1.000  Co
  O35      1.0000 0.95190  0.50000  0.00000  Biso   1.000  O
  Co9      1.0000 0.13862  0.50000  0.00000  Biso   1.000  Co
  Co10     1.0000 0.27216  0.50000  0.00000  Biso   1.000  Co
  O36      1.0000 0.04810  0.50000  0.00000  Biso   1.000  O
  N1       1.0000 0.09040  0.00000  0.24870  Biso   1.000  N
  N2       1.0000 0.90960  0.00000  0.24870  Biso   1.000  N
  N3       1.0000 0.00000  0.09040  0.74870  Biso   1.000  N
  N4       1.0000 0.00000  0.90960  0.74870  Biso   1.000  N
  N5       1.0000 0.90960  0.00000  0.75130  Biso   1.000  N
  N6       1.0000 0.09040  0.00000  0.75130  Biso   1.000  N
  N7       1.0000 0.00000  0.09040  0.25130  Biso   1.000  N
  N8       1.0000 0.00000  0.90960  0.25130  Biso   1.000  N
  C177     1.0000 0.50000  0.00000  0.50000  Biso   1.000  C
  C178     1.0000 0.00000  0.50000  0.00000  Biso   1.000  C
  C179     1.0000 0.10890  0.10890  0.25000  Biso   1.000  C
  C180     1.0000 0.15840  0.15840  0.25000  Biso   1.000  C
  C181     1.0000 0.24790  0.24790  0.25000  Biso   1.000  C
  H97      1.0000 0.27860  0.27860  0.25000  Biso   1.000  H
  C182     1.0000 0.89110  0.89110  0.25000  Biso   1.000  C
  C183     1.0000 0.84160  0.84160  0.25000  Biso   1.000  C
  C184     1.0000 0.75210  0.75210  0.25000  Biso   1.000  C
  H98      1.0000 0.72140  0.72140  0.25000  Biso   1.000  H
  C185     1.0000 0.89110  0.10890  0.75000  Biso   1.000  C
  C186     1.0000 0.84160  0.15840  0.75000  Biso   1.000  C
  C187     1.0000 0.75210  0.24790  0.75000  Biso   1.000  C
  H99      1.0000 0.72140  0.27860  0.75000  Biso   1.000  H
  C188     1.0000 0.10890  0.89110  0.75000  Biso   1.000  C
  C189     1.0000 0.15840  0.84160  0.75000  Biso   1.000  C
  C190     1.0000 0.24790  0.75210  0.75000  Biso   1.000  C
  H100     1.0000 0.27860  0.72140  0.75000  Biso   1.000  H
  C191     1.0000 0.89110  0.89110  0.75000  Biso   1.000  C
  C192     1.0000 0.84160  0.84160  0.75000  Biso   1.000  C
  C193     1.0000 0.75210  0.75210  0.75000  Biso   1.000  C
  H101     1.0000 0.72140  0.72140  0.75000  Biso   1.000  H
  C194     1.0000 0.10890  0.10890  0.75000  Biso   1.000  C
  C195     1.0000 0.15840  0.15840  0.75000  Biso   1.000  C
  C196     1.0000 0.24790  0.24790  0.75000  Biso   1.000  C
  H102     1.0000 0.27860  0.27860  0.75000  Biso   1.000  H
  C197     1.0000 0.10890  0.89110  0.25000  Biso   1.000  C
  C198     1.0000 0.15840  0.84160  0.25000  Biso   1.000  C
  C199     1.0000 0.24790  0.75210  0.25000  Biso   1.000  C
  H103     1.0000 0.27860  0.72140  0.25000  Biso   1.000  H
  C200     1.0000 0.89110  0.10890  0.25000  Biso   1.000  C
  C201     1.0000 0.84160  0.15840  0.25000  Biso   1.000  C
  C202     1.0000 0.75210  0.24790  0.25000  Biso   1.000  C
  H104     1.0000 0.72140  0.27860  0.25000  Biso   1.000  H
