data_image0
_cell_length_a       11.3346
_cell_length_b       15.368
_cell_length_c       11.167
_cell_angle_alpha    90
_cell_angle_beta     90.949
_cell_angle_gamma    90

_symmetry_space_group_name_H-M    "P 1"
_symmetry_int_tables_number       1

loop_
  _symmetry_equiv_pos_as_xyz
  'x, y, z'

loop_
  _atom_site_label
  _atom_site_occupancy
  _atom_site_fract_x
  _atom_site_fract_y
  _atom_site_fract_z
  _atom_site_thermal_displace_type
  _atom_site_B_iso_or_equiv
  _atom_site_type_symbol
  K1       1.0000 0.28584  0.07458  0.01047  Biso   1.000  K
  O1       1.0000 0.47200  0.85193  0.39970  Biso   1.000  O
  O2       1.0000 0.62000  0.93693  0.34550  Biso   1.000  O
  O3       1.0000 0.64770  0.85650  0.77340  Biso   1.000  O
  O4       1.0000 0.58870  0.93739  0.62080  Biso   1.000  O
  C1       1.0000 0.72210  0.75140  0.37970  Biso   1.000  C
  H1       1.0000 0.70340  0.75240  0.29830  Biso   1.000  H
  C2       1.0000 0.66730  0.81000  0.45540  Biso   1.000  C
  C3       1.0000 0.69560  0.80910  0.57740  Biso   1.000  C
  C4       1.0000 0.57770  0.87060  0.39930  Biso   1.000  C
  C5       1.0000 0.64110  0.87130  0.66450  Biso   1.000  C
  K2       1.0000 0.78584  0.57458  0.01047  Biso   1.000  K
  O5       1.0000 0.97200  0.35193  0.39970  Biso   1.000  O
  O6       1.0000 0.12000  0.43693  0.34550  Biso   1.000  O
  O7       1.0000 0.14770  0.35650  0.77340  Biso   1.000  O
  O8       1.0000 0.08870  0.43739  0.62080  Biso   1.000  O
  C6       1.0000 0.22210  0.25140  0.37970  Biso   1.000  C
  H2       1.0000 0.20340  0.25240  0.29830  Biso   1.000  H
  C7       1.0000 0.16730  0.31000  0.45540  Biso   1.000  C
  C8       1.0000 0.19560  0.30910  0.57740  Biso   1.000  C
  C9       1.0000 0.07770  0.37060  0.39930  Biso   1.000  C
  C10      1.0000 0.14110  0.37130  0.66450  Biso   1.000  C
  K3       1.0000 0.71416  0.07458  0.48953  Biso   1.000  K
  O9       1.0000 0.52800  0.85193  0.10030  Biso   1.000  O
  O10      1.0000 0.38000  0.93693  0.15450  Biso   1.000  O
  O11      1.0000 0.35230  0.85650  0.72660  Biso   1.000  O
  O12      1.0000 0.41130  0.93739  0.87920  Biso   1.000  O
  C11      1.0000 0.27790  0.75140  0.12030  Biso   1.000  C
  H3       1.0000 0.29660  0.75240  0.20170  Biso   1.000  H
  C12      1.0000 0.33270  0.81000  0.04460  Biso   1.000  C
  C13      1.0000 0.30440  0.80910  0.92260  Biso   1.000  C
  C14      1.0000 0.42230  0.87060  0.10070  Biso   1.000  C
  C15      1.0000 0.35890  0.87130  0.83550  Biso   1.000  C
  K4       1.0000 0.21416  0.57458  0.48953  Biso   1.000  K
  O13      1.0000 0.02800  0.35193  0.10030  Biso   1.000  O
  O14      1.0000 0.88000  0.43693  0.15450  Biso   1.000  O
  O15      1.0000 0.85230  0.35650  0.72660  Biso   1.000  O
  O16      1.0000 0.91130  0.43739  0.87920  Biso   1.000  O
  C16      1.0000 0.77790  0.25140  0.12030  Biso   1.000  C
  H4       1.0000 0.79660  0.25240  0.20170  Biso   1.000  H
  C17      1.0000 0.83270  0.31000  0.04460  Biso   1.000  C
  C18      1.0000 0.80440  0.30910  0.92260  Biso   1.000  C
  C19      1.0000 0.92230  0.37060  0.10070  Biso   1.000  C
  C20      1.0000 0.85890  0.37130  0.83550  Biso   1.000  C
  K5       1.0000 0.71416  0.92542  0.98953  Biso   1.000  K
  O17      1.0000 0.52800  0.14807  0.60030  Biso   1.000  O
  O18      1.0000 0.38000  0.06307  0.65450  Biso   1.000  O
  O19      1.0000 0.35230  0.14350  0.22660  Biso   1.000  O
  O20      1.0000 0.41130  0.06261  0.37920  Biso   1.000  O
  C21      1.0000 0.27790  0.24860  0.62030  Biso   1.000  C
  H5       1.0000 0.29660  0.24760  0.70170  Biso   1.000  H
  C22      1.0000 0.33270  0.19000  0.54460  Biso   1.000  C
  C23      1.0000 0.30440  0.19090  0.42260  Biso   1.000  C
  C24      1.0000 0.42230  0.12940  0.60070  Biso   1.000  C
  C25      1.0000 0.35890  0.12870  0.33550  Biso   1.000  C
  K6       1.0000 0.21416  0.42542  0.98953  Biso   1.000  K
  O21      1.0000 0.02800  0.64807  0.60030  Biso   1.000  O
  O22      1.0000 0.88000  0.56307  0.65450  Biso   1.000  O
  O23      1.0000 0.85230  0.64350  0.22660  Biso   1.000  O
  O24      1.0000 0.91130  0.56261  0.37920  Biso   1.000  O
  C26      1.0000 0.77790  0.74860  0.62030  Biso   1.000  C
  H6       1.0000 0.79660  0.74760  0.70170  Biso   1.000  H
  C27      1.0000 0.83270  0.69000  0.54460  Biso   1.000  C
  C28      1.0000 0.80440  0.69090  0.42260  Biso   1.000  C
  C29      1.0000 0.92230  0.62940  0.60070  Biso   1.000  C
  C30      1.0000 0.85890  0.62870  0.33550  Biso   1.000  C
  K7       1.0000 0.28584  0.92542  0.51047  Biso   1.000  K
  O25      1.0000 0.47200  0.14807  0.89970  Biso   1.000  O
  O26      1.0000 0.62000  0.06307  0.84550  Biso   1.000  O
  O27      1.0000 0.64770  0.14350  0.27340  Biso   1.000  O
  O28      1.0000 0.58870  0.06261  0.12080  Biso   1.000  O
  C31      1.0000 0.72210  0.24860  0.87970  Biso   1.000  C
  H7       1.0000 0.70340  0.24760  0.79830  Biso   1.000  H
  C32      1.0000 0.66730  0.19000  0.95540  Biso   1.000  C
  C33      1.0000 0.69560  0.19090  0.07740  Biso   1.000  C
  C34      1.0000 0.57770  0.12940  0.89930  Biso   1.000  C
  C35      1.0000 0.64110  0.12870  0.16450  Biso   1.000  C
  K8       1.0000 0.78584  0.42542  0.51047  Biso   1.000  K
  O29      1.0000 0.97200  0.64807  0.89970  Biso   1.000  O
  O30      1.0000 0.12000  0.56307  0.84550  Biso   1.000  O
  O31      1.0000 0.14770  0.64350  0.27340  Biso   1.000  O
  O32      1.0000 0.08870  0.56261  0.12080  Biso   1.000  O
  C36      1.0000 0.22210  0.74860  0.87970  Biso   1.000  C
  H8       1.0000 0.20340  0.74760  0.79830  Biso   1.000  H
  C37      1.0000 0.16730  0.69000  0.95540  Biso   1.000  C
  C38      1.0000 0.19560  0.69090  0.07740  Biso   1.000  C
  C39      1.0000 0.07770  0.62940  0.89930  Biso   1.000  C
  C40      1.0000 0.14110  0.62870  0.16450  Biso   1.000  C
  Co1      1.0000 0.50000  0.00282  0.25000  Biso   1.000  Co
  Co2      1.0000 0.00000  0.50282  0.25000  Biso   1.000  Co
  Co3      1.0000 0.50000  0.99718  0.75000  Biso   1.000  Co
  Co4      1.0000 0.00000  0.49718  0.75000  Biso   1.000  Co
