data_POJTUE_clean
_audit_creation_date              2014-07-02
_audit_creation_method            'Materials Studio'
_symmetry_space_group_name_H-M    'P1'
_symmetry_Int_Tables_number       1
_symmetry_cell_setting            triclinic
loop_
_symmetry_equiv_pos_as_xyz
  x,y,z
_cell_length_a                    6.8351
_cell_length_b                    15.0362
_cell_length_c                    19.3197
_cell_angle_alpha                 90.0000
_cell_angle_beta                  96.3050
_cell_angle_gamma                 90.0000
loop_
_atom_site_label
_atom_site_type_symbol
_atom_site_fract_x
_atom_site_fract_y
_atom_site_fract_z
_atom_site_U_iso_or_equiv
_atom_site_adp_type
_atom_site_occupancy
Fe1    Fe    0.52510   0.74420   0.50560   0.01267  Uiso   1.00
Fe2    Fe    0.97490   0.24420   0.49440   0.01267  Uiso   1.00
Fe3    Fe    0.47490   0.25580   0.49440   0.01267  Uiso   1.00
Fe4    Fe    0.02510   0.75580   0.50560   0.01267  Uiso   1.00
Fe5    Fe    0.50000   0.00000   0.00000   0.01267  Uiso   1.00
Fe6    Fe    0.00000   0.50000   0.00000   0.01267  Uiso   1.00
Fe7    Fe    0.50000   0.50000   0.00000   0.01267  Uiso   1.00
Fe8    Fe    0.00000   0.00000   0.00000   0.01267  Uiso   1.00
H1     H     0.48390   0.63090   0.17200   0.01267  Uiso   1.00
H2     H     0.45830   0.66510   0.28940   0.01267  Uiso   1.00
H3     H     0.03810   0.60560   0.33780   0.01267  Uiso   1.00
H4     H     0.06370   0.57140   0.22050   0.01267  Uiso   1.00
H5     H     0.47380   0.61490   0.66960   0.01267  Uiso   1.00
H6     H     0.44260   0.58880   0.78780   0.01267  Uiso   1.00
H7     H     0.02650   0.63970   0.83610   0.01267  Uiso   1.00
H8     H     0.05770   0.66580   0.71790   0.01267  Uiso   1.00
H9     H     0.01610   0.13090   0.82800   0.01267  Uiso   1.00
H10    H     0.04170   0.16510   0.71060   0.01267  Uiso   1.00
H11    H     0.46190   0.10560   0.66220   0.01267  Uiso   1.00
H12    H     0.43630   0.07140   0.77950   0.01267  Uiso   1.00
H13    H     0.02620   0.11490   0.33040   0.01267  Uiso   1.00
H14    H     0.05740   0.08880   0.21220   0.01267  Uiso   1.00
H15    H     0.47350   0.13970   0.16390   0.01267  Uiso   1.00
H16    H     0.44230   0.16580   0.28210   0.01267  Uiso   1.00
H17    H     0.51610   0.36910   0.82800   0.01267  Uiso   1.00
H18    H     0.54170   0.33490   0.71060   0.01267  Uiso   1.00
H19    H     0.96190   0.39440   0.66220   0.01267  Uiso   1.00
H20    H     0.93630   0.42860   0.77950   0.01267  Uiso   1.00
H21    H     0.52620   0.38510   0.33040   0.01267  Uiso   1.00
H22    H     0.55740   0.41120   0.21220   0.01267  Uiso   1.00
H23    H     0.97350   0.36030   0.16390   0.01267  Uiso   1.00
H24    H     0.94230   0.33420   0.28210   0.01267  Uiso   1.00
H25    H     0.98390   0.86910   0.17200   0.01267  Uiso   1.00
H26    H     0.95830   0.83490   0.28940   0.01267  Uiso   1.00
H27    H     0.53810   0.89440   0.33780   0.01267  Uiso   1.00
H28    H     0.56370   0.92860   0.22050   0.01267  Uiso   1.00
H29    H     0.97380   0.88510   0.66960   0.01267  Uiso   1.00
H30    H     0.94260   0.91120   0.78780   0.01267  Uiso   1.00
H31    H     0.52650   0.86030   0.83610   0.01267  Uiso   1.00
H32    H     0.55770   0.83420   0.71790   0.01267  Uiso   1.00
C1     C     0.77590   0.59830   0.18650   0.01267  Uiso   1.00
C2     C     0.59940   0.62560   0.20660   0.01267  Uiso   1.00
C3     C     0.58450   0.64560   0.27500   0.01267  Uiso   1.00
C4     C     0.74610   0.63820   0.32340   0.01267  Uiso   1.00
C5     C     0.92260   0.61090   0.30330   0.01267  Uiso   1.00
C6     C     0.93750   0.59090   0.23490   0.01267  Uiso   1.00
C7     C     0.79240   0.57620   0.11100   0.01267  Uiso   1.00
C8     C     0.72960   0.66020   0.39890   0.01267  Uiso   1.00
C9     C     0.76840   0.64260   0.68390   0.01267  Uiso   1.00
C10    C     0.58910   0.62010   0.70430   0.01267  Uiso   1.00
C11    C     0.57090   0.60480   0.77320   0.01267  Uiso   1.00
C12    C     0.73200   0.61200   0.82180   0.01267  Uiso   1.00
C13    C     0.91130   0.63450   0.80140   0.01267  Uiso   1.00
C14    C     0.92950   0.64980   0.73250   0.01267  Uiso   1.00
C15    C     0.78800   0.65900   0.60950   0.01267  Uiso   1.00
C16    C     0.21230   0.90440   0.89620   0.01267  Uiso   1.00
C17    C     0.72410   0.09830   0.81350   0.01267  Uiso   1.00
C18    C     0.90060   0.12560   0.79340   0.01267  Uiso   1.00
C19    C     0.91550   0.14560   0.72500   0.01267  Uiso   1.00
C20    C     0.75390   0.13820   0.67660   0.01267  Uiso   1.00
C21    C     0.57740   0.11090   0.69670   0.01267  Uiso   1.00
C22    C     0.56250   0.09090   0.76510   0.01267  Uiso   1.00
C23    C     0.70760   0.07620   0.88900   0.01267  Uiso   1.00
C24    C     0.77040   0.16020   0.60110   0.01267  Uiso   1.00
C25    C     0.73160   0.14260   0.31610   0.01267  Uiso   1.00
C26    C     0.91090   0.12010   0.29570   0.01267  Uiso   1.00
C27    C     0.92910   0.10480   0.22680   0.01267  Uiso   1.00
C28    C     0.76800   0.11200   0.17820   0.01267  Uiso   1.00
C29    C     0.58870   0.13450   0.19860   0.01267  Uiso   1.00
C30    C     0.57050   0.14980   0.26750   0.01267  Uiso   1.00
C31    C     0.71200   0.15900   0.39050   0.01267  Uiso   1.00
C32    C     0.28770   0.40440   0.10380   0.01267  Uiso   1.00
C33    C     0.22410   0.40170   0.81350   0.01267  Uiso   1.00
C34    C     0.40060   0.37440   0.79340   0.01267  Uiso   1.00
C35    C     0.41550   0.35440   0.72500   0.01267  Uiso   1.00
C36    C     0.25390   0.36180   0.67660   0.01267  Uiso   1.00
C37    C     0.07740   0.38910   0.69670   0.01267  Uiso   1.00
C38    C     0.06250   0.40910   0.76510   0.01267  Uiso   1.00
C39    C     0.20760   0.42380   0.88900   0.01267  Uiso   1.00
C40    C     0.27040   0.33980   0.60110   0.01267  Uiso   1.00
C41    C     0.23160   0.35740   0.31610   0.01267  Uiso   1.00
C42    C     0.41090   0.37990   0.29570   0.01267  Uiso   1.00
C43    C     0.42910   0.39520   0.22680   0.01267  Uiso   1.00
C44    C     0.26800   0.38800   0.17820   0.01267  Uiso   1.00
C45    C     0.08870   0.36550   0.19860   0.01267  Uiso   1.00
C46    C     0.07050   0.35020   0.26750   0.01267  Uiso   1.00
C47    C     0.21200   0.34100   0.39050   0.01267  Uiso   1.00
C48    C     0.78770   0.09560   0.10380   0.01267  Uiso   1.00
C49    C     0.27590   0.90170   0.18650   0.01267  Uiso   1.00
C50    C     0.09940   0.87440   0.20660   0.01267  Uiso   1.00
C51    C     0.08450   0.85440   0.27500   0.01267  Uiso   1.00
C52    C     0.24610   0.86180   0.32340   0.01267  Uiso   1.00
C53    C     0.42260   0.88910   0.30330   0.01267  Uiso   1.00
C54    C     0.43750   0.90910   0.23490   0.01267  Uiso   1.00
C55    C     0.29240   0.92380   0.11100   0.01267  Uiso   1.00
C56    C     0.22960   0.83980   0.39890   0.01267  Uiso   1.00
C57    C     0.26840   0.85740   0.68390   0.01267  Uiso   1.00
C58    C     0.08910   0.87990   0.70430   0.01267  Uiso   1.00
C59    C     0.07090   0.89520   0.77320   0.01267  Uiso   1.00
C60    C     0.23200   0.88800   0.82180   0.01267  Uiso   1.00
C61    C     0.41130   0.86550   0.80140   0.01267  Uiso   1.00
C62    C     0.42950   0.85020   0.73250   0.01267  Uiso   1.00
C63    C     0.28800   0.84100   0.60950   0.01267  Uiso   1.00
C64    C     0.71230   0.59560   0.89620   0.01267  Uiso   1.00
O1     O     0.27860   0.68840   0.50540   0.01267  Uiso   1.00
O2     O     0.74440   0.93340   0.99960   0.01267  Uiso   1.00
O3     O     0.64000   0.57740   0.06700   0.01267  Uiso   1.00
O4     O     0.95850   0.55660   0.09150   0.01267  Uiso   1.00
O5     O     0.56780   0.68830   0.41710   0.01267  Uiso   1.00
O6     O     0.37770   0.84940   0.44410   0.01267  Uiso   1.00
O7     O     0.63950   0.65070   0.56430   0.01267  Uiso   1.00
O8     O     0.45340   0.81850   0.59080   0.01267  Uiso   1.00
O9     O     0.04490   0.92230   0.91540   0.01267  Uiso   1.00
O10    O     0.36290   0.90070   0.94090   0.01267  Uiso   1.00
O11    O     0.22140   0.18840   0.49460   0.01267  Uiso   1.00
O12    O     0.75560   0.43340   0.00040   0.01267  Uiso   1.00
O13    O     0.86000   0.07740   0.93300   0.01267  Uiso   1.00
O14    O     0.54150   0.05660   0.90850   0.01267  Uiso   1.00
O15    O     0.93220   0.18830   0.58290   0.01267  Uiso   1.00
O16    O     0.12230   0.34940   0.55590   0.01267  Uiso   1.00
O17    O     0.86050   0.15070   0.43570   0.01267  Uiso   1.00
O18    O     0.04660   0.31850   0.40920   0.01267  Uiso   1.00
O19    O     0.45510   0.42230   0.08460   0.01267  Uiso   1.00
O20    O     0.13710   0.40070   0.05910   0.01267  Uiso   1.00
O21    O     0.72140   0.31160   0.49460   0.01267  Uiso   1.00
O22    O     0.25560   0.06660   0.00040   0.01267  Uiso   1.00
O23    O     0.36000   0.42260   0.93300   0.01267  Uiso   1.00
O24    O     0.04150   0.44340   0.90850   0.01267  Uiso   1.00
O25    O     0.43220   0.31170   0.58290   0.01267  Uiso   1.00
O26    O     0.62230   0.15060   0.55590   0.01267  Uiso   1.00
O27    O     0.36050   0.34930   0.43570   0.01267  Uiso   1.00
O28    O     0.54660   0.18150   0.40920   0.01267  Uiso   1.00
O29    O     0.95510   0.07770   0.08460   0.01267  Uiso   1.00
O30    O     0.63710   0.09930   0.05910   0.01267  Uiso   1.00
O31    O     0.77860   0.81160   0.50540   0.01267  Uiso   1.00
O32    O     0.24440   0.56660   0.99960   0.01267  Uiso   1.00
O33    O     0.14000   0.92260   0.06700   0.01267  Uiso   1.00
O34    O     0.45850   0.94340   0.09150   0.01267  Uiso   1.00
O35    O     0.06780   0.81170   0.41710   0.01267  Uiso   1.00
O36    O     0.87770   0.65060   0.44410   0.01267  Uiso   1.00
O37    O     0.13950   0.84930   0.56430   0.01267  Uiso   1.00
O38    O     0.95340   0.68150   0.59080   0.01267  Uiso   1.00
O39    O     0.54490   0.57770   0.91540   0.01267  Uiso   1.00
O40    O     0.86290   0.59930   0.94090   0.01267  Uiso   1.00
