data_POKGEC_clean
_audit_creation_date              2014-07-02
_audit_creation_method            'Materials Studio'
_symmetry_space_group_name_H-M    'P1'
_symmetry_Int_Tables_number       1
_symmetry_cell_setting            triclinic
loop_
_symmetry_equiv_pos_as_xyz
  x,y,z
_cell_length_a                    14.4962
_cell_length_b                    14.4962
_cell_length_c                    16.1140
_cell_angle_alpha                 91.0698
_cell_angle_beta                  91.0698
_cell_angle_gamma                 94.7637
loop_
_atom_site_label
_atom_site_type_symbol
_atom_site_fract_x
_atom_site_fract_y
_atom_site_fract_z
_atom_site_U_iso_or_equiv
_atom_site_adp_type
_atom_site_occupancy
Ni1    Ni    0.47969   0.18683   0.38572   0.01267  Uiso   1.00
Ni2    Ni    0.81317   0.52031   0.11428   0.01267  Uiso   1.00
Ni3    Ni    0.52031   0.81317   0.61428   0.01267  Uiso   1.00
Ni4    Ni    0.18683   0.47969   0.88572   0.01267  Uiso   1.00
Ni5    Ni    0.88340   0.11660   0.25000   0.01267  Uiso   1.00
Ni6    Ni    0.11660   0.88340   0.75000   0.01267  Uiso   1.00
H1     H     0.36940   0.03920   0.28470   0.01267  Uiso   1.00
H2     H     0.71980   0.99560   0.14370   0.01267  Uiso   1.00
H3     H     0.07220   0.26200   0.06790   0.01267  Uiso   1.00
H4     H     0.76120   0.26460   0.16850   0.01267  Uiso   1.00
H5     H     0.21480   0.16960   0.25950   0.01267  Uiso   1.00
H6     H     0.34530   0.33030   0.09080   0.01267  Uiso   1.00
H7     H     0.30170   0.61190   0.00560   0.01267  Uiso   1.00
H8     H     0.03250   0.59390   0.99250   0.01267  Uiso   1.00
H9     H     0.08070   0.71710   0.09420   0.01267  Uiso   1.00
H10    H     0.63580   0.03860   0.32340   0.01267  Uiso   1.00
H11    H     0.64320   0.94140   0.00530   0.01267  Uiso   1.00
H12    H     0.58600   0.89660   0.24440   0.01267  Uiso   1.00
H13    H     0.47610   0.13450   0.07210   0.01267  Uiso   1.00
H14    H     0.62530   0.23310   0.07680   0.01267  Uiso   1.00
H15    H     0.29560   0.96060   0.18330   0.01267  Uiso   1.00
H16    H     0.37170   0.66650   0.13820   0.01267  Uiso   1.00
H17    H     0.47060   0.77020   0.21400   0.01267  Uiso   1.00
H18    H     0.19560   0.85520   0.11000   0.01267  Uiso   1.00
H19    H     0.96080   0.63060   0.21530   0.01267  Uiso   1.00
H20    H     0.00440   0.28020   0.35630   0.01267  Uiso   1.00
H21    H     0.73800   0.92780   0.43210   0.01267  Uiso   1.00
H22    H     0.73540   0.23880   0.33150   0.01267  Uiso   1.00
H23    H     0.83040   0.78520   0.24050   0.01267  Uiso   1.00
H24    H     0.66970   0.65470   0.40920   0.01267  Uiso   1.00
H25    H     0.38810   0.69830   0.49440   0.01267  Uiso   1.00
H26    H     0.40610   0.96750   0.50750   0.01267  Uiso   1.00
H27    H     0.28290   0.91930   0.40580   0.01267  Uiso   1.00
H28    H     0.96140   0.36420   0.17660   0.01267  Uiso   1.00
H29    H     0.05860   0.35680   0.49470   0.01267  Uiso   1.00
H30    H     0.10340   0.41400   0.25560   0.01267  Uiso   1.00
H31    H     0.86550   0.52390   0.42790   0.01267  Uiso   1.00
H32    H     0.76690   0.37470   0.42320   0.01267  Uiso   1.00
H33    H     0.03940   0.70440   0.31670   0.01267  Uiso   1.00
H34    H     0.33350   0.62830   0.36180   0.01267  Uiso   1.00
H35    H     0.22980   0.52940   0.28600   0.01267  Uiso   1.00
H36    H     0.14480   0.80440   0.39000   0.01267  Uiso   1.00
H37    H     0.63060   0.96080   0.71530   0.01267  Uiso   1.00
H38    H     0.28020   0.00440   0.85630   0.01267  Uiso   1.00
H39    H     0.92780   0.73800   0.93210   0.01267  Uiso   1.00
H40    H     0.23880   0.73540   0.83150   0.01267  Uiso   1.00
H41    H     0.78520   0.83040   0.74050   0.01267  Uiso   1.00
H42    H     0.65470   0.66970   0.90920   0.01267  Uiso   1.00
H43    H     0.69830   0.38810   0.99440   0.01267  Uiso   1.00
H44    H     0.96750   0.40610   0.00750   0.01267  Uiso   1.00
H45    H     0.91930   0.28290   0.90580   0.01267  Uiso   1.00
H46    H     0.36420   0.96140   0.67660   0.01267  Uiso   1.00
H47    H     0.35680   0.05860   0.99470   0.01267  Uiso   1.00
H48    H     0.41400   0.10340   0.75560   0.01267  Uiso   1.00
H49    H     0.52390   0.86550   0.92790   0.01267  Uiso   1.00
H50    H     0.37470   0.76690   0.92320   0.01267  Uiso   1.00
H51    H     0.70440   0.03940   0.81670   0.01267  Uiso   1.00
H52    H     0.62830   0.33350   0.86180   0.01267  Uiso   1.00
H53    H     0.52940   0.22980   0.78600   0.01267  Uiso   1.00
H54    H     0.80440   0.14480   0.89000   0.01267  Uiso   1.00
H55    H     0.03920   0.36940   0.78470   0.01267  Uiso   1.00
H56    H     0.99560   0.71980   0.64370   0.01267  Uiso   1.00
H57    H     0.26200   0.07220   0.56790   0.01267  Uiso   1.00
H58    H     0.26460   0.76120   0.66850   0.01267  Uiso   1.00
H59    H     0.16960   0.21480   0.75950   0.01267  Uiso   1.00
H60    H     0.33030   0.34530   0.59080   0.01267  Uiso   1.00
H61    H     0.61190   0.30170   0.50560   0.01267  Uiso   1.00
H62    H     0.59390   0.03250   0.49250   0.01267  Uiso   1.00
H63    H     0.71710   0.08070   0.59420   0.01267  Uiso   1.00
H64    H     0.03860   0.63580   0.82340   0.01267  Uiso   1.00
H65    H     0.94140   0.64320   0.50530   0.01267  Uiso   1.00
H66    H     0.89660   0.58600   0.74440   0.01267  Uiso   1.00
H67    H     0.13450   0.47610   0.57210   0.01267  Uiso   1.00
H68    H     0.23310   0.62530   0.57680   0.01267  Uiso   1.00
H69    H     0.96060   0.29560   0.68330   0.01267  Uiso   1.00
H70    H     0.66650   0.37170   0.63820   0.01267  Uiso   1.00
H71    H     0.77020   0.47060   0.71400   0.01267  Uiso   1.00
H72    H     0.85520   0.19560   0.61000   0.01267  Uiso   1.00
C1     C     0.42970   0.02170   0.28450   0.01267  Uiso   1.00
C2     C     0.04100   0.16500   0.20130   0.01267  Uiso   1.00
C3     C     0.20270   0.36770   0.99540   0.01267  Uiso   1.00
C4     C     0.71290   0.05870   0.13950   0.01267  Uiso   1.00
C5     C     0.39300   0.87600   0.20420   0.01267  Uiso   1.00
C6     C     0.12770   0.25950   0.09730   0.01267  Uiso   1.00
C7     C     0.12960   0.20860   0.16860   0.01267  Uiso   1.00
C8     C     0.73500   0.20620   0.15240   0.01267  Uiso   1.00
C9     C     0.27480   0.75120   0.11640   0.01267  Uiso   1.00
C10    C     0.20770   0.30710   0.06860   0.01267  Uiso   1.00
C11    C     0.21300   0.20360   0.21120   0.01267  Uiso   1.00
C12    C     0.29310   0.24870   0.18260   0.01267  Uiso   1.00
C13    C     0.29110   0.30050   0.11060   0.01267  Uiso   1.00
C14    C     0.24030   0.62270   0.01480   0.01267  Uiso   1.00
C15    C     0.09330   0.61310   0.00770   0.01267  Uiso   1.00
C16    C     0.11930   0.68130   0.06430   0.01267  Uiso   1.00
C17    C     0.57140   0.04580   0.04680   0.01267  Uiso   1.00
C18    C     0.38270   0.24670   0.23170   0.01267  Uiso   1.00
C19    C     0.57550   0.02090   0.30540   0.01267  Uiso   1.00
C20    C     0.58550   0.96510   0.00330   0.01267  Uiso   1.00
C21    C     0.54870   0.94210   0.26190   0.01267  Uiso   1.00
C22    C     0.48590   0.08030   0.04310   0.01267  Uiso   1.00
C23    C     0.65990   0.18930   0.10140   0.01267  Uiso   1.00
C24    C     0.31180   0.90060   0.17430   0.01267  Uiso   1.00
C25    C     0.35560   0.72660   0.14730   0.01267  Uiso   1.00
C26    C     0.41530   0.78870   0.19220   0.01267  Uiso   1.00
C27    C     0.25180   0.83740   0.13010   0.01267  Uiso   1.00
C28    C     0.97830   0.57030   0.21550   0.01267  Uiso   1.00
C29    C     0.83500   0.95900   0.29870   0.01267  Uiso   1.00
C30    C     0.63230   0.79730   0.50460   0.01267  Uiso   1.00
C31    C     0.94130   0.28710   0.36050   0.01267  Uiso   1.00
C32    C     0.12400   0.60700   0.29580   0.01267  Uiso   1.00
C33    C     0.74050   0.87230   0.40270   0.01267  Uiso   1.00
C34    C     0.79140   0.87040   0.33140   0.01267  Uiso   1.00
C35    C     0.79380   0.26500   0.34760   0.01267  Uiso   1.00
C36    C     0.24880   0.72520   0.38360   0.01267  Uiso   1.00
C37    C     0.69290   0.79230   0.43140   0.01267  Uiso   1.00
C38    C     0.79640   0.78700   0.28880   0.01267  Uiso   1.00
C39    C     0.75130   0.70690   0.31740   0.01267  Uiso   1.00
C40    C     0.69950   0.70890   0.38940   0.01267  Uiso   1.00
C41    C     0.37730   0.75970   0.48520   0.01267  Uiso   1.00
C42    C     0.38690   0.90670   0.49230   0.01267  Uiso   1.00
C43    C     0.31870   0.88070   0.43570   0.01267  Uiso   1.00
C44    C     0.95420   0.42860   0.45320   0.01267  Uiso   1.00
C45    C     0.75330   0.61730   0.26830   0.01267  Uiso   1.00
C46    C     0.97910   0.42450   0.19460   0.01267  Uiso   1.00
C47    C     0.03490   0.41450   0.49670   0.01267  Uiso   1.00
C48    C     0.05790   0.45130   0.23810   0.01267  Uiso   1.00
C49    C     0.91970   0.51410   0.45690   0.01267  Uiso   1.00
C50    C     0.81070   0.34010   0.39860   0.01267  Uiso   1.00
C51    C     0.09940   0.68820   0.32570   0.01267  Uiso   1.00
C52    C     0.27340   0.64440   0.35270   0.01267  Uiso   1.00
C53    C     0.21130   0.58470   0.30780   0.01267  Uiso   1.00
C54    C     0.16260   0.74820   0.36990   0.01267  Uiso   1.00
C55    C     0.57030   0.97830   0.71550   0.01267  Uiso   1.00
C56    C     0.95900   0.83500   0.79870   0.01267  Uiso   1.00
C57    C     0.79730   0.63230   0.00460   0.01267  Uiso   1.00
C58    C     0.28710   0.94130   0.86050   0.01267  Uiso   1.00
C59    C     0.60700   0.12400   0.79580   0.01267  Uiso   1.00
C60    C     0.87230   0.74050   0.90270   0.01267  Uiso   1.00
C61    C     0.87040   0.79140   0.83140   0.01267  Uiso   1.00
C62    C     0.26500   0.79380   0.84760   0.01267  Uiso   1.00
C63    C     0.72520   0.24880   0.88360   0.01267  Uiso   1.00
C64    C     0.79230   0.69290   0.93140   0.01267  Uiso   1.00
C65    C     0.78700   0.79640   0.78880   0.01267  Uiso   1.00
C66    C     0.70690   0.75130   0.81740   0.01267  Uiso   1.00
C67    C     0.70890   0.69950   0.88940   0.01267  Uiso   1.00
C68    C     0.75970   0.37730   0.98520   0.01267  Uiso   1.00
C69    C     0.90670   0.38690   0.99230   0.01267  Uiso   1.00
C70    C     0.88070   0.31870   0.93570   0.01267  Uiso   1.00
C71    C     0.42860   0.95420   0.95320   0.01267  Uiso   1.00
C72    C     0.61730   0.75330   0.76830   0.01267  Uiso   1.00
C73    C     0.42450   0.97910   0.69460   0.01267  Uiso   1.00
C74    C     0.41450   0.03490   0.99670   0.01267  Uiso   1.00
C75    C     0.45130   0.05790   0.73810   0.01267  Uiso   1.00
C76    C     0.51410   0.91970   0.95690   0.01267  Uiso   1.00
C77    C     0.34010   0.81070   0.89860   0.01267  Uiso   1.00
C78    C     0.68820   0.09940   0.82570   0.01267  Uiso   1.00
C79    C     0.64440   0.27340   0.85270   0.01267  Uiso   1.00
C80    C     0.58470   0.21130   0.80780   0.01267  Uiso   1.00
C81    C     0.74820   0.16260   0.86990   0.01267  Uiso   1.00
C82    C     0.02170   0.42970   0.78450   0.01267  Uiso   1.00
C83    C     0.16500   0.04100   0.70130   0.01267  Uiso   1.00
C84    C     0.36770   0.20270   0.49540   0.01267  Uiso   1.00
C85    C     0.05870   0.71290   0.63950   0.01267  Uiso   1.00
C86    C     0.87600   0.39300   0.70420   0.01267  Uiso   1.00
C87    C     0.25950   0.12770   0.59730   0.01267  Uiso   1.00
C88    C     0.20860   0.12960   0.66860   0.01267  Uiso   1.00
C89    C     0.20620   0.73500   0.65240   0.01267  Uiso   1.00
C90    C     0.75120   0.27480   0.61640   0.01267  Uiso   1.00
C91    C     0.30710   0.20770   0.56860   0.01267  Uiso   1.00
C92    C     0.20360   0.21300   0.71120   0.01267  Uiso   1.00
C93    C     0.24870   0.29310   0.68260   0.01267  Uiso   1.00
C94    C     0.30050   0.29110   0.61060   0.01267  Uiso   1.00
C95    C     0.62270   0.24030   0.51480   0.01267  Uiso   1.00
C96    C     0.61310   0.09330   0.50770   0.01267  Uiso   1.00
C97    C     0.68130   0.11930   0.56430   0.01267  Uiso   1.00
C98    C     0.04580   0.57140   0.54680   0.01267  Uiso   1.00
C99    C     0.24670   0.38270   0.73170   0.01267  Uiso   1.00
C100   C     0.02090   0.57550   0.80540   0.01267  Uiso   1.00
C101   C     0.96510   0.58550   0.50330   0.01267  Uiso   1.00
C102   C     0.94210   0.54870   0.76190   0.01267  Uiso   1.00
C103   C     0.08030   0.48590   0.54310   0.01267  Uiso   1.00
C104   C     0.18930   0.65990   0.60140   0.01267  Uiso   1.00
C105   C     0.90060   0.31180   0.67430   0.01267  Uiso   1.00
C106   C     0.72660   0.35560   0.64730   0.01267  Uiso   1.00
C107   C     0.78870   0.41530   0.69220   0.01267  Uiso   1.00
C108   C     0.83740   0.25180   0.63010   0.01267  Uiso   1.00
N1     N     0.76690   0.12370   0.17690   0.01267  Uiso   1.00
N2     N     0.64530   0.09470   0.09340   0.01267  Uiso   1.00
N3     N     0.16970   0.57730   0.97650   0.01267  Uiso   1.00
N4     N     0.21420   0.68660   0.06860   0.01267  Uiso   1.00
N5     N     0.50150   0.07030   0.31870   0.01267  Uiso   1.00
N6     N     0.45500   0.94300   0.24910   0.01267  Uiso   1.00
N7     N     0.87630   0.23310   0.32310   0.01267  Uiso   1.00
N8     N     0.90530   0.35470   0.40660   0.01267  Uiso   1.00
N9     N     0.42270   0.83030   0.52350   0.01267  Uiso   1.00
N10    N     0.31340   0.78580   0.43140   0.01267  Uiso   1.00
N11    N     0.92970   0.49850   0.18130   0.01267  Uiso   1.00
N12    N     0.05700   0.54500   0.25090   0.01267  Uiso   1.00
N13    N     0.23310   0.87630   0.82310   0.01267  Uiso   1.00
N14    N     0.35470   0.90530   0.90660   0.01267  Uiso   1.00
N15    N     0.83030   0.42270   0.02350   0.01267  Uiso   1.00
N16    N     0.78580   0.31340   0.93140   0.01267  Uiso   1.00
N17    N     0.49850   0.92970   0.68130   0.01267  Uiso   1.00
N18    N     0.54500   0.05700   0.75090   0.01267  Uiso   1.00
N19    N     0.12370   0.76690   0.67690   0.01267  Uiso   1.00
N20    N     0.09470   0.64530   0.59340   0.01267  Uiso   1.00
N21    N     0.57730   0.16970   0.47650   0.01267  Uiso   1.00
N22    N     0.68660   0.21420   0.56860   0.01267  Uiso   1.00
N23    N     0.07030   0.50150   0.81870   0.01267  Uiso   1.00
N24    N     0.94300   0.45500   0.74910   0.01267  Uiso   1.00
O1     O     0.96673   0.17203   0.16020   0.01267  Uiso   1.00
O2     O     0.03804   0.12590   0.27040   0.01267  Uiso   1.00
O3     O     0.12664   0.37432   0.95940   0.01267  Uiso   1.00
O4     O     0.27476   0.41578   0.97220   0.01267  Uiso   1.00
O5     O     0.45710   0.27610   0.19870   0.01267  Uiso   1.00
O6     O     0.37731   0.21399   0.30230   0.01267  Uiso   1.00
O7     O     0.82797   0.03327   0.33980   0.01267  Uiso   1.00
O8     O     0.87410   0.96196   0.22960   0.01267  Uiso   1.00
O9     O     0.62568   0.87336   0.54060   0.01267  Uiso   1.00
O10    O     0.58422   0.72524   0.52780   0.01267  Uiso   1.00
O11    O     0.72390   0.54290   0.30130   0.01267  Uiso   1.00
O12    O     0.78601   0.62269   0.19770   0.01267  Uiso   1.00
O13    O     0.03327   0.82797   0.83980   0.01267  Uiso   1.00
O14    O     0.96196   0.87410   0.72960   0.01267  Uiso   1.00
O15    O     0.87336   0.62568   0.04060   0.01267  Uiso   1.00
O16    O     0.72524   0.58422   0.02780   0.01267  Uiso   1.00
O17    O     0.54290   0.72390   0.80130   0.01267  Uiso   1.00
O18    O     0.62269   0.78601   0.69770   0.01267  Uiso   1.00
O19    O     0.17203   0.96673   0.66020   0.01267  Uiso   1.00
O20    O     0.12590   0.03804   0.77040   0.01267  Uiso   1.00
O21    O     0.37432   0.12664   0.45940   0.01267  Uiso   1.00
O22    O     0.41578   0.27476   0.47220   0.01267  Uiso   1.00
O23    O     0.27610   0.45710   0.69870   0.01267  Uiso   1.00
O24    O     0.21399   0.37731   0.80230   0.01267  Uiso   1.00
