data_POKSAL_clean
_audit_creation_date              2015-10-16
_audit_creation_method            'Materials Studio'
_symmetry_space_group_name_H-M    'P1'
_symmetry_Int_Tables_number       1
_symmetry_cell_setting            triclinic
loop_
_symmetry_equiv_pos_as_xyz
  x,y,z
_cell_length_a                    6.0214
_cell_length_b                    12.3151
_cell_length_c                    23.5920
_cell_angle_alpha                 90.0000
_cell_angle_beta                  90.0000
_cell_angle_gamma                 94.0130
loop_
_atom_site_label
_atom_site_type_symbol
_atom_site_fract_x
_atom_site_fract_y
_atom_site_fract_z
_atom_site_U_iso_or_equiv
_atom_site_adp_type
_atom_site_occupancy
Yb1    Yb    0.48785   0.39021   0.32782   0.01267  Uiso   1.00
Yb2    Yb    0.01215   0.10979   0.82782   0.01267  Uiso   1.00
Yb3    Yb    0.51215   0.60979   0.67218   0.01267  Uiso   1.00
Yb4    Yb    0.98785   0.89021   0.17218   0.01267  Uiso   1.00
Cu1    Cu    0.00000   0.00000   0.50000   0.01267  Uiso   1.00
Cu2    Cu    0.50000   0.50000   0.00000   0.01267  Uiso   1.00
H1     H     0.03300   0.77440   0.66440   0.01267  Uiso   1.00
H2     H     0.53300   0.27440   0.83560   0.01267  Uiso   1.00
H3     H     0.67630   0.64120   0.89520   0.01267  Uiso   1.00
H4     H     0.17630   0.14120   0.60480   0.01267  Uiso   1.00
H5     H     0.82370   0.85880   0.39520   0.01267  Uiso   1.00
H6     H     0.39000   0.42150   0.79260   0.01267  Uiso   1.00
H7     H     0.45060   0.12120   0.67150   0.01267  Uiso   1.00
H8     H     0.89000   0.92150   0.70740   0.01267  Uiso   1.00
H9     H     0.11000   0.07850   0.29260   0.01267  Uiso   1.00
H10    H     0.95060   0.62120   0.82850   0.01267  Uiso   1.00
H11    H     0.46700   0.72560   0.16440   0.01267  Uiso   1.00
H12    H     0.61000   0.57850   0.20740   0.01267  Uiso   1.00
H13    H     0.96700   0.22560   0.33560   0.01267  Uiso   1.00
H14    H     0.54940   0.87880   0.32850   0.01267  Uiso   1.00
H15    H     0.32370   0.35880   0.10480   0.01267  Uiso   1.00
H16    H     0.04940   0.37880   0.17150   0.01267  Uiso   1.00
C1     C     0.23360   0.41690   0.10190   0.01267  Uiso   1.00
C2     C     0.86710   0.42920   0.94420   0.01267  Uiso   1.00
C3     C     0.88910   0.19080   0.30600   0.01267  Uiso   1.00
C4     C     0.60360   0.76860   0.77830   0.01267  Uiso   1.00
C5     C     0.46560   0.08160   0.40430   0.01267  Uiso   1.00
C6     C     0.53440   0.91840   0.59570   0.01267  Uiso   1.00
C7     C     0.03440   0.41840   0.90430   0.01267  Uiso   1.00
C8     C     0.06820   0.42900   0.14210   0.01267  Uiso   1.00
C9     C     0.80110   0.66870   0.09190   0.01267  Uiso   1.00
C10    C     0.41450   0.82710   0.75250   0.01267  Uiso   1.00
C11    C     0.38910   0.69080   0.19400   0.01267  Uiso   1.00
C12    C     0.61090   0.30920   0.80600   0.01267  Uiso   1.00
C13    C     0.10360   0.26860   0.72170   0.01267  Uiso   1.00
C14    C     0.93180   0.57100   0.85790   0.01267  Uiso   1.00
C15    C     0.96560   0.58160   0.09570   0.01267  Uiso   1.00
C16    C     0.15270   0.57310   0.27030   0.01267  Uiso   1.00
C17    C     0.81560   0.35350   0.99270   0.01267  Uiso   1.00
C18    C     0.52910   0.40060   0.78150   0.01267  Uiso   1.00
C19    C     0.89640   0.73140   0.27830   0.01267  Uiso   1.00
C20    C     0.63290   0.07080   0.44420   0.01267  Uiso   1.00
C21    C     0.47090   0.59940   0.21850   0.01267  Uiso   1.00
C22    C     0.36710   0.92920   0.55580   0.01267  Uiso   1.00
C23    C     0.91450   0.32710   0.74750   0.01267  Uiso   1.00
C24    C     0.97090   0.09940   0.28150   0.01267  Uiso   1.00
C25    C     0.68440   0.14650   0.49270   0.01267  Uiso   1.00
C26    C     0.69890   0.83130   0.59190   0.01267  Uiso   1.00
C27    C     0.08550   0.67290   0.25250   0.01267  Uiso   1.00
C28    C     0.48640   0.01140   0.80351   0.01267  Uiso   1.00
C29    C     0.56820   0.92900   0.35790   0.01267  Uiso   1.00
C30    C     0.73360   0.91690   0.39810   0.01267  Uiso   1.00
C31    C     0.98640   0.51140   0.69649   0.01267  Uiso   1.00
C32    C     0.30110   0.16870   0.40810   0.01267  Uiso   1.00
C33    C     0.11090   0.80920   0.69400   0.01267  Uiso   1.00
C34    C     0.51360   0.98860   0.19649   0.01267  Uiso   1.00
C35    C     0.31560   0.85350   0.50730   0.01267  Uiso   1.00
C36    C     0.01360   0.48860   0.30351   0.01267  Uiso   1.00
C37    C     0.19890   0.33130   0.90810   0.01267  Uiso   1.00
C38    C     0.65270   0.07310   0.22970   0.01267  Uiso   1.00
C39    C     0.02910   0.90060   0.71850   0.01267  Uiso   1.00
C40    C     0.84730   0.42690   0.72970   0.01267  Uiso   1.00
C41    C     0.58550   0.17290   0.24750   0.01267  Uiso   1.00
C42    C     0.43180   0.07100   0.64210   0.01267  Uiso   1.00
C43    C     0.13290   0.57080   0.05580   0.01267  Uiso   1.00
C44    C     0.26640   0.08310   0.60190   0.01267  Uiso   1.00
C45    C     0.76640   0.58310   0.89810   0.01267  Uiso   1.00
C46    C     0.39640   0.23140   0.22170   0.01267  Uiso   1.00
C47    C     0.18440   0.64650   0.00730   0.01267  Uiso   1.00
C48    C     0.34730   0.92690   0.77030   0.01267  Uiso   1.00
N1     N     0.93480   0.51240   0.13935   0.01267  Uiso   1.00
N2     N     0.85550   0.04040   0.24251   0.01267  Uiso   1.00
N3     N     0.73530   0.51340   0.94069   0.01267  Uiso   1.00
N4     N     0.64450   0.45960   0.74251   0.01267  Uiso   1.00
N5     N     0.69920   0.22990   0.28774   0.01267  Uiso   1.00
N6     N     0.14450   0.95960   0.75749   0.01267  Uiso   1.00
N7     N     0.06520   0.48760   0.86065   0.01267  Uiso   1.00
N8     N     0.76470   0.98660   0.44069   0.01267  Uiso   1.00
N9     N     0.26470   0.48660   0.05931   0.01267  Uiso   1.00
N10    N     0.43480   0.01240   0.36065   0.01267  Uiso   1.00
N11    N     0.35550   0.54040   0.25749   0.01267  Uiso   1.00
N12    N     0.80080   0.27010   0.78774   0.01267  Uiso   1.00
N13    N     0.19920   0.72990   0.21226   0.01267  Uiso   1.00
N14    N     0.30080   0.77010   0.71226   0.01267  Uiso   1.00
N15    N     0.23530   0.01340   0.55931   0.01267  Uiso   1.00
N16    N     0.56520   0.98760   0.63935   0.01267  Uiso   1.00
O1     O     0.11570   0.43060   0.33704   0.01267  Uiso   1.00
O2     O     0.33670   0.25140   0.37600   0.01267  Uiso   1.00
O3     O     0.80760   0.47770   0.29358   0.01267  Uiso   1.00
O4     O     0.17280   0.29660   0.67479   0.01267  Uiso   1.00
O5     O     0.66830   0.68990   0.74956   0.01267  Uiso   1.00
O6     O     0.83670   0.75140   0.12400   0.01267  Uiso   1.00
O7     O     0.83170   0.81010   0.24956   0.01267  Uiso   1.00
O8     O     0.14030   0.15270   0.43974   0.01267  Uiso   1.00
O9     O     0.32720   0.20340   0.17479   0.01267  Uiso   1.00
O10    O     0.90490   0.26740   0.99517   0.01267  Uiso   1.00
O11    O     0.09510   0.73260   0.00483   0.01267  Uiso   1.00
O12    O     0.67750   0.38600   0.02945   0.01267  Uiso   1.00
O13    O     0.35970   0.34730   0.93974   0.01267  Uiso   1.00
O14    O     0.16830   0.18990   0.75044   0.01267  Uiso   1.00
O15    O     0.17750   0.88600   0.47055   0.01267  Uiso   1.00
O16    O     0.61570   0.93060   0.16296   0.01267  Uiso   1.00
O17    O     0.40490   0.76740   0.50483   0.01267  Uiso   1.00
O18    O     0.88430   0.56940   0.66296   0.01267  Uiso   1.00
O19    O     0.64030   0.65270   0.06026   0.01267  Uiso   1.00
O20    O     0.19240   0.52230   0.70642   0.01267  Uiso   1.00
O21    O     0.82720   0.70340   0.32521   0.01267  Uiso   1.00
O22    O     0.59510   0.23260   0.49517   0.01267  Uiso   1.00
O23    O     0.30760   0.97770   0.20642   0.01267  Uiso   1.00
O24    O     0.85970   0.84730   0.56026   0.01267  Uiso   1.00
O25    O     0.67280   0.79660   0.82521   0.01267  Uiso   1.00
O26    O     0.82250   0.11400   0.52945   0.01267  Uiso   1.00
O27    O     0.69240   0.02230   0.79358   0.01267  Uiso   1.00
O28    O     0.32250   0.61400   0.97055   0.01267  Uiso   1.00
O29    O     0.66330   0.74860   0.62400   0.01267  Uiso   1.00
O30    O     0.38430   0.06940   0.83704   0.01267  Uiso   1.00
O31    O     0.16330   0.24860   0.87600   0.01267  Uiso   1.00
O32    O     0.33170   0.31010   0.25044   0.01267  Uiso   1.00
