data_POKSOZ_clean
_audit_creation_date              2015-10-16
_audit_creation_method            'Materials Studio'
_symmetry_space_group_name_H-M    'P1'
_symmetry_Int_Tables_number       1
_symmetry_cell_setting            triclinic
loop_
_symmetry_equiv_pos_as_xyz
  x,y,z
_cell_length_a                    6.1156
_cell_length_b                    12.4190
_cell_length_c                    23.4260
_cell_angle_alpha                 90.0000
_cell_angle_beta                  90.0000
_cell_angle_gamma                 94.4286
loop_
_atom_site_label
_atom_site_type_symbol
_atom_site_fract_x
_atom_site_fract_y
_atom_site_fract_z
_atom_site_U_iso_or_equiv
_atom_site_adp_type
_atom_site_occupancy
Tb1    Tb    0.99199   0.89141   0.33273   0.01267  Uiso   1.00
Tb2    Tb    0.00801   0.10859   0.66727   0.01267  Uiso   1.00
Tb3    Tb    0.50801   0.60859   0.83273   0.01267  Uiso   1.00
Tb4    Tb    0.49199   0.39141   0.16727   0.01267  Uiso   1.00
Cu1    Cu    0.00000   0.00000   0.00000   0.01267  Uiso   1.00
Cu2    Cu    0.50000   0.50000   0.50000   0.01267  Uiso   1.00
H1     H     0.82890   0.85680   0.10420   0.01267  Uiso   1.00
H2     H     0.44330   0.12900   0.82920   0.01267  Uiso   1.00
H3     H     0.02750   0.77510   0.83700   0.01267  Uiso   1.00
H4     H     0.52750   0.27510   0.66300   0.01267  Uiso   1.00
H5     H     0.10930   0.07660   0.20630   0.01267  Uiso   1.00
H6     H     0.32890   0.35680   0.39580   0.01267  Uiso   1.00
H7     H     0.55670   0.87100   0.17080   0.01267  Uiso   1.00
H8     H     0.60930   0.57660   0.29370   0.01267  Uiso   1.00
H9     H     0.89070   0.92340   0.79370   0.01267  Uiso   1.00
H10    H     0.94330   0.62900   0.67080   0.01267  Uiso   1.00
H11    H     0.97250   0.22490   0.16300   0.01267  Uiso   1.00
H12    H     0.47250   0.72490   0.33700   0.01267  Uiso   1.00
H13    H     0.05670   0.37100   0.32920   0.01267  Uiso   1.00
H14    H     0.17110   0.14320   0.89580   0.01267  Uiso   1.00
H15    H     0.39070   0.42340   0.70630   0.01267  Uiso   1.00
H16    H     0.67110   0.64320   0.60420   0.01267  Uiso   1.00
C1     C     0.36450   0.93530   0.94330   0.01267  Uiso   1.00
C2     C     0.51900   0.99110   0.30400   0.01267  Uiso   1.00
C3     C     0.63550   0.06470   0.05670   0.01267  Uiso   1.00
C4     C     0.31780   0.85900   0.99210   0.01267  Uiso   1.00
C5     C     0.96890   0.57260   0.40330   0.01267  Uiso   1.00
C6     C     0.58580   0.76790   0.72150   0.01267  Uiso   1.00
C7     C     0.60450   0.30950   0.69290   0.01267  Uiso   1.00
C8     C     0.30790   0.15790   0.09500   0.01267  Uiso   1.00
C9     C     0.42670   0.07810   0.85840   0.01267  Uiso   1.00
C10    C     0.89550   0.19050   0.19290   0.01267  Uiso   1.00
C11    C     0.52680   0.40190   0.71730   0.01267  Uiso   1.00
C12    C     0.13550   0.56470   0.44330   0.01267  Uiso   1.00
C13    C     0.73760   0.91310   0.10140   0.01267  Uiso   1.00
C14    C     0.41420   0.23210   0.27850   0.01267  Uiso   1.00
C15    C     0.65950   0.07360   0.27010   0.01267  Uiso   1.00
C16    C     0.18220   0.64100   0.49210   0.01267  Uiso   1.00
C17    C     0.98100   0.50890   0.80400   0.01267  Uiso   1.00
C18    C     0.68220   0.14100   0.00790   0.01267  Uiso   1.00
C19    C     0.97320   0.09810   0.21730   0.01267  Uiso   1.00
C20    C     0.48100   0.00890   0.69600   0.01267  Uiso   1.00
C21    C     0.02680   0.90190   0.78270   0.01267  Uiso   1.00
C22    C     0.07330   0.42190   0.35840   0.01267  Uiso   1.00
C23    C     0.23760   0.41310   0.39860   0.01267  Uiso   1.00
C24    C     0.86450   0.43530   0.55670   0.01267  Uiso   1.00
C25    C     0.84050   0.42640   0.77010   0.01267  Uiso   1.00
C26    C     0.34050   0.92640   0.72990   0.01267  Uiso   1.00
C27    C     0.92670   0.57810   0.64160   0.01267  Uiso   1.00
C28    C     0.57330   0.92190   0.14160   0.01267  Uiso   1.00
C29    C     0.09730   0.67260   0.24790   0.01267  Uiso   1.00
C30    C     0.80790   0.65790   0.40500   0.01267  Uiso   1.00
C31    C     0.10450   0.80950   0.80710   0.01267  Uiso   1.00
C32    C     0.08580   0.26790   0.77850   0.01267  Uiso   1.00
C33    C     0.26240   0.08690   0.89860   0.01267  Uiso   1.00
C34    C     0.81780   0.35900   0.50790   0.01267  Uiso   1.00
C35    C     0.47320   0.59810   0.28270   0.01267  Uiso   1.00
C36    C     0.19210   0.34210   0.59500   0.01267  Uiso   1.00
C37    C     0.90270   0.32740   0.75210   0.01267  Uiso   1.00
C38    C     0.59730   0.17260   0.25210   0.01267  Uiso   1.00
C39    C     0.40270   0.82740   0.74790   0.01267  Uiso   1.00
C40    C     0.69210   0.84210   0.90500   0.01267  Uiso   1.00
C41    C     0.03110   0.42740   0.59670   0.01267  Uiso   1.00
C42    C     0.53110   0.92740   0.90330   0.01267  Uiso   1.00
C43    C     0.01900   0.49110   0.19600   0.01267  Uiso   1.00
C44    C     0.39550   0.69050   0.30710   0.01267  Uiso   1.00
C45    C     0.46890   0.07260   0.09670   0.01267  Uiso   1.00
C46    C     0.15950   0.57360   0.22990   0.01267  Uiso   1.00
C47    C     0.91420   0.73210   0.22150   0.01267  Uiso   1.00
C48    C     0.76240   0.58690   0.60140   0.01267  Uiso   1.00
N1     N     0.23350   0.01690   0.94070   0.01267  Uiso   1.00
N2     N     0.64410   0.46000   0.75600   0.01267  Uiso   1.00
N3     N     0.85590   0.04000   0.25600   0.01267  Uiso   1.00
N4     N     0.76650   0.98310   0.05930   0.01267  Uiso   1.00
N5     N     0.14410   0.96000   0.74400   0.01267  Uiso   1.00
N6     N     0.93950   0.50070   0.36030   0.01267  Uiso   1.00
N7     N     0.71370   0.22980   0.21180   0.01267  Uiso   1.00
N8     N     0.28630   0.77020   0.78820   0.01267  Uiso   1.00
N9     N     0.35590   0.54000   0.24400   0.01267  Uiso   1.00
N10    N     0.21370   0.72980   0.28820   0.01267  Uiso   1.00
N11    N     0.56050   0.99930   0.86030   0.01267  Uiso   1.00
N12    N     0.73350   0.51690   0.55930   0.01267  Uiso   1.00
N13    N     0.26650   0.48310   0.44070   0.01267  Uiso   1.00
N14    N     0.78630   0.27020   0.71180   0.01267  Uiso   1.00
N15    N     0.06050   0.49930   0.63970   0.01267  Uiso   1.00
N16    N     0.43950   0.00070   0.13970   0.01267  Uiso   1.00
O1     O     0.64760   0.64410   0.43620   0.01267  Uiso   1.00
O2     O     0.14760   0.14410   0.06380   0.01267  Uiso   1.00
O3     O     0.17420   0.88630   0.02757   0.01267  Uiso   1.00
O4     O     0.58780   0.22420   0.00450   0.01267  Uiso   1.00
O5     O     0.91220   0.27580   0.50450   0.01267  Uiso   1.00
O6     O     0.08780   0.72420   0.49550   0.01267  Uiso   1.00
O7     O     0.32580   0.61370   0.52757   0.01267  Uiso   1.00
O8     O     0.68140   0.01950   0.70581   0.01267  Uiso   1.00
O9     O     0.62160   0.93380   0.33777   0.01267  Uiso   1.00
O10    O     0.85240   0.85590   0.93620   0.01267  Uiso   1.00
O11    O     0.82580   0.11370   0.97243   0.01267  Uiso   1.00
O12    O     0.67420   0.38630   0.47243   0.01267  Uiso   1.00
O13    O     0.12160   0.43380   0.16223   0.01267  Uiso   1.00
O14    O     0.34560   0.23560   0.12810   0.01267  Uiso   1.00
O15    O     0.15440   0.26440   0.62810   0.01267  Uiso   1.00
O16    O     0.15390   0.19190   0.74980   0.01267  Uiso   1.00
O17    O     0.81860   0.48050   0.20581   0.01267  Uiso   1.00
O18    O     0.34610   0.30810   0.24980   0.01267  Uiso   1.00
O19    O     0.84610   0.80810   0.25020   0.01267  Uiso   1.00
O20    O     0.65390   0.69190   0.75020   0.01267  Uiso   1.00
O21    O     0.64490   0.79450   0.67281   0.01267  Uiso   1.00
O22    O     0.65440   0.76440   0.87190   0.01267  Uiso   1.00
O23    O     0.35510   0.20550   0.32719   0.01267  Uiso   1.00
O24    O     0.85510   0.70550   0.17281   0.01267  Uiso   1.00
O25    O     0.18140   0.51950   0.79419   0.01267  Uiso   1.00
O26    O     0.41220   0.77580   0.99550   0.01267  Uiso   1.00
O27    O     0.14490   0.29450   0.82719   0.01267  Uiso   1.00
O28    O     0.84560   0.73560   0.37190   0.01267  Uiso   1.00
O29    O     0.35240   0.35590   0.56380   0.01267  Uiso   1.00
O30    O     0.37840   0.06620   0.66223   0.01267  Uiso   1.00
O31    O     0.31860   0.98050   0.29419   0.01267  Uiso   1.00
O32    O     0.87840   0.56620   0.83777   0.01267  Uiso   1.00
