data_POKSUF_clean
_audit_creation_date              2015-10-16
_audit_creation_method            'Materials Studio'
_symmetry_space_group_name_H-M    'P1'
_symmetry_Int_Tables_number       1
_symmetry_cell_setting            triclinic
loop_
_symmetry_equiv_pos_as_xyz
  x,y,z
_cell_length_a                    6.1069
_cell_length_b                    12.1412
_cell_length_c                    22.6025
_cell_angle_alpha                 90.0000
_cell_angle_beta                  90.0000
_cell_angle_gamma                 90.5705
loop_
_atom_site_label
_atom_site_type_symbol
_atom_site_fract_x
_atom_site_fract_y
_atom_site_fract_z
_atom_site_U_iso_or_equiv
_atom_site_adp_type
_atom_site_occupancy
Sm1    Sm    0.45418   0.94305   0.85090   0.01267  Uiso   1.00
Sm2    Sm    0.95418   0.44305   0.64910   0.01267  Uiso   1.00
Sm3    Sm    0.04582   0.55695   0.35090   0.01267  Uiso   1.00
Sm4    Sm    0.54582   0.05695   0.14910   0.01267  Uiso   1.00
Cu1    Cu    0.50000   0.00000   0.50000   0.01267  Uiso   1.00
Cu2    Cu    0.00000   0.50000   0.00000   0.01267  Uiso   1.00
H1     H     0.67030   0.10930   0.38310   0.01267  Uiso   1.00
H2     H     0.06390   0.25000   0.15800   0.01267  Uiso   1.00
H3     H     0.03880   0.92330   0.67820   0.01267  Uiso   1.00
H4     H     0.53880   0.42330   0.82180   0.01267  Uiso   1.00
H5     H     0.46120   0.57670   0.17820   0.01267  Uiso   1.00
H6     H     0.32970   0.89070   0.61690   0.01267  Uiso   1.00
H7     H     0.42620   0.89240   0.28730   0.01267  Uiso   1.00
H8     H     0.82970   0.39070   0.88310   0.01267  Uiso   1.00
H9     H     0.96120   0.07670   0.32180   0.01267  Uiso   1.00
H10    H     0.56390   0.75000   0.34200   0.01267  Uiso   1.00
H11    H     0.17030   0.60930   0.11690   0.01267  Uiso   1.00
H12    H     0.92620   0.39240   0.21270   0.01267  Uiso   1.00
H13    H     0.07380   0.60760   0.78730   0.01267  Uiso   1.00
H14    H     0.43610   0.25000   0.65800   0.01267  Uiso   1.00
H15    H     0.93610   0.75000   0.84200   0.01267  Uiso   1.00
H16    H     0.57380   0.10760   0.71270   0.01267  Uiso   1.00
C1     C     0.54080   0.71540   0.75581   0.01267  Uiso   1.00
C2     C     0.76660   0.05280   0.39196   0.01267  Uiso   1.00
C3     C     0.45920   0.28460   0.24419   0.01267  Uiso   1.00
C4     C     0.34010   0.77790   0.73634   0.01267  Uiso   1.00
C5     C     0.28050   0.69770   0.92278   0.01267  Uiso   1.00
C6     C     0.84010   0.27790   0.76366   0.01267  Uiso   1.00
C7     C     0.06630   0.36710   0.22086   0.01267  Uiso   1.00
C8     C     0.12340   0.09100   0.54855   0.01267  Uiso   1.00
C9     C     0.54680   0.38930   0.08708   0.01267  Uiso   1.00
C10    C     0.52530   0.45640   0.31188   0.01267  Uiso   1.00
C11    C     0.37660   0.40900   0.04855   0.01267  Uiso   1.00
C12    C     0.64580   0.77870   0.31080   0.01267  Uiso   1.00
C13    C     0.61130   0.61840   0.72843   0.01267  Uiso   1.00
C14    C     0.93370   0.63290   0.77914   0.01267  Uiso   1.00
C15    C     0.55950   0.46810   0.85470   0.01267  Uiso   1.00
C16    C     0.44050   0.53190   0.14530   0.01267  Uiso   1.00
C17    C     0.05950   0.96810   0.64530   0.01267  Uiso   1.00
C18    C     0.23340   0.94720   0.60804   0.01267  Uiso   1.00
C19    C     0.11130   0.11840   0.77157   0.01267  Uiso   1.00
C20    C     0.65990   0.22210   0.26366   0.01267  Uiso   1.00
C21    C     0.95920   0.78460   0.25581   0.01267  Uiso   1.00
C22    C     0.87660   0.90900   0.45145   0.01267  Uiso   1.00
C23    C     0.04080   0.21540   0.74419   0.01267  Uiso   1.00
C24    C     0.97470   0.04360   0.81188   0.01267  Uiso   1.00
C25    C     0.15990   0.72210   0.23634   0.01267  Uiso   1.00
C26    C     0.17360   0.15390   0.49217   0.01267  Uiso   1.00
C27    C     0.71950   0.30230   0.07722   0.01267  Uiso   1.00
C28    C     0.78050   0.19770   0.57722   0.01267  Uiso   1.00
C29    C     0.47470   0.54360   0.68812   0.01267  Uiso   1.00
C30    C     0.94050   0.03190   0.35470   0.01267  Uiso   1.00
C31    C     0.45320   0.61070   0.91292   0.01267  Uiso   1.00
C32    C     0.26660   0.55280   0.10804   0.01267  Uiso   1.00
C33    C     0.35420   0.22130   0.68920   0.01267  Uiso   1.00
C34    C     0.21950   0.80230   0.42278   0.01267  Uiso   1.00
C35    C     0.85420   0.72130   0.81080   0.01267  Uiso   1.00
C36    C     0.32640   0.34610   0.99217   0.01267  Uiso   1.00
C37    C     0.82640   0.84610   0.50783   0.01267  Uiso   1.00
C38    C     0.04680   0.88930   0.41292   0.01267  Uiso   1.00
C39    C     0.62340   0.59100   0.95145   0.01267  Uiso   1.00
C40    C     0.95320   0.11070   0.58708   0.01267  Uiso   1.00
C41    C     0.38870   0.38160   0.27157   0.01267  Uiso   1.00
C42    C     0.43370   0.13290   0.72086   0.01267  Uiso   1.00
C43    C     0.56630   0.86710   0.27914   0.01267  Uiso   1.00
C44    C     0.14580   0.27870   0.18920   0.01267  Uiso   1.00
C45    C     0.02530   0.95640   0.18812   0.01267  Uiso   1.00
C46    C     0.88870   0.88160   0.22843   0.01267  Uiso   1.00
C47    C     0.67360   0.65390   0.00783   0.01267  Uiso   1.00
C48    C     0.73340   0.44720   0.89196   0.01267  Uiso   1.00
N1     N     0.76400   0.50740   0.94030   0.01267  Uiso   1.00
N2     N     0.33850   0.23360   0.20272   0.01267  Uiso   1.00
N3     N     0.26400   0.00740   0.55970   0.01267  Uiso   1.00
N4     N     0.81590   0.58290   0.73738   0.01267  Uiso   1.00
N5     N     0.23600   0.49260   0.05970   0.01267  Uiso   1.00
N6     N     0.91990   0.05050   0.63583   0.01267  Uiso   1.00
N7     N     0.83850   0.73360   0.29728   0.01267  Uiso   1.00
N8     N     0.73600   0.99260   0.44030   0.01267  Uiso   1.00
N9     N     0.68410   0.91710   0.23738   0.01267  Uiso   1.00
N10    N     0.41990   0.55050   0.86417   0.01267  Uiso   1.00
N11    N     0.66150   0.76640   0.79728   0.01267  Uiso   1.00
N12    N     0.31590   0.08290   0.76262   0.01267  Uiso   1.00
N13    N     0.18410   0.41710   0.26262   0.01267  Uiso   1.00
N14    N     0.16150   0.26640   0.70272   0.01267  Uiso   1.00
N15    N     0.08010   0.94950   0.36417   0.01267  Uiso   1.00
N16    N     0.58010   0.44950   0.13583   0.01267  Uiso   1.00
O1     O     0.28279   0.52079   0.70120   0.01267  Uiso   1.00
O2     O     0.62530   0.17090   0.54473   0.01267  Uiso   1.00
O3     O     0.72110   0.14630   0.22985   0.01267  Uiso   1.00
O4     O     0.71721   0.47921   0.29880   0.01267  Uiso   1.00
O5     O     0.80040   0.28580   0.60505   0.01267  Uiso   1.00
O6     O     0.74060   0.24630   0.31225   0.01267  Uiso   1.00
O7     O     0.57280   0.73980   0.01751   0.01267  Uiso   1.00
O8     O     0.77890   0.35370   0.72985   0.01267  Uiso   1.00
O9     O     0.42720   0.26020   0.98249   0.01267  Uiso   1.00
O10    O     0.37470   0.82910   0.45527   0.01267  Uiso   1.00
O11    O     0.30040   0.78580   0.89495   0.01267  Uiso   1.00
O12    O     0.24060   0.74630   0.18775   0.01267  Uiso   1.00
O13    O     0.25940   0.75370   0.68775   0.01267  Uiso   1.00
O14    O     0.69960   0.21420   0.10505   0.01267  Uiso   1.00
O15    O     0.19960   0.71420   0.39495   0.01267  Uiso   1.00
O16    O     0.75940   0.25370   0.81225   0.01267  Uiso   1.00
O17    O     0.18260   0.38930   0.95909   0.01267  Uiso   1.00
O18    O     0.12530   0.67090   0.95527   0.01267  Uiso   1.00
O19    O     0.31740   0.11070   0.45909   0.01267  Uiso   1.00
O20    O     0.87470   0.32910   0.04473   0.01267  Uiso   1.00
O21    O     0.07280   0.23980   0.48249   0.01267  Uiso   1.00
O22    O     0.92090   0.99640   0.14486   0.01267  Uiso   1.00
O23    O     0.92720   0.76020   0.51751   0.01267  Uiso   1.00
O24    O     0.07910   0.00360   0.85514   0.01267  Uiso   1.00
O25    O     0.81740   0.61070   0.04091   0.01267  Uiso   1.00
O26    O     0.68260   0.88930   0.54091   0.01267  Uiso   1.00
O27    O     0.78279   0.02079   0.79880   0.01267  Uiso   1.00
O28    O     0.21721   0.97921   0.20120   0.01267  Uiso   1.00
O29    O     0.57910   0.50360   0.64486   0.01267  Uiso   1.00
O30    O     0.42090   0.49640   0.35514   0.01267  Uiso   1.00
O31    O     0.22110   0.64630   0.27015   0.01267  Uiso   1.00
O32    O     0.27890   0.85370   0.77015   0.01267  Uiso   1.00
