data_POKTEQ_clean
_audit_creation_date              2015-10-16
_audit_creation_method            'Materials Studio'
_symmetry_space_group_name_H-M    'P1'
_symmetry_Int_Tables_number       1
_symmetry_cell_setting            triclinic
loop_
_symmetry_equiv_pos_as_xyz
  x,y,z
_cell_length_a                    6.1280
_cell_length_b                    12.1930
_cell_length_c                    22.6750
_cell_angle_alpha                 90.0000
_cell_angle_beta                  90.0000
_cell_angle_gamma                 89.6830
loop_
_atom_site_label
_atom_site_type_symbol
_atom_site_fract_x
_atom_site_fract_y
_atom_site_fract_z
_atom_site_U_iso_or_equiv
_atom_site_adp_type
_atom_site_occupancy
Nd1    Nd    0.04396   0.44335   0.35130   0.01267  Uiso   1.00
Nd2    Nd    0.95604   0.55665   0.64870   0.01267  Uiso   1.00
Nd3    Nd    0.45604   0.05665   0.85130   0.01267  Uiso   1.00
Nd4    Nd    0.54396   0.94335   0.14870   0.01267  Uiso   1.00
Cu1    Cu    0.50000   0.00000   0.50000   0.01267  Uiso   1.00
Cu2    Cu   -0.00000   0.50000   0.00000   0.01267  Uiso   1.00
H1     H     0.32920   0.10890   0.61700   0.01267  Uiso   1.00
H2     H     0.07040   0.39570   0.78930   0.01267  Uiso   1.00
H3     H     0.42960   0.10430   0.28930   0.01267  Uiso   1.00
H4     H     0.05840   0.75690   0.16170   0.01267  Uiso   1.00
H5     H     0.45470   0.42590   0.17860   0.01267  Uiso   1.00
H6     H     0.54530   0.57410   0.82140   0.01267  Uiso   1.00
H7     H     0.17080   0.39110   0.11700   0.01267  Uiso   1.00
H8     H     0.67080   0.89110   0.38300   0.01267  Uiso   1.00
H9     H     0.94160   0.24310   0.83830   0.01267  Uiso   1.00
H10    H     0.82920   0.60890   0.88300   0.01267  Uiso   1.00
H11    H     0.55840   0.25690   0.33830   0.01267  Uiso   1.00
H12    H     0.95470   0.92590   0.32140   0.01267  Uiso   1.00
H13    H     0.57040   0.89570   0.71070   0.01267  Uiso   1.00
H14    H     0.44160   0.74310   0.66170   0.01267  Uiso   1.00
H15    H     0.04530   0.07410   0.67860   0.01267  Uiso   1.00
H16    H     0.92960   0.60430   0.21070   0.01267  Uiso   1.00
C1     C     0.06430   0.03070   0.64530   0.01267  Uiso   1.00
C2     C     0.84040   0.72360   0.76330   0.01267  Uiso   1.00
C3     C     0.78240   0.80280   0.57620   0.01267  Uiso   1.00
C4     C     0.06720   0.63120   0.21990   0.01267  Uiso   1.00
C5     C     0.52240   0.54570   0.31270   0.01267  Uiso   1.00
C6     C     0.21760   0.19720   0.42380   0.01267  Uiso   1.00
C7     C     0.88340   0.12010   0.22630   0.01267  Uiso   1.00
C8     C     0.47760   0.45430   0.68730   0.01267  Uiso   1.00
C9     C     0.04650   0.11030   0.41270   0.01267  Uiso   1.00
C10    C     0.11660   0.87990   0.77370   0.01267  Uiso   1.00
C11    C     0.71760   0.69720   0.07620   0.01267  Uiso   1.00
C12    C     0.28240   0.30280   0.92380   0.01267  Uiso   1.00
C13    C     0.02240   0.04570   0.18730   0.01267  Uiso   1.00
C14    C     0.43570   0.46930   0.14530   0.01267  Uiso   1.00
C15    C     0.76590   0.94810   0.39160   0.01267  Uiso   1.00
C16    C     0.54650   0.61030   0.08730   0.01267  Uiso   1.00
C17    C     0.38340   0.62010   0.27370   0.01267  Uiso   1.00
C18    C     0.56720   0.13120   0.28010   0.01267  Uiso   1.00
C19    C     0.45350   0.38970   0.91270   0.01267  Uiso   1.00
C20    C     0.34040   0.22360   0.73670   0.01267  Uiso   1.00
C21    C     0.15960   0.27640   0.23670   0.01267  Uiso   1.00
C22    C     0.95350   0.88970   0.58730   0.01267  Uiso   1.00
C23    C     0.23410   0.05190   0.60840   0.01267  Uiso   1.00
C24    C     0.96070   0.21390   0.25580   0.01267  Uiso   1.00
C25    C     0.97760   0.95430   0.81270   0.01267  Uiso   1.00
C26    C     0.53930   0.28610   0.75580   0.01267  Uiso   1.00
C27    C     0.93280   0.36880   0.78010   0.01267  Uiso   1.00
C28    C     0.46070   0.71390   0.24420   0.01267  Uiso   1.00
C29    C     0.43280   0.86880   0.71990   0.01267  Uiso   1.00
C30    C     0.14480   0.72370   0.19040   0.01267  Uiso   1.00
C31    C     0.93570   0.96930   0.35470   0.01267  Uiso   1.00
C32    C     0.73410   0.55190   0.89160   0.01267  Uiso   1.00
C33    C     0.82370   0.15130   0.50800   0.01267  Uiso   1.00
C34    C     0.85520   0.27630   0.80960   0.01267  Uiso   1.00
C35    C     0.32370   0.65130   0.99200   0.01267  Uiso   1.00
C36    C     0.12680   0.91000   0.54880   0.01267  Uiso   1.00
C37    C     0.56430   0.53070   0.85470   0.01267  Uiso   1.00
C38    C     0.26590   0.44810   0.10840   0.01267  Uiso   1.00
C39    C     0.35520   0.77630   0.69040   0.01267  Uiso   1.00
C40    C     0.37320   0.59000   0.04880   0.01267  Uiso   1.00
C41    C     0.03930   0.78610   0.74420   0.01267  Uiso   1.00
C42    C     0.87320   0.09000   0.45120   0.01267  Uiso   1.00
C43    C     0.17630   0.84870   0.49200   0.01267  Uiso   1.00
C44    C     0.64480   0.22370   0.30960   0.01267  Uiso   1.00
C45    C     0.67630   0.34870   0.00800   0.01267  Uiso   1.00
C46    C     0.65960   0.77640   0.26330   0.01267  Uiso   1.00
C47    C     0.62680   0.41000   0.95120   0.01267  Uiso   1.00
C48    C     0.61660   0.37990   0.72630   0.01267  Uiso   1.00
N1     N     0.81450   0.41850   0.73940   0.01267  Uiso   1.00
N2     N     0.31450   0.91850   0.76060   0.01267  Uiso   1.00
N3     N     0.73460   0.00820   0.43970   0.01267  Uiso   1.00
N4     N     0.66050   0.23500   0.79750   0.01267  Uiso   1.00
N5     N     0.76540   0.49180   0.93970   0.01267  Uiso   1.00
N6     N     0.26540   0.99180   0.56030   0.01267  Uiso   1.00
N7     N     0.92160   0.94910   0.63500   0.01267  Uiso   1.00
N8     N     0.57840   0.55090   0.13500   0.01267  Uiso   1.00
N9     N     0.07840   0.05090   0.36500   0.01267  Uiso   1.00
N10    N     0.23460   0.50820   0.06030   0.01267  Uiso   1.00
N11    N     0.33950   0.76500   0.20250   0.01267  Uiso   1.00
N12    N     0.68550   0.08150   0.23940   0.01267  Uiso   1.00
N13    N     0.83950   0.26500   0.29750   0.01267  Uiso   1.00
N14    N     0.42160   0.44910   0.86500   0.01267  Uiso   1.00
N15    N     0.16050   0.73500   0.70250   0.01267  Uiso   1.00
N16    N     0.18550   0.58150   0.26060   0.01267  Uiso   1.00
O1     O     0.71520   0.52160   0.29860   0.01267  Uiso   1.00
O2     O     0.69890   0.78500   0.10440   0.01267  Uiso   1.00
O3     O     0.72190   0.85260   0.23000   0.01267  Uiso   1.00
O4     O     0.31790   0.89160   0.45920   0.01267  Uiso   1.00
O5     O     0.68210   0.10840   0.54080   0.01267  Uiso   1.00
O6     O     0.81790   0.39160   0.04080   0.01267  Uiso   1.00
O7     O     0.19890   0.28500   0.39560   0.01267  Uiso   1.00
O8     O     0.73920   0.75270   0.31170   0.01267  Uiso   1.00
O9     O     0.77810   0.64740   0.73000   0.01267  Uiso   1.00
O10    O     0.07790   0.99510   0.85500   0.01267  Uiso   1.00
O11    O     0.37530   0.17040   0.45540   0.01267  Uiso   1.00
O12    O     0.92210   0.00490   0.14500   0.01267  Uiso   1.00
O13    O     0.12470   0.32960   0.95540   0.01267  Uiso   1.00
O14    O     0.23920   0.25270   0.18830   0.01267  Uiso   1.00
O15    O     0.57790   0.49510   0.64500   0.01267  Uiso   1.00
O16    O     0.21520   0.02160   0.20140   0.01267  Uiso   1.00
O17    O     0.18210   0.60840   0.95920   0.01267  Uiso   1.00
O18    O     0.42210   0.50490   0.35500   0.01267  Uiso   1.00
O19    O     0.42940   0.73540   0.98150   0.01267  Uiso   1.00
O20    O     0.30110   0.21500   0.89560   0.01267  Uiso   1.00
O21    O     0.07060   0.76460   0.48150   0.01267  Uiso   1.00
O22    O     0.62470   0.82960   0.54460   0.01267  Uiso   1.00
O23    O     0.28480   0.47840   0.70140   0.01267  Uiso   1.00
O24    O     0.22190   0.35260   0.27000   0.01267  Uiso   1.00
O25    O     0.80110   0.71500   0.60440   0.01267  Uiso   1.00
O26    O     0.78480   0.97840   0.79860   0.01267  Uiso   1.00
O27    O     0.27810   0.14740   0.77000   0.01267  Uiso   1.00
O28    O     0.87530   0.67040   0.04460   0.01267  Uiso   1.00
O29    O     0.26080   0.24730   0.68830   0.01267  Uiso   1.00
O30    O     0.57060   0.26460   0.01850   0.01267  Uiso   1.00
O31    O     0.76080   0.74730   0.81170   0.01267  Uiso   1.00
O32    O     0.92940   0.23540   0.51850   0.01267  Uiso   1.00
