data_POKVOC_clean
_audit_creation_date              2015-10-16
_audit_creation_method            'Materials Studio'
_symmetry_space_group_name_H-M    'P1'
_symmetry_Int_Tables_number       1
_symmetry_cell_setting            triclinic
loop_
_symmetry_equiv_pos_as_xyz
  x,y,z
_cell_length_a                    6.0991
_cell_length_b                    12.4168
_cell_length_c                    23.4690
_cell_angle_alpha                 90.0000
_cell_angle_beta                  90.0000
_cell_angle_gamma                 94.4906
loop_
_atom_site_label
_atom_site_type_symbol
_atom_site_fract_x
_atom_site_fract_y
_atom_site_fract_z
_atom_site_U_iso_or_equiv
_atom_site_adp_type
_atom_site_occupancy
Dy1    Dy    0.50801   0.60885   0.66825   0.01267  Uiso   1.00
Dy2    Dy    0.49199   0.39115   0.33175   0.01267  Uiso   1.00
Dy3    Dy    0.99199   0.89115   0.16825   0.01267  Uiso   1.00
Dy4    Dy    0.00801   0.10885   0.83175   0.01267  Uiso   1.00
Cu1    Cu    0.00000   0.00000   0.50000   0.01267  Uiso   1.00
Cu2    Cu    0.50000   0.50000   0.00000   0.01267  Uiso   1.00
H1     H     0.38930   0.42200   0.79380   0.01267  Uiso   1.00
H2     H     0.02680   0.77580   0.66280   0.01267  Uiso   1.00
H3     H     0.47320   0.72420   0.16280   0.01267  Uiso   1.00
H4     H     0.50520   0.37420   0.61700   0.01267  Uiso   1.00
H5     H     0.82780   0.85680   0.39510   0.01267  Uiso   1.00
H6     H     0.99480   0.12580   0.11700   0.01267  Uiso   1.00
H7     H     0.05460   0.37140   0.17020   0.01267  Uiso   1.00
H8     H     0.97320   0.22420   0.33720   0.01267  Uiso   1.00
H9     H     0.52680   0.27580   0.83720   0.01267  Uiso   1.00
H10    H     0.32780   0.35680   0.10490   0.01267  Uiso   1.00
H11    H     0.17220   0.14320   0.60490   0.01267  Uiso   1.00
H12    H     0.00520   0.87420   0.88300   0.01267  Uiso   1.00
H13    H     0.97300   0.01800   0.10460   0.01267  Uiso   1.00
H14    H     0.88930   0.92200   0.70620   0.01267  Uiso   1.00
H15    H     0.49480   0.62580   0.38300   0.01267  Uiso   1.00
H16    H     0.55460   0.87140   0.32980   0.01267  Uiso   1.00
H17    H     0.02700   0.98200   0.89540   0.01267  Uiso   1.00
H18    H     0.52700   0.48200   0.60460   0.01267  Uiso   1.00
H19    H     0.61070   0.57800   0.20620   0.01267  Uiso   1.00
H20    H     0.44540   0.12860   0.67020   0.01267  Uiso   1.00
H21    H     0.11070   0.07800   0.29380   0.01267  Uiso   1.00
H22    H     0.94540   0.62860   0.82980   0.01267  Uiso   1.00
H23    H     0.47300   0.51800   0.39540   0.01267  Uiso   1.00
H24    H     0.67220   0.64320   0.89510   0.01267  Uiso   1.00
C1     C     0.81680   0.35710   0.99230   0.01267  Uiso   1.00
C2     C     0.92690   0.57740   0.85860   0.01267  Uiso   1.00
C3     C     0.57310   0.92260   0.35860   0.01267  Uiso   1.00
C4     C     0.01850   0.49000   0.30410   0.01267  Uiso   1.00
C5     C     0.30650   0.16000   0.40580   0.01267  Uiso   1.00
C6     C     0.03220   0.42610   0.90340   0.01267  Uiso   1.00
C7     C     0.60400   0.30990   0.80730   0.01267  Uiso   1.00
C8     C     0.36550   0.93430   0.55660   0.01267  Uiso   1.00
C9     C     0.69350   0.84000   0.59420   0.01267  Uiso   1.00
C10    C     0.63450   0.06570   0.44340   0.01267  Uiso   1.00
C11    C     0.68320   0.14290   0.49230   0.01267  Uiso   1.00
C12    C     0.89600   0.19010   0.30730   0.01267  Uiso   1.00
C13    C     0.90390   0.32670   0.74796   0.01267  Uiso   1.00
C14    C     0.48150   0.01000   0.80410   0.01267  Uiso   1.00
C15    C     0.08830   0.26810   0.72160   0.01267  Uiso   1.00
C16    C     0.18320   0.64290   0.00770   0.01267  Uiso   1.00
C17    C     0.41170   0.23190   0.22160   0.01267  Uiso   1.00
C18    C     0.39600   0.69010   0.19270   0.01267  Uiso   1.00
C19    C     0.07310   0.42260   0.14140   0.01267  Uiso   1.00
C20    C     0.84110   0.42680   0.72989   0.01267  Uiso   1.00
C21    C     0.59610   0.17330   0.24796   0.01267  Uiso   1.00
C22    C     0.40390   0.82670   0.75204   0.01267  Uiso   1.00
C23    C     0.73690   0.91330   0.39800   0.01267  Uiso   1.00
C24    C     0.91170   0.73190   0.27840   0.01267  Uiso   1.00
C25    C     0.58830   0.76810   0.77840   0.01267  Uiso   1.00
C26    C     0.65890   0.07320   0.22989   0.01267  Uiso   1.00
C27    C     0.15890   0.57320   0.27011   0.01267  Uiso   1.00
C28    C     0.76310   0.58670   0.89800   0.01267  Uiso   1.00
C29    C     0.02640   0.90120   0.71710   0.01267  Uiso   1.00
C30    C     0.34110   0.92680   0.77011   0.01267  Uiso   1.00
C31    C     0.23690   0.41330   0.10200   0.01267  Uiso   1.00
C32    C     0.98150   0.51000   0.69590   0.01267  Uiso   1.00
C33    C     0.26310   0.08670   0.60200   0.01267  Uiso   1.00
C34    C     0.31680   0.85710   0.50770   0.01267  Uiso   1.00
C35    C     0.46780   0.07390   0.40340   0.01267  Uiso   1.00
C36    C     0.10400   0.80990   0.69270   0.01267  Uiso   1.00
C37    C     0.80650   0.66000   0.09420   0.01267  Uiso   1.00
C38    C     0.96780   0.57390   0.09660   0.01267  Uiso   1.00
C39    C     0.97360   0.09880   0.28290   0.01267  Uiso   1.00
C40    C     0.09610   0.67330   0.25204   0.01267  Uiso   1.00
C41    C     0.53220   0.92610   0.59660   0.01267  Uiso   1.00
C42    C     0.47360   0.59880   0.21710   0.01267  Uiso   1.00
C43    C     0.19350   0.34000   0.90580   0.01267  Uiso   1.00
C44    C     0.42690   0.07740   0.64140   0.01267  Uiso   1.00
C45    C     0.52640   0.40120   0.78290   0.01267  Uiso   1.00
C46    C     0.86550   0.43430   0.94340   0.01267  Uiso   1.00
C47    C     0.13450   0.56570   0.05660   0.01267  Uiso   1.00
C48    C     0.51850   0.99000   0.19590   0.01267  Uiso   1.00
N1     N     0.64240   0.46010   0.74411   0.01267  Uiso   1.00
N2     N     0.26710   0.48430   0.05978   0.01267  Uiso   1.00
N3     N     0.71120   0.23010   0.28837   0.01267  Uiso   1.00
N4     N     0.85760   0.03990   0.24411   0.01267  Uiso   1.00
N5     N     0.43840   0.00330   0.36039   0.01267  Uiso   1.00
N6     N     0.21120   0.73010   0.21163   0.01267  Uiso   1.00
N7     N     0.73290   0.51570   0.94022   0.01267  Uiso   1.00
N8     N     0.28880   0.76990   0.71163   0.01267  Uiso   1.00
N9     N     0.56160   0.99670   0.63961   0.01267  Uiso   1.00
N10    N     0.06160   0.49670   0.86039   0.01267  Uiso   1.00
N11    N     0.76710   0.98430   0.44022   0.01267  Uiso   1.00
N12    N     0.35760   0.53990   0.25589   0.01267  Uiso   1.00
N13    N     0.23290   0.01570   0.55978   0.01267  Uiso   1.00
N14    N     0.14240   0.96010   0.75589   0.01267  Uiso   1.00
N15    N     0.93840   0.50330   0.13961   0.01267  Uiso   1.00
N16    N     0.78880   0.26990   0.78837   0.01267  Uiso   1.00
O1     O     0.82500   0.11420   0.52821   0.01267  Uiso   1.00
O2     O     0.34610   0.30850   0.25006   0.01267  Uiso   1.00
O3     O     0.35330   0.35500   0.93672   0.01267  Uiso   1.00
O4     O     0.34510   0.23860   0.37234   0.01267  Uiso   1.00
O5     O     0.64670   0.64500   0.06328   0.01267  Uiso   1.00
O6     O     0.68260   0.02050   0.79394   0.01267  Uiso   1.00
O7     O     0.14890   0.29490   0.67273   0.01267  Uiso   1.00
O8     O     0.96990   0.93520   0.87391   0.01267  Uiso   1.00
O9     O     0.37880   0.06680   0.83800   0.01267  Uiso   1.00
O10    O     0.65390   0.69150   0.74994   0.01267  Uiso   1.00
O11    O     0.84510   0.73860   0.12766   0.01267  Uiso   1.00
O12    O     0.31740   0.97950   0.20606   0.01267  Uiso   1.00
O13    O     0.65490   0.76140   0.62766   0.01267  Uiso   1.00
O14    O     0.41120   0.77380   0.50451   0.01267  Uiso   1.00
O15    O     0.84610   0.80850   0.24994   0.01267  Uiso   1.00
O16    O     0.91120   0.27380   0.99549   0.01267  Uiso   1.00
O17    O     0.85110   0.70510   0.32727   0.01267  Uiso   1.00
O18    O     0.17500   0.88580   0.47179   0.01267  Uiso   1.00
O19    O     0.53010   0.56480   0.37391   0.01267  Uiso   1.00
O20    O     0.03010   0.06480   0.12609   0.01267  Uiso   1.00
O21    O     0.85330   0.85500   0.56328   0.01267  Uiso   1.00
O22    O     0.15390   0.19150   0.75006   0.01267  Uiso   1.00
O23    O     0.64890   0.79490   0.82727   0.01267  Uiso   1.00
O24    O     0.15490   0.26140   0.87234   0.01267  Uiso   1.00
O25    O     0.87880   0.56680   0.66200   0.01267  Uiso   1.00
O26    O     0.18260   0.52050   0.70606   0.01267  Uiso   1.00
O27    O     0.67500   0.38580   0.02821   0.01267  Uiso   1.00
O28    O     0.12120   0.43320   0.33800   0.01267  Uiso   1.00
O29    O     0.32500   0.61420   0.97179   0.01267  Uiso   1.00
O30    O     0.81740   0.47950   0.29394   0.01267  Uiso   1.00
O31    O     0.14670   0.14500   0.43672   0.01267  Uiso   1.00
O32    O     0.46990   0.43520   0.62609   0.01267  Uiso   1.00
O33    O     0.08880   0.72620   0.00451   0.01267  Uiso   1.00
O34    O     0.58880   0.22620   0.49549   0.01267  Uiso   1.00
O35    O     0.35110   0.20510   0.17273   0.01267  Uiso   1.00
O36    O     0.62120   0.93320   0.16200   0.01267  Uiso   1.00
