data_POKVAO_clean
_audit_creation_date              2015-10-16
_audit_creation_method            'Materials Studio'
_symmetry_space_group_name_H-M    'P1'
_symmetry_Int_Tables_number       1
_symmetry_cell_setting            triclinic
loop_
_symmetry_equiv_pos_as_xyz
  x,y,z
_cell_length_a                    6.0407
_cell_length_b                    12.3297
_cell_length_c                    23.5800
_cell_angle_alpha                 90.0000
_cell_angle_beta                  90.0000
_cell_angle_gamma                 94.0532
loop_
_atom_site_label
_atom_site_type_symbol
_atom_site_fract_x
_atom_site_fract_y
_atom_site_fract_z
_atom_site_U_iso_or_equiv
_atom_site_adp_type
_atom_site_occupancy
Gd1    Gd    0.01157   0.10983   0.32861   0.01267  Uiso   1.00
Gd2    Gd    0.48843   0.39017   0.82861   0.01267  Uiso   1.00
Gd3    Gd    0.51157   0.60983   0.17139   0.01267  Uiso   1.00
Gd4    Gd    0.98843   0.89017   0.67139   0.01267  Uiso   1.00
Cu1    Cu    0.00000   0.00000   0.00000   0.01267  Uiso   1.00
Cu2    Cu    0.50000   0.50000   0.50000   0.01267  Uiso   1.00
H1     H     0.32200   0.35680   0.60390   0.01267  Uiso   1.00
H2     H     0.54670   0.87490   0.82980   0.01267  Uiso   1.00
H3     H     0.04670   0.37490   0.67020   0.01267  Uiso   1.00
H4     H     0.45330   0.12510   0.17020   0.01267  Uiso   1.00
H5     H     0.17800   0.14320   0.10390   0.01267  Uiso   1.00
H6     H     0.95330   0.62510   0.32980   0.01267  Uiso   1.00
H7     H     0.46820   0.72590   0.66420   0.01267  Uiso   1.00
H8     H     0.67800   0.64320   0.39610   0.01267  Uiso   1.00
H9     H     0.89190   0.92490   0.20760   0.01267  Uiso   1.00
H10    H     0.82200   0.85680   0.89610   0.01267  Uiso   1.00
H11    H     0.53180   0.27410   0.33580   0.01267  Uiso   1.00
H12    H     0.03180   0.77410   0.16420   0.01267  Uiso   1.00
H13    H     0.60810   0.57510   0.70760   0.01267  Uiso   1.00
H14    H     0.39190   0.42490   0.29240   0.01267  Uiso   1.00
H15    H     0.10810   0.07510   0.79240   0.01267  Uiso   1.00
H16    H     0.96820   0.22590   0.83580   0.01267  Uiso   1.00
C1     C     0.69920   0.83340   0.09290   0.01267  Uiso   1.00
C2     C     0.43350   0.07370   0.14150   0.01267  Uiso   1.00
C3     C     0.56650   0.92630   0.85850   0.01267  Uiso   1.00
C4     C     0.63220   0.06880   0.94420   0.01267  Uiso   1.00
C5     C     0.26720   0.08490   0.10140   0.01267  Uiso   1.00
C6     C     0.96550   0.57960   0.59570   0.01267  Uiso   1.00
C7     C     0.98480   0.51070   0.19690   0.01267  Uiso   1.00
C8     C     0.80080   0.66660   0.59290   0.01267  Uiso   1.00
C9     C     0.58640   0.17210   0.74770   0.01267  Uiso   1.00
C10    C     0.46550   0.07960   0.90430   0.01267  Uiso   1.00
C11    C     0.30080   0.16660   0.90710   0.01267  Uiso   1.00
C12    C     0.76720   0.58490   0.39860   0.01267  Uiso   1.00
C13    C     0.88970   0.19090   0.80630   0.01267  Uiso   1.00
C14    C     0.73280   0.91510   0.89860   0.01267  Uiso   1.00
C15    C     0.10060   0.26840   0.22200   0.01267  Uiso   1.00
C16    C     0.65570   0.07220   0.72970   0.01267  Uiso   1.00
C17    C     0.89940   0.73160   0.77800   0.01267  Uiso   1.00
C18    C     0.13220   0.56880   0.55580   0.01267  Uiso   1.00
C19    C     0.52940   0.40270   0.28140   0.01267  Uiso   1.00
C20    C     0.18340   0.64510   0.50800   0.01267  Uiso   1.00
C21    C     0.15570   0.57220   0.77030   0.01267  Uiso   1.00
C22    C     0.47060   0.59730   0.71860   0.01267  Uiso   1.00
C23    C     0.60060   0.76840   0.27800   0.01267  Uiso   1.00
C24    C     0.03450   0.42040   0.40430   0.01267  Uiso   1.00
C25    C     0.01520   0.48930   0.80310   0.01267  Uiso   1.00
C26    C     0.38970   0.69090   0.69370   0.01267  Uiso   1.00
C27    C     0.68340   0.14510   0.99200   0.01267  Uiso   1.00
C28    C     0.51520   0.98930   0.69690   0.01267  Uiso   1.00
C29    C     0.34430   0.92780   0.27030   0.01267  Uiso   1.00
C30    C     0.19920   0.33340   0.40710   0.01267  Uiso   1.00
C31    C     0.61030   0.30910   0.30630   0.01267  Uiso   1.00
C32    C     0.31660   0.85490   0.00800   0.01267  Uiso   1.00
C33    C     0.06650   0.42630   0.64150   0.01267  Uiso   1.00
C34    C     0.02940   0.90270   0.21860   0.01267  Uiso   1.00
C35    C     0.97060   0.09730   0.78140   0.01267  Uiso   1.00
C36    C     0.36780   0.93120   0.05580   0.01267  Uiso   1.00
C37    C     0.23280   0.41510   0.60140   0.01267  Uiso   1.00
C38    C     0.08640   0.67210   0.75230   0.01267  Uiso   1.00
C39    C     0.11030   0.80910   0.19370   0.01267  Uiso   1.00
C40    C     0.91360   0.32790   0.24770   0.01267  Uiso   1.00
C41    C     0.86780   0.43120   0.44420   0.01267  Uiso   1.00
C42    C     0.93350   0.57370   0.35850   0.01267  Uiso   1.00
C43    C     0.81660   0.35490   0.49200   0.01267  Uiso   1.00
C44    C     0.53450   0.92040   0.09570   0.01267  Uiso   1.00
C45    C     0.48480   0.01070   0.30310   0.01267  Uiso   1.00
C46    C     0.39940   0.23160   0.72200   0.01267  Uiso   1.00
C47    C     0.41360   0.82790   0.25230   0.01267  Uiso   1.00
C48    C     0.84430   0.42780   0.22970   0.01267  Uiso   1.00
N1     N     0.20080   0.72990   0.71220   0.01267  Uiso   1.00
N2     N     0.85380   0.04070   0.74260   0.01267  Uiso   1.00
N3     N     0.64620   0.45930   0.24260   0.01267  Uiso   1.00
N4     N     0.76510   0.98720   0.94070   0.01267  Uiso   1.00
N5     N     0.56450   0.99150   0.13990   0.01267  Uiso   1.00
N6     N     0.29920   0.77010   0.21220   0.01267  Uiso   1.00
N7     N     0.70080   0.22990   0.78780   0.01267  Uiso   1.00
N8     N     0.93550   0.50850   0.63990   0.01267  Uiso   1.00
N9     N     0.73490   0.51280   0.44070   0.01267  Uiso   1.00
N10    N     0.06450   0.49150   0.36010   0.01267  Uiso   1.00
N11    N     0.35380   0.54070   0.75740   0.01267  Uiso   1.00
N12    N     0.43550   0.00850   0.86010   0.01267  Uiso   1.00
N13    N     0.23490   0.01280   0.05930   0.01267  Uiso   1.00
N14    N     0.79920   0.27010   0.28780   0.01267  Uiso   1.00
N15    N     0.14620   0.95930   0.25740   0.01267  Uiso   1.00
N16    N     0.26510   0.48720   0.55930   0.01267  Uiso   1.00
O1     O     0.61860   0.93090   0.66290   0.01267  Uiso   1.00
O2     O     0.40840   0.76960   0.00520   0.01267  Uiso   1.00
O3     O     0.83660   0.74650   0.62530   0.01267  Uiso   1.00
O4     O     0.66560   0.79590   0.32580   0.01267  Uiso   1.00
O5     O     0.83440   0.70410   0.82580   0.01267  Uiso   1.00
O6     O     0.67840   0.38670   0.52900   0.01267  Uiso   1.00
O7     O     0.88140   0.56910   0.16290   0.01267  Uiso   1.00
O8     O     0.83440   0.80920   0.74950   0.01267  Uiso   1.00
O9     O     0.64100   0.65050   0.56170   0.01267  Uiso   1.00
O10    O     0.90840   0.26960   0.49480   0.01267  Uiso   1.00
O11    O     0.69040   0.02240   0.29310   0.01267  Uiso   1.00
O12    O     0.33440   0.20410   0.67420   0.01267  Uiso   1.00
O13    O     0.38140   0.06910   0.33710   0.01267  Uiso   1.00
O14    O     0.85900   0.84950   0.06170   0.01267  Uiso   1.00
O15    O     0.14100   0.15050   0.93830   0.01267  Uiso   1.00
O16    O     0.66340   0.75350   0.12530   0.01267  Uiso   1.00
O17    O     0.30960   0.97760   0.70690   0.01267  Uiso   1.00
O18    O     0.35900   0.34950   0.43830   0.01267  Uiso   1.00
O19    O     0.16560   0.19080   0.25050   0.01267  Uiso   1.00
O20    O     0.32160   0.61330   0.47100   0.01267  Uiso   1.00
O21    O     0.33660   0.24650   0.87470   0.01267  Uiso   1.00
O22    O     0.11860   0.43090   0.83710   0.01267  Uiso   1.00
O23    O     0.66560   0.69080   0.24950   0.01267  Uiso   1.00
O24    O     0.59160   0.23040   0.99480   0.01267  Uiso   1.00
O25    O     0.16560   0.29590   0.17420   0.01267  Uiso   1.00
O26    O     0.80960   0.47760   0.79310   0.01267  Uiso   1.00
O27    O     0.16340   0.25350   0.37470   0.01267  Uiso   1.00
O28    O     0.17840   0.88670   0.97100   0.01267  Uiso   1.00
O29    O     0.82160   0.11330   0.02900   0.01267  Uiso   1.00
O30    O     0.09160   0.73040   0.50520   0.01267  Uiso   1.00
O31    O     0.33440   0.30920   0.75050   0.01267  Uiso   1.00
O32    O     0.19040   0.52240   0.20690   0.01267  Uiso   1.00
