data_POKVES_clean
_audit_creation_date              2015-10-16
_audit_creation_method            'Materials Studio'
_symmetry_space_group_name_H-M    'P1'
_symmetry_Int_Tables_number       1
_symmetry_cell_setting            triclinic
loop_
_symmetry_equiv_pos_as_xyz
  x,y,z
_cell_length_a                    6.0928
_cell_length_b                    12.1183
_cell_length_c                    22.5770
_cell_angle_alpha                 90.0000
_cell_angle_beta                  90.0000
_cell_angle_gamma                 90.6431
loop_
_atom_site_label
_atom_site_type_symbol
_atom_site_fract_x
_atom_site_fract_y
_atom_site_fract_z
_atom_site_U_iso_or_equiv
_atom_site_adp_type
_atom_site_occupancy
Eu1    Eu    0.54648   0.05679   0.35076   0.01267  Uiso   1.00
Eu2    Eu    0.04648   0.55679   0.14924   0.01267  Uiso   1.00
Eu3    Eu    0.95352   0.44321   0.85076   0.01267  Uiso   1.00
Eu4    Eu    0.45352   0.94321   0.64924   0.01267  Uiso   1.00
Cu1    Cu    0.50000   0.00000   0.00000   0.01267  Uiso   1.00
Cu2    Cu    0.00000   0.50000   0.50000   0.01267  Uiso   1.00
H1     H     0.82550   0.38910   0.61670   0.01267  Uiso   1.00
H2     H     0.17450   0.61090   0.38330   0.01267  Uiso   1.00
H3     H     0.96000   0.07460   0.17920   0.01267  Uiso   1.00
H4     H     0.57160   0.10650   0.78770   0.01267  Uiso   1.00
H5     H     0.46000   0.57460   0.32080   0.01267  Uiso   1.00
H6     H     0.42840   0.89350   0.21230   0.01267  Uiso   1.00
H7     H     0.07160   0.60650   0.71230   0.01267  Uiso   1.00
H8     H     0.95300   0.76800   0.65600   0.01267  Uiso   1.00
H9     H     0.92840   0.39350   0.28770   0.01267  Uiso   1.00
H10    H     0.04000   0.92540   0.82080   0.01267  Uiso   1.00
H11    H     0.32550   0.88910   0.88330   0.01267  Uiso   1.00
H12    H     0.04700   0.23200   0.34400   0.01267  Uiso   1.00
H13    H     0.54000   0.42540   0.67920   0.01267  Uiso   1.00
H14    H     0.54700   0.73200   0.15600   0.01267  Uiso   1.00
H15    H     0.67450   0.11090   0.11670   0.01267  Uiso   1.00
H16    H     0.45300   0.26800   0.84400   0.01267  Uiso   1.00
C1     C     0.56760   0.86720   0.22090   0.01267  Uiso   1.00
C2     C     0.94060   0.03120   0.14560   0.01267  Uiso   1.00
C3     C     0.47550   0.54260   0.81190   0.01267  Uiso   1.00
C4     C     0.85540   0.72310   0.68910   0.01267  Uiso   1.00
C5     C     0.71860   0.30260   0.42210   0.01267  Uiso   1.00
C6     C     0.83700   0.27910   0.73650   0.01267  Uiso   1.00
C7     C     0.33700   0.77910   0.76350   0.01267  Uiso   1.00
C8     C     0.23100   0.94670   0.89180   0.01267  Uiso   1.00
C9     C     0.61150   0.61860   0.77220   0.01267  Uiso   1.00
C10    C     0.78140   0.19740   0.92210   0.01267  Uiso   1.00
C11    C     0.67510   0.65340   0.49210   0.01267  Uiso   1.00
C12    C     0.45730   0.28450   0.25610   0.01267  Uiso   1.00
C13    C     0.73100   0.44670   0.60820   0.01267  Uiso   1.00
C14    C     0.06760   0.36720   0.27910   0.01267  Uiso   1.00
C15    C     0.87680   0.90940   0.04850   0.01267  Uiso   1.00
C16    C     0.21860   0.80260   0.07790   0.01267  Uiso   1.00
C17    C     0.04810   0.88870   0.08730   0.01267  Uiso   1.00
C18    C     0.54810   0.38870   0.41270   0.01267  Uiso   1.00
C19    C     0.28140   0.69740   0.57790   0.01267  Uiso   1.00
C20    C     0.62320   0.59060   0.54850   0.01267  Uiso   1.00
C21    C     0.26900   0.55330   0.39180   0.01267  Uiso   1.00
C22    C     0.37680   0.40940   0.45150   0.01267  Uiso   1.00
C23    C     0.82490   0.84660   0.99210   0.01267  Uiso   1.00
C24    C     0.44060   0.53120   0.35440   0.01267  Uiso   1.00
C25    C     0.38850   0.38140   0.22780   0.01267  Uiso   1.00
C26    C     0.93240   0.63280   0.72090   0.01267  Uiso   1.00
C27    C     0.05940   0.96880   0.85440   0.01267  Uiso   1.00
C28    C     0.02450   0.95740   0.31190   0.01267  Uiso   1.00
C29    C     0.17510   0.15340   0.00790   0.01267  Uiso   1.00
C30    C     0.95730   0.78450   0.24390   0.01267  Uiso   1.00
C31    C     0.54270   0.71550   0.74390   0.01267  Uiso   1.00
C32    C     0.11150   0.11860   0.72780   0.01267  Uiso   1.00
C33    C     0.12320   0.09060   0.95150   0.01267  Uiso   1.00
C34    C     0.95190   0.11130   0.91270   0.01267  Uiso   1.00
C35    C     0.52450   0.45740   0.18810   0.01267  Uiso   1.00
C36    C     0.32490   0.34660   0.50790   0.01267  Uiso   1.00
C37    C     0.14460   0.27690   0.31090   0.01267  Uiso   1.00
C38    C     0.43240   0.13280   0.77910   0.01267  Uiso   1.00
C39    C     0.04270   0.21550   0.75610   0.01267  Uiso   1.00
C40    C     0.35540   0.22310   0.81090   0.01267  Uiso   1.00
C41    C     0.16300   0.72090   0.26350   0.01267  Uiso   1.00
C42    C     0.55940   0.46880   0.64560   0.01267  Uiso   1.00
C43    C     0.76900   0.05330   0.10820   0.01267  Uiso   1.00
C44    C     0.45190   0.61130   0.58730   0.01267  Uiso   1.00
C45    C     0.64460   0.77690   0.18910   0.01267  Uiso   1.00
C46    C     0.88850   0.88140   0.27220   0.01267  Uiso   1.00
C47    C     0.66300   0.22090   0.23650   0.01267  Uiso   1.00
C48    C     0.97550   0.04260   0.68810   0.01267  Uiso   1.00
N1     N     0.31660   0.08300   0.73730   0.01267  Uiso   1.00
N2     N     0.73730   0.99210   0.05960   0.01267  Uiso   1.00
N3     N     0.26270   0.00790   0.94040   0.01267  Uiso   1.00
N4     N     0.33730   0.23320   0.29710   0.01267  Uiso   1.00
N5     N     0.66270   0.76680   0.70290   0.01267  Uiso   1.00
N6     N     0.58140   0.44910   0.36480   0.01267  Uiso   1.00
N7     N     0.16270   0.26680   0.79710   0.01267  Uiso   1.00
N8     N     0.08140   0.94910   0.13520   0.01267  Uiso   1.00
N9     N     0.91860   0.05090   0.86480   0.01267  Uiso   1.00
N10    N     0.23730   0.49210   0.44040   0.01267  Uiso   1.00
N11    N     0.68340   0.91700   0.26270   0.01267  Uiso   1.00
N12    N     0.41860   0.55090   0.63520   0.01267  Uiso   1.00
N13    N     0.83730   0.73320   0.20290   0.01267  Uiso   1.00
N14    N     0.18340   0.41700   0.23730   0.01267  Uiso   1.00
N15    N     0.76270   0.50790   0.55960   0.01267  Uiso   1.00
N16    N     0.81660   0.58300   0.76270   0.01267  Uiso   1.00
O1     O     0.92050   0.99670   0.35510   0.01267  Uiso   1.00
O2     O     0.37840   0.82800   0.04490   0.01267  Uiso   1.00
O3     O     0.24180   0.74610   0.31210   0.01267  Uiso   1.00
O4     O     0.74180   0.24610   0.18790   0.01267  Uiso   1.00
O5     O     0.72270   0.14630   0.27010   0.01267  Uiso   1.00
O6     O     0.75820   0.25390   0.68790   0.01267  Uiso   1.00
O7     O     0.71800   0.47960   0.20080   0.01267  Uiso   1.00
O8     O     0.81680   0.61100   0.45890   0.01267  Uiso   1.00
O9     O     0.77730   0.35370   0.77010   0.01267  Uiso   1.00
O10    O     0.07380   0.24170   0.01730   0.01267  Uiso   1.00
O11    O     0.68320   0.88900   0.95890   0.01267  Uiso   1.00
O12    O     0.57380   0.74170   0.48270   0.01267  Uiso   1.00
O13    O     0.79980   0.28720   0.89460   0.01267  Uiso   1.00
O14    O     0.70020   0.21280   0.39460   0.01267  Uiso   1.00
O15    O     0.27730   0.85370   0.72990   0.01267  Uiso   1.00
O16    O     0.57950   0.50330   0.85510   0.01267  Uiso   1.00
O17    O     0.22270   0.64630   0.22990   0.01267  Uiso   1.00
O18    O     0.42620   0.25830   0.51730   0.01267  Uiso   1.00
O19    O     0.92620   0.75830   0.98270   0.01267  Uiso   1.00
O20    O     0.62160   0.17200   0.95510   0.01267  Uiso   1.00
O21    O     0.07950   0.00330   0.64490   0.01267  Uiso   1.00
O22    O     0.21800   0.97960   0.29920   0.01267  Uiso   1.00
O23    O     0.20020   0.71280   0.10540   0.01267  Uiso   1.00
O24    O     0.28200   0.52040   0.79920   0.01267  Uiso   1.00
O25    O     0.29980   0.78720   0.60540   0.01267  Uiso   1.00
O26    O     0.87840   0.32800   0.45510   0.01267  Uiso   1.00
O27    O     0.78200   0.02040   0.70080   0.01267  Uiso   1.00
O28    O     0.18320   0.38900   0.54110   0.01267  Uiso   1.00
O29    O     0.12160   0.67200   0.54490   0.01267  Uiso   1.00
O30    O     0.31680   0.11100   0.04110   0.01267  Uiso   1.00
O31    O     0.42050   0.49670   0.14490   0.01267  Uiso   1.00
O32    O     0.25820   0.75390   0.81210   0.01267  Uiso   1.00
