data_POKVIW_clean
_audit_creation_date              2015-10-16
_audit_creation_method            'Materials Studio'
_symmetry_space_group_name_H-M    'P1'
_symmetry_Int_Tables_number       1
_symmetry_cell_setting            triclinic
loop_
_symmetry_equiv_pos_as_xyz
  x,y,z
_cell_length_a                    6.0607
_cell_length_b                    12.3643
_cell_length_c                    23.4943
_cell_angle_alpha                 90.0000
_cell_angle_beta                  90.0000
_cell_angle_gamma                 94.2411
loop_
_atom_site_label
_atom_site_type_symbol
_atom_site_fract_x
_atom_site_fract_y
_atom_site_fract_z
_atom_site_U_iso_or_equiv
_atom_site_adp_type
_atom_site_occupancy
Er1    Er    0.99065   0.89077   0.82982   0.01267  Uiso   1.00
Er2    Er    0.00935   0.10923   0.17018   0.01267  Uiso   1.00
Er3    Er    0.50935   0.60923   0.32982   0.01267  Uiso   1.00
Er4    Er    0.49065   0.39077   0.67018   0.01267  Uiso   1.00
Cu1    Cu    0.50000   0.50000   0.00000   0.01267  Uiso   1.00
Cu2    Cu    0.00000   0.00000   0.50000   0.01267  Uiso   1.00
H1     H     0.02000   0.99300   0.10300   0.01267  Uiso   1.00
H2     H     0.93100   0.10900   0.88100   0.01267  Uiso   1.00
H3     H     0.06900   0.89100   0.11900   0.01267  Uiso   1.00
H4     H     0.46980   0.72520   0.83680   0.01267  Uiso   1.00
H5     H     0.55110   0.87670   0.67140   0.01267  Uiso   1.00
H6     H     0.88920   0.92170   0.29320   0.01267  Uiso   1.00
H7     H     0.43100   0.60900   0.61900   0.01267  Uiso   1.00
H8     H     0.48000   0.50700   0.60300   0.01267  Uiso   1.00
H9     H     0.52000   0.49300   0.39700   0.01267  Uiso   1.00
H10    H     0.38920   0.42170   0.20680   0.01267  Uiso   1.00
H11    H     0.56900   0.39100   0.38100   0.01267  Uiso   1.00
H12    H     0.11080   0.07830   0.70680   0.01267  Uiso   1.00
H13    H     0.82200   0.85540   0.60420   0.01267  Uiso   1.00
H14    H     0.94890   0.62330   0.17140   0.01267  Uiso   1.00
H15    H     0.44890   0.12330   0.32860   0.01267  Uiso   1.00
H16    H     0.32200   0.35540   0.89580   0.01267  Uiso   1.00
H17    H     0.03020   0.77480   0.33680   0.01267  Uiso   1.00
H18    H     0.67800   0.64460   0.10420   0.01267  Uiso   1.00
H19    H     0.05110   0.37670   0.82860   0.01267  Uiso   1.00
H20    H     0.61080   0.57830   0.79320   0.01267  Uiso   1.00
H21    H     0.17800   0.14460   0.39580   0.01267  Uiso   1.00
H22    H     0.96980   0.22520   0.66320   0.01267  Uiso   1.00
H23    H     0.98000   0.00700   0.89700   0.01267  Uiso   1.00
H24    H     0.53020   0.27480   0.16320   0.01267  Uiso   1.00
C1     C     0.46670   0.07710   0.59640   0.01267  Uiso   1.00
C2     C     0.60740   0.30920   0.19310   0.01267  Uiso   1.00
C3     C     0.34300   0.92640   0.22980   0.01267  Uiso   1.00
C4     C     0.59180   0.17300   0.75200   0.01267  Uiso   1.00
C5     C     0.09180   0.67300   0.74800   0.01267  Uiso   1.00
C6     C     0.76570   0.58620   0.10160   0.01267  Uiso   1.00
C7     C     0.43130   0.07350   0.35820   0.01267  Uiso   1.00
C8     C     0.56870   0.92650   0.64180   0.01267  Uiso   1.00
C9     C     0.69510   0.83520   0.40690   0.01267  Uiso   1.00
C10    C     0.90630   0.73260   0.72140   0.01267  Uiso   1.00
C11    C     0.06870   0.42650   0.85820   0.01267  Uiso   1.00
C12    C     0.31680   0.85550   0.49270   0.01267  Uiso   1.00
C13    C     0.96670   0.57710   0.90360   0.01267  Uiso   1.00
C14    C     0.23430   0.41380   0.89840   0.01267  Uiso   1.00
C15    C     0.65700   0.07360   0.77020   0.01267  Uiso   1.00
C16    C     0.15700   0.57360   0.72980   0.01267  Uiso   1.00
C17    C     0.18320   0.64450   0.99270   0.01267  Uiso   1.00
C18    C     0.51640   0.98890   0.80380   0.01267  Uiso   1.00
C19    C     0.09370   0.26740   0.27860   0.01267  Uiso   1.00
C20    C     0.68320   0.14450   0.50730   0.01267  Uiso   1.00
C21    C     0.10740   0.80920   0.30690   0.01267  Uiso   1.00
C22    C     0.03330   0.42290   0.09640   0.01267  Uiso   1.00
C23    C     0.86580   0.43230   0.05620   0.01267  Uiso   1.00
C24    C     0.40630   0.23260   0.77860   0.01267  Uiso   1.00
C25    C     0.19510   0.33520   0.09310   0.01267  Uiso   1.00
C26    C     0.40820   0.82700   0.24800   0.01267  Uiso   1.00
C27    C     0.48360   0.01110   0.19620   0.01267  Uiso   1.00
C28    C     0.13420   0.56770   0.94380   0.01267  Uiso   1.00
C29    C     0.81680   0.35550   0.00730   0.01267  Uiso   1.00
C30    C     0.98360   0.51110   0.30380   0.01267  Uiso   1.00
C31    C     0.59370   0.76740   0.22140   0.01267  Uiso   1.00
C32    C     0.36580   0.93230   0.44380   0.01267  Uiso   1.00
C33    C     0.52730   0.40090   0.21770   0.01267  Uiso   1.00
C34    C     0.01640   0.48890   0.69620   0.01267  Uiso   1.00
C35    C     0.84300   0.42640   0.27020   0.01267  Uiso   1.00
C36    C     0.80490   0.66480   0.90690   0.01267  Uiso   1.00
C37    C     0.73430   0.91380   0.60160   0.01267  Uiso   1.00
C38    C     0.63420   0.06770   0.55620   0.01267  Uiso   1.00
C39    C     0.02730   0.90090   0.28230   0.01267  Uiso   1.00
C40    C     0.93130   0.57350   0.14180   0.01267  Uiso   1.00
C41    C     0.30490   0.16480   0.59310   0.01267  Uiso   1.00
C42    C     0.97270   0.09910   0.71770   0.01267  Uiso   1.00
C43    C     0.26570   0.08620   0.39840   0.01267  Uiso   1.00
C44    C     0.53330   0.92290   0.40360   0.01267  Uiso   1.00
C45    C     0.89260   0.19080   0.69310   0.01267  Uiso   1.00
C46    C     0.47270   0.59910   0.78230   0.01267  Uiso   1.00
C47    C     0.90820   0.32700   0.25200   0.01267  Uiso   1.00
C48    C     0.39260   0.69080   0.80690   0.01267  Uiso   1.00
N1     N     0.76630   0.98530   0.55964   0.01267  Uiso   1.00
N2     N     0.70740   0.23000   0.71178   0.01267  Uiso   1.00
N3     N     0.56390   0.99360   0.36050   0.01267  Uiso   1.00
N4     N     0.85700   0.04050   0.75643   0.01267  Uiso   1.00
N5     N     0.29260   0.77000   0.28822   0.01267  Uiso   1.00
N6     N     0.43610   0.00640   0.63950   0.01267  Uiso   1.00
N7     N     0.93610   0.50640   0.86050   0.01267  Uiso   1.00
N8     N     0.26630   0.48530   0.94036   0.01267  Uiso   1.00
N9     N     0.20740   0.73000   0.78822   0.01267  Uiso   1.00
N10    N     0.06390   0.49360   0.13950   0.01267  Uiso   1.00
N11    N     0.64300   0.45950   0.25643   0.01267  Uiso   1.00
N12    N     0.79260   0.27000   0.21178   0.01267  Uiso   1.00
N13    N     0.14300   0.95950   0.24357   0.01267  Uiso   1.00
N14    N     0.23370   0.01470   0.44036   0.01267  Uiso   1.00
N15    N     0.73370   0.51470   0.05964   0.01267  Uiso   1.00
N16    N     0.35700   0.54050   0.74357   0.01267  Uiso   1.00
O1     O     0.61960   0.93150   0.83723   0.01267  Uiso   1.00
O2     O     0.59290   0.22950   0.50452   0.01267  Uiso   1.00
O3     O     0.68660   0.02120   0.20627   0.01267  Uiso   1.00
O4     O     0.16000   0.19040   0.24972   0.01267  Uiso   1.00
O5     O     0.84090   0.70490   0.67332   0.01267  Uiso   1.00
O6     O     0.02200   0.05960   0.87540   0.01267  Uiso   1.00
O7     O     0.15810   0.25580   0.12609   0.01267  Uiso   1.00
O8     O     0.85660   0.85180   0.43811   0.01267  Uiso   1.00
O9     O     0.35660   0.35180   0.06189   0.01267  Uiso   1.00
O10    O     0.34190   0.24420   0.62609   0.01267  Uiso   1.00
O11    O     0.34000   0.30960   0.74972   0.01267  Uiso   1.00
O12    O     0.32330   0.61360   0.02905   0.01267  Uiso   1.00
O13    O     0.67670   0.38640   0.97095   0.01267  Uiso   1.00
O14    O     0.11960   0.43150   0.66277   0.01267  Uiso   1.00
O15    O     0.66000   0.69040   0.25028   0.01267  Uiso   1.00
O16    O     0.90710   0.27050   0.00452   0.01267  Uiso   1.00
O17    O     0.65910   0.79510   0.17332   0.01267  Uiso   1.00
O18    O     0.81340   0.47880   0.70627   0.01267  Uiso   1.00
O19    O     0.97800   0.94040   0.12460   0.01267  Uiso   1.00
O20    O     0.14340   0.14820   0.56189   0.01267  Uiso   1.00
O21    O     0.15910   0.29510   0.32668   0.01267  Uiso   1.00
O22    O     0.84190   0.74420   0.87391   0.01267  Uiso   1.00
O23    O     0.18660   0.52120   0.29373   0.01267  Uiso   1.00
O24    O     0.64340   0.64820   0.93811   0.01267  Uiso   1.00
O25    O     0.17670   0.88640   0.52905   0.01267  Uiso   1.00
O26    O     0.09290   0.72950   0.99548   0.01267  Uiso   1.00
O27    O     0.82330   0.11360   0.47095   0.01267  Uiso   1.00
O28    O     0.52200   0.55960   0.62460   0.01267  Uiso   1.00
O29    O     0.47800   0.44040   0.37540   0.01267  Uiso   1.00
O30    O     0.88040   0.56850   0.33723   0.01267  Uiso   1.00
O31    O     0.65810   0.75580   0.37391   0.01267  Uiso   1.00
O32    O     0.84000   0.80960   0.75028   0.01267  Uiso   1.00
O33    O     0.34090   0.20490   0.82668   0.01267  Uiso   1.00
O34    O     0.40710   0.77050   0.49548   0.01267  Uiso   1.00
O35    O     0.38040   0.06850   0.16277   0.01267  Uiso   1.00
O36    O     0.31340   0.97880   0.79373   0.01267  Uiso   1.00
