data_image0
_cell_length_a       8.2939
_cell_length_b       9.226
_cell_length_c       12.5021
_cell_angle_alpha    90
_cell_angle_beta     90
_cell_angle_gamma    90

_symmetry_space_group_name_H-M    "P 1"
_symmetry_int_tables_number       1

loop_
  _symmetry_equiv_pos_as_xyz
  'x, y, z'

loop_
  _atom_site_label
  _atom_site_occupancy
  _atom_site_fract_x
  _atom_site_fract_y
  _atom_site_fract_z
  _atom_site_thermal_displace_type
  _atom_site_B_iso_or_equiv
  _atom_site_type_symbol
  V1       1.0000 0.74600  0.06400  0.39490  Biso   1.000  V
  V2       1.0000 0.97650  0.70930  0.50280  Biso   1.000  V
  P1       1.0000 0.75860  0.93290  0.63590  Biso   1.000  P
  O1       1.0000 0.76550  0.05530  0.55350  Biso   1.000  O
  O2       1.0000 0.90010  0.82740  0.62000  Biso   1.000  O
  O3       1.0000 0.76610  0.00290  0.74640  Biso   1.000  O
  O4       1.0000 0.59740  0.85010  0.62710  Biso   1.000  O
  O5       1.0000 0.61270  0.87650  0.42110  Biso   1.000  O
  F1       1.0000 0.94650  0.87990  0.41660  Biso   1.000  F
  V3       1.0000 0.75400  0.93600  0.89490  Biso   1.000  V
  V4       1.0000 0.52350  0.29070  0.00280  Biso   1.000  V
  P2       1.0000 0.74140  0.06710  0.13590  Biso   1.000  P
  O6       1.0000 0.73450  0.94470  0.05350  Biso   1.000  O
  O7       1.0000 0.59990  0.17260  0.12000  Biso   1.000  O
  O8       1.0000 0.73390  0.99710  0.24640  Biso   1.000  O
  O9       1.0000 0.90260  0.14990  0.12710  Biso   1.000  O
  O10      1.0000 0.88730  0.12350  0.92110  Biso   1.000  O
  F2       1.0000 0.55350  0.12010  0.91660  Biso   1.000  F
  V5       1.0000 0.25400  0.56400  0.10510  Biso   1.000  V
  V6       1.0000 0.02350  0.20930  0.99720  Biso   1.000  V
  P3       1.0000 0.24140  0.43290  0.86410  Biso   1.000  P
  O11      1.0000 0.23450  0.55530  0.94650  Biso   1.000  O
  O12      1.0000 0.09990  0.32740  0.88000  Biso   1.000  O
  O13      1.0000 0.23390  0.50290  0.75360  Biso   1.000  O
  O14      1.0000 0.40260  0.35010  0.87290  Biso   1.000  O
  O15      1.0000 0.38730  0.37650  0.07890  Biso   1.000  O
  F3       1.0000 0.05350  0.37990  0.08340  Biso   1.000  F
  V7       1.0000 0.24600  0.43600  0.60510  Biso   1.000  V
  V8       1.0000 0.47650  0.79070  0.49720  Biso   1.000  V
  P4       1.0000 0.25860  0.56710  0.36410  Biso   1.000  P
  O16      1.0000 0.26550  0.44470  0.44650  Biso   1.000  O
  O17      1.0000 0.40010  0.67260  0.38000  Biso   1.000  O
  O18      1.0000 0.26610  0.49710  0.25360  Biso   1.000  O
  O19      1.0000 0.09740  0.64990  0.37290  Biso   1.000  O
  O20      1.0000 0.11270  0.62350  0.57890  Biso   1.000  O
  F4       1.0000 0.44650  0.62010  0.58340  Biso   1.000  F
