data_image0
_cell_length_a       10.154
_cell_length_b       18.393
_cell_length_c       15.773
_cell_angle_alpha    90
_cell_angle_beta     90
_cell_angle_gamma    90

_symmetry_space_group_name_H-M    "P 1"
_symmetry_int_tables_number       1

loop_
  _symmetry_equiv_pos_as_xyz
  'x, y, z'

loop_
  _atom_site_label
  _atom_site_occupancy
  _atom_site_fract_x
  _atom_site_fract_y
  _atom_site_fract_z
  _atom_site_thermal_displace_type
  _atom_site_B_iso_or_equiv
  _atom_site_type_symbol
  Ga1      1.0000 0.18010  0.71790  0.53810  Biso   1.000  Ga
  Ga2      1.0000 0.33660  0.67400  0.35120  Biso   1.000  Ga
  Ga3      1.0000 0.14900  0.90570  0.50360  Biso   1.000  Ga
  P1       1.0000 0.35950  0.57590  0.51640  Biso   1.000  P
  P2       1.0000 0.15050  0.83170  0.68450  Biso   1.000  P
  P3       1.0000 0.37960  0.81700  0.43720  Biso   1.000  P
  F1       1.0000 0.17330  0.68580  0.41930  Biso   1.000  F
  F2       1.0000 0.08440  0.80390  0.50140  Biso   1.000  F
  O1       1.0000 0.49890  0.56660  0.55550  Biso   1.000  O
  O2       1.0000 0.28600  0.50370  0.51980  Biso   1.000  O
  O3       1.0000 0.37920  0.59900  0.42320  Biso   1.000  O
  O4       1.0000 0.28460  0.63320  0.56860  Biso   1.000  O
  O5       1.0000 0.23520  0.85380  0.76060  Biso   1.000  O
  O6       1.0000 0.18360  0.75460  0.65460  Biso   1.000  O
  O7       1.0000 0.18610  0.89000  0.61800  Biso   1.000  O
  O8       1.0000 0.00500  0.83820  0.71050  Biso   1.000  O
  O9       1.0000 0.29140  0.88550  0.43140  Biso   1.000  O
  O10      1.0000 0.35970  0.77420  0.35380  Biso   1.000  O
  O11      1.0000 0.34310  0.77080  0.51420  Biso   1.000  O
  O12      1.0000 0.52300  0.84180  0.44420  Biso   1.000  O
  Ga4      1.0000 0.31990  0.28210  0.03810  Biso   1.000  Ga
  Ga5      1.0000 0.16340  0.32600  0.85120  Biso   1.000  Ga
  Ga6      1.0000 0.35100  0.09430  0.00360  Biso   1.000  Ga
  P4       1.0000 0.14050  0.42410  0.01640  Biso   1.000  P
  P5       1.0000 0.34950  0.16830  0.18450  Biso   1.000  P
  P6       1.0000 0.12040  0.18300  0.93720  Biso   1.000  P
  F3       1.0000 0.32670  0.31420  0.91930  Biso   1.000  F
  F4       1.0000 0.41560  0.19610  0.00140  Biso   1.000  F
  O13      1.0000 0.00110  0.43340  0.05550  Biso   1.000  O
  O14      1.0000 0.21400  0.49630  0.01980  Biso   1.000  O
  O15      1.0000 0.12080  0.40100  0.92320  Biso   1.000  O
  O16      1.0000 0.21540  0.36680  0.06860  Biso   1.000  O
  O17      1.0000 0.26480  0.14620  0.26060  Biso   1.000  O
  O18      1.0000 0.31640  0.24540  0.15460  Biso   1.000  O
  O19      1.0000 0.31390  0.11000  0.11800  Biso   1.000  O
  O20      1.0000 0.49500  0.16180  0.21050  Biso   1.000  O
  O21      1.0000 0.20860  0.11450  0.93140  Biso   1.000  O
  O22      1.0000 0.14030  0.22580  0.85380  Biso   1.000  O
  O23      1.0000 0.15690  0.22920  0.01420  Biso   1.000  O
  O24      1.0000 0.97700  0.15820  0.94420  Biso   1.000  O
  Ga7      1.0000 0.81990  0.21790  0.96190  Biso   1.000  Ga
  Ga8      1.0000 0.66340  0.17400  0.14880  Biso   1.000  Ga
  Ga9      1.0000 0.85100  0.40570  0.99640  Biso   1.000  Ga
  P7       1.0000 0.64050  0.07590  0.98360  Biso   1.000  P
  P8       1.0000 0.84950  0.33170  0.81550  Biso   1.000  P
  P9       1.0000 0.62040  0.31700  0.06280  Biso   1.000  P
  F5       1.0000 0.82670  0.18580  0.08070  Biso   1.000  F
  F6       1.0000 0.91560  0.30390  0.99860  Biso   1.000  F
  O25      1.0000 0.50110  0.06660  0.94450  Biso   1.000  O
  O26      1.0000 0.71400  0.00370  0.98020  Biso   1.000  O
  O27      1.0000 0.62080  0.09900  0.07680  Biso   1.000  O
  O28      1.0000 0.71540  0.13320  0.93140  Biso   1.000  O
  O29      1.0000 0.76480  0.35380  0.73940  Biso   1.000  O
  O30      1.0000 0.81640  0.25460  0.84540  Biso   1.000  O
  O31      1.0000 0.81390  0.39000  0.88200  Biso   1.000  O
  O32      1.0000 0.99500  0.33820  0.78950  Biso   1.000  O
  O33      1.0000 0.70860  0.38550  0.06860  Biso   1.000  O
  O34      1.0000 0.64030  0.27420  0.14620  Biso   1.000  O
  O35      1.0000 0.65690  0.27080  0.98580  Biso   1.000  O
  O36      1.0000 0.47700  0.34180  0.05580  Biso   1.000  O
  Ga10     1.0000 0.68010  0.78210  0.46190  Biso   1.000  Ga
  Ga11     1.0000 0.83660  0.82600  0.64880  Biso   1.000  Ga
  Ga12     1.0000 0.64900  0.59430  0.49640  Biso   1.000  Ga
  P10      1.0000 0.85950  0.92410  0.48360  Biso   1.000  P
  P11      1.0000 0.65050  0.66830  0.31550  Biso   1.000  P
  P12      1.0000 0.87960  0.68300  0.56280  Biso   1.000  P
  F7       1.0000 0.67330  0.81420  0.58070  Biso   1.000  F
  F8       1.0000 0.58440  0.69610  0.49860  Biso   1.000  F
  O37      1.0000 0.99890  0.93340  0.44450  Biso   1.000  O
  O38      1.0000 0.78600  0.99630  0.48020  Biso   1.000  O
  O39      1.0000 0.87920  0.90100  0.57680  Biso   1.000  O
  O40      1.0000 0.78460  0.86680  0.43140  Biso   1.000  O
  O41      1.0000 0.73520  0.64620  0.23940  Biso   1.000  O
  O42      1.0000 0.68360  0.74540  0.34540  Biso   1.000  O
  O43      1.0000 0.68610  0.61000  0.38200  Biso   1.000  O
  O44      1.0000 0.50500  0.66180  0.28950  Biso   1.000  O
  O45      1.0000 0.79140  0.61450  0.56860  Biso   1.000  O
  O46      1.0000 0.85970  0.72580  0.64620  Biso   1.000  O
  O47      1.0000 0.84310  0.72920  0.48580  Biso   1.000  O
  O48      1.0000 0.02300  0.65820  0.55580  Biso   1.000  O
  Ga13     1.0000 0.81990  0.28210  0.46190  Biso   1.000  Ga
  Ga14     1.0000 0.66340  0.32600  0.64880  Biso   1.000  Ga
  Ga15     1.0000 0.85100  0.09430  0.49640  Biso   1.000  Ga
  P13      1.0000 0.64050  0.42410  0.48360  Biso   1.000  P
  P14      1.0000 0.84950  0.16830  0.31550  Biso   1.000  P
  P15      1.0000 0.62040  0.18300  0.56280  Biso   1.000  P
  F9       1.0000 0.82670  0.31420  0.58070  Biso   1.000  F
  F10      1.0000 0.91560  0.19610  0.49860  Biso   1.000  F
  O49      1.0000 0.50110  0.43340  0.44450  Biso   1.000  O
  O50      1.0000 0.71400  0.49630  0.48020  Biso   1.000  O
  O51      1.0000 0.62080  0.40100  0.57680  Biso   1.000  O
  O52      1.0000 0.71540  0.36680  0.43140  Biso   1.000  O
  O53      1.0000 0.76480  0.14620  0.23940  Biso   1.000  O
  O54      1.0000 0.81640  0.24540  0.34540  Biso   1.000  O
  O55      1.0000 0.81390  0.11000  0.38200  Biso   1.000  O
  O56      1.0000 0.99500  0.16180  0.28950  Biso   1.000  O
  O57      1.0000 0.70860  0.11450  0.56860  Biso   1.000  O
  O58      1.0000 0.64030  0.22580  0.64620  Biso   1.000  O
  O59      1.0000 0.65690  0.22920  0.48580  Biso   1.000  O
  O60      1.0000 0.47700  0.15820  0.55580  Biso   1.000  O
  Ga16     1.0000 0.68010  0.71790  0.96190  Biso   1.000  Ga
  Ga17     1.0000 0.83660  0.67400  0.14880  Biso   1.000  Ga
  Ga18     1.0000 0.64900  0.90570  0.99640  Biso   1.000  Ga
  P16      1.0000 0.85950  0.57590  0.98360  Biso   1.000  P
  P17      1.0000 0.65050  0.83170  0.81550  Biso   1.000  P
  P18      1.0000 0.87960  0.81700  0.06280  Biso   1.000  P
  F11      1.0000 0.67330  0.68580  0.08070  Biso   1.000  F
  F12      1.0000 0.58440  0.80390  0.99860  Biso   1.000  F
  O61      1.0000 0.99890  0.56660  0.94450  Biso   1.000  O
  O62      1.0000 0.78600  0.50370  0.98020  Biso   1.000  O
  O63      1.0000 0.87920  0.59900  0.07680  Biso   1.000  O
  O64      1.0000 0.78460  0.63320  0.93140  Biso   1.000  O
  O65      1.0000 0.73520  0.85380  0.73940  Biso   1.000  O
  O66      1.0000 0.68360  0.75460  0.84540  Biso   1.000  O
  O67      1.0000 0.68610  0.89000  0.88200  Biso   1.000  O
  O68      1.0000 0.50500  0.83820  0.78950  Biso   1.000  O
  O69      1.0000 0.79140  0.88550  0.06860  Biso   1.000  O
  O70      1.0000 0.85970  0.77420  0.14620  Biso   1.000  O
  O71      1.0000 0.84310  0.77080  0.98580  Biso   1.000  O
  O72      1.0000 0.02300  0.84180  0.05580  Biso   1.000  O
  Ga19     1.0000 0.18010  0.78210  0.03810  Biso   1.000  Ga
  Ga20     1.0000 0.33660  0.82600  0.85120  Biso   1.000  Ga
  Ga21     1.0000 0.14900  0.59430  0.00360  Biso   1.000  Ga
  P19      1.0000 0.35950  0.92410  0.01640  Biso   1.000  P
  P20      1.0000 0.15050  0.66830  0.18450  Biso   1.000  P
  P21      1.0000 0.37960  0.68300  0.93720  Biso   1.000  P
  F13      1.0000 0.17330  0.81420  0.91930  Biso   1.000  F
  F14      1.0000 0.08440  0.69610  0.00140  Biso   1.000  F
  O73      1.0000 0.49890  0.93340  0.05550  Biso   1.000  O
  O74      1.0000 0.28600  0.99630  0.01980  Biso   1.000  O
  O75      1.0000 0.37920  0.90100  0.92320  Biso   1.000  O
  O76      1.0000 0.28460  0.86680  0.06860  Biso   1.000  O
  O77      1.0000 0.23520  0.64620  0.26060  Biso   1.000  O
  O78      1.0000 0.18360  0.74540  0.15460  Biso   1.000  O
  O79      1.0000 0.18610  0.61000  0.11800  Biso   1.000  O
  O80      1.0000 0.00500  0.66180  0.21050  Biso   1.000  O
  O81      1.0000 0.29140  0.61450  0.93140  Biso   1.000  O
  O82      1.0000 0.35970  0.72580  0.85380  Biso   1.000  O
  O83      1.0000 0.34310  0.72920  0.01420  Biso   1.000  O
  O84      1.0000 0.52300  0.65820  0.94420  Biso   1.000  O
  Ga22     1.0000 0.31990  0.21790  0.53810  Biso   1.000  Ga
  Ga23     1.0000 0.16340  0.17400  0.35120  Biso   1.000  Ga
  Ga24     1.0000 0.35100  0.40570  0.50360  Biso   1.000  Ga
  P22      1.0000 0.14050  0.07590  0.51640  Biso   1.000  P
  P23      1.0000 0.34950  0.33170  0.68450  Biso   1.000  P
  P24      1.0000 0.12040  0.31700  0.43720  Biso   1.000  P
  F15      1.0000 0.32670  0.18580  0.41930  Biso   1.000  F
  F16      1.0000 0.41560  0.30390  0.50140  Biso   1.000  F
  O85      1.0000 0.00110  0.06660  0.55550  Biso   1.000  O
  O86      1.0000 0.21400  0.00370  0.51980  Biso   1.000  O
  O87      1.0000 0.12080  0.09900  0.42320  Biso   1.000  O
  O88      1.0000 0.21540  0.13320  0.56860  Biso   1.000  O
  O89      1.0000 0.26480  0.35380  0.76060  Biso   1.000  O
  O90      1.0000 0.31640  0.25460  0.65460  Biso   1.000  O
  O91      1.0000 0.31390  0.39000  0.61800  Biso   1.000  O
  O92      1.0000 0.49500  0.33820  0.71050  Biso   1.000  O
  O93      1.0000 0.20860  0.38550  0.43140  Biso   1.000  O
  O94      1.0000 0.14030  0.27420  0.35380  Biso   1.000  O
  O95      1.0000 0.15690  0.27080  0.51420  Biso   1.000  O
  O96      1.0000 0.97700  0.34180  0.44420  Biso   1.000  O
