data_image0
_cell_length_a       10.567
_cell_length_b       16.97
_cell_length_c       8.413
_cell_angle_alpha    90
_cell_angle_beta     90
_cell_angle_gamma    90

_symmetry_space_group_name_H-M    "P 1"
_symmetry_int_tables_number       1

loop_
  _symmetry_equiv_pos_as_xyz
  'x, y, z'

loop_
  _atom_site_label
  _atom_site_occupancy
  _atom_site_fract_x
  _atom_site_fract_y
  _atom_site_fract_z
  _atom_site_thermal_displace_type
  _atom_site_B_iso_or_equiv
  _atom_site_type_symbol
  V1       1.0000 0.14060  0.56430  0.77980  Biso   1.000  V
  P1       1.0000 0.87070  0.58680  0.97090  Biso   1.000  P
  O1       1.0000 0.01590  0.58530  0.94920  Biso   1.000  O
  O2       1.0000 0.83590  0.54540  0.12830  Biso   1.000  O
  O3       1.0000 0.80600  0.54570  0.82960  Biso   1.000  O
  O4       1.0000 0.82600  0.67300  0.98920  Biso   1.000  O
  O5       1.0000 0.65920  0.82610  0.75860  Biso   1.000  O
  V2       1.0000 0.35940  0.43570  0.27980  Biso   1.000  V
  P2       1.0000 0.62930  0.41320  0.47090  Biso   1.000  P
  O6       1.0000 0.48410  0.41470  0.44920  Biso   1.000  O
  O7       1.0000 0.66410  0.45460  0.62830  Biso   1.000  O
  O8       1.0000 0.69400  0.45430  0.32960  Biso   1.000  O
  O9       1.0000 0.67400  0.32700  0.48920  Biso   1.000  O
  O10      1.0000 0.84080  0.17390  0.25860  Biso   1.000  O
  V3       1.0000 0.85940  0.06430  0.22020  Biso   1.000  V
  P3       1.0000 0.12930  0.08680  0.02910  Biso   1.000  P
  O11      1.0000 0.98410  0.08530  0.05080  Biso   1.000  O
  O12      1.0000 0.16410  0.04540  0.87170  Biso   1.000  O
  O13      1.0000 0.19400  0.04570  0.17040  Biso   1.000  O
  O14      1.0000 0.17400  0.17300  0.01080  Biso   1.000  O
  O15      1.0000 0.34080  0.32610  0.24140  Biso   1.000  O
  V4       1.0000 0.64060  0.93570  0.72020  Biso   1.000  V
  P4       1.0000 0.37070  0.91320  0.52910  Biso   1.000  P
  O16      1.0000 0.51590  0.91470  0.55080  Biso   1.000  O
  O17      1.0000 0.33590  0.95460  0.37170  Biso   1.000  O
  O18      1.0000 0.30600  0.95430  0.67040  Biso   1.000  O
  O19      1.0000 0.32600  0.82700  0.51080  Biso   1.000  O
  O20      1.0000 0.15920  0.67390  0.74140  Biso   1.000  O
  V5       1.0000 0.85940  0.43570  0.22020  Biso   1.000  V
  P5       1.0000 0.12930  0.41320  0.02910  Biso   1.000  P
  O21      1.0000 0.98410  0.41470  0.05080  Biso   1.000  O
  O22      1.0000 0.16410  0.45460  0.87170  Biso   1.000  O
  O23      1.0000 0.19400  0.45430  0.17040  Biso   1.000  O
  O24      1.0000 0.17400  0.32700  0.01080  Biso   1.000  O
  O25      1.0000 0.34080  0.17390  0.24140  Biso   1.000  O
  V6       1.0000 0.64060  0.56430  0.72020  Biso   1.000  V
  P6       1.0000 0.37070  0.58680  0.52910  Biso   1.000  P
  O26      1.0000 0.51590  0.58530  0.55080  Biso   1.000  O
  O27      1.0000 0.33590  0.54540  0.37170  Biso   1.000  O
  O28      1.0000 0.30600  0.54570  0.67040  Biso   1.000  O
  O29      1.0000 0.32600  0.67300  0.51080  Biso   1.000  O
  O30      1.0000 0.15920  0.82610  0.74140  Biso   1.000  O
  V7       1.0000 0.14060  0.93570  0.77980  Biso   1.000  V
  P7       1.0000 0.87070  0.91320  0.97090  Biso   1.000  P
  O31      1.0000 0.01590  0.91470  0.94920  Biso   1.000  O
  O32      1.0000 0.83590  0.95460  0.12830  Biso   1.000  O
  O33      1.0000 0.80600  0.95430  0.82960  Biso   1.000  O
  O34      1.0000 0.82600  0.82700  0.98920  Biso   1.000  O
  O35      1.0000 0.65920  0.67390  0.75860  Biso   1.000  O
  V8       1.0000 0.35940  0.06430  0.27980  Biso   1.000  V
  P8       1.0000 0.62930  0.08680  0.47090  Biso   1.000  P
  O36      1.0000 0.48410  0.08530  0.44920  Biso   1.000  O
  O37      1.0000 0.66410  0.04540  0.62830  Biso   1.000  O
  O38      1.0000 0.69400  0.04570  0.32960  Biso   1.000  O
  O39      1.0000 0.67400  0.17300  0.48920  Biso   1.000  O
  O40      1.0000 0.84080  0.32610  0.25860  Biso   1.000  O
  V9       1.0000 0.77910  0.75000  0.82610  Biso   1.000  V
  V10      1.0000 0.72090  0.25000  0.32610  Biso   1.000  V
  V11      1.0000 0.22090  0.25000  0.17390  Biso   1.000  V
  V12      1.0000 0.27910  0.75000  0.67390  Biso   1.000  V
