data_image0
_cell_length_a       24.1428
_cell_length_b       24.1428
_cell_length_c       4.9878
_cell_angle_alpha    90
_cell_angle_beta     90
_cell_angle_gamma    90

_symmetry_space_group_name_H-M    "P 1"
_symmetry_int_tables_number       1

loop_
  _symmetry_equiv_pos_as_xyz
  'x, y, z'

loop_
  _atom_site_label
  _atom_site_occupancy
  _atom_site_fract_x
  _atom_site_fract_y
  _atom_site_fract_z
  _atom_site_thermal_displace_type
  _atom_site_B_iso_or_equiv
  _atom_site_type_symbol
  O1       1.0000 0.47710  0.06810  0.17730  Biso   1.000  O
  N1       1.0000 0.36087  0.16142  0.19840  Biso   1.000  N
  C1       1.0000 0.43182  0.08974  0.09850  Biso   1.000  C
  N2       1.0000 0.29323  0.20381  0.00060  Biso   1.000  N
  N3       1.0000 0.31486  0.14627  0.33630  Biso   1.000  N
  C2       1.0000 0.41454  0.13907  0.27040  Biso   1.000  C
  H1       1.0000 0.41370  0.12770  0.45690  Biso   1.000  H
  H2       1.0000 0.44220  0.16800  0.25300  Biso   1.000  H
  O2       1.0000 0.40427  0.07448  0.90760  Biso   1.000  O
  C3       1.0000 0.27544  0.17266  0.21030  Biso   1.000  C
  H3       1.0000 0.23840  0.17030  0.25990  Biso   1.000  H
  C4       1.0000 0.34744  0.19530  0.00100  Biso   1.000  C
  H4       1.0000 0.37230  0.21090  0.88030  Biso   1.000  H
  O3       1.0000 0.97710  0.56810  0.67730  Biso   1.000  O
  N4       1.0000 0.86087  0.66142  0.69840  Biso   1.000  N
  C5       1.0000 0.93182  0.58974  0.59850  Biso   1.000  C
  N5       1.0000 0.79323  0.70381  0.50060  Biso   1.000  N
  N6       1.0000 0.81486  0.64627  0.83630  Biso   1.000  N
  C6       1.0000 0.91454  0.63907  0.77040  Biso   1.000  C
  H5       1.0000 0.91370  0.62770  0.95690  Biso   1.000  H
  H6       1.0000 0.94220  0.66800  0.75300  Biso   1.000  H
  O4       1.0000 0.90427  0.57448  0.40760  Biso   1.000  O
  C7       1.0000 0.77544  0.67266  0.71030  Biso   1.000  C
  H7       1.0000 0.73840  0.67030  0.75990  Biso   1.000  H
  C8       1.0000 0.84744  0.69530  0.50100  Biso   1.000  C
  H8       1.0000 0.87230  0.71090  0.38030  Biso   1.000  H
  O5       1.0000 0.02290  0.93190  0.67730  Biso   1.000  O
  N7       1.0000 0.13913  0.83858  0.69840  Biso   1.000  N
  C9       1.0000 0.06818  0.91026  0.59850  Biso   1.000  C
  N8       1.0000 0.20677  0.79619  0.50060  Biso   1.000  N
  N9       1.0000 0.18514  0.85373  0.83630  Biso   1.000  N
  C10      1.0000 0.08546  0.86093  0.77040  Biso   1.000  C
  H9       1.0000 0.08630  0.87230  0.95690  Biso   1.000  H
  H10      1.0000 0.05780  0.83200  0.75300  Biso   1.000  H
  O6       1.0000 0.09573  0.92552  0.40760  Biso   1.000  O
  C11      1.0000 0.22456  0.82734  0.71030  Biso   1.000  C
  H11      1.0000 0.26160  0.82970  0.75990  Biso   1.000  H
  C12      1.0000 0.15256  0.80470  0.50100  Biso   1.000  C
  H12      1.0000 0.12770  0.78910  0.38030  Biso   1.000  H
  O7       1.0000 0.52290  0.43190  0.17730  Biso   1.000  O
  N10      1.0000 0.63913  0.33858  0.19840  Biso   1.000  N
  C13      1.0000 0.56818  0.41026  0.09850  Biso   1.000  C
  N11      1.0000 0.70677  0.29619  0.00060  Biso   1.000  N
  N12      1.0000 0.68514  0.35373  0.33630  Biso   1.000  N
  C14      1.0000 0.58546  0.36093  0.27040  Biso   1.000  C
  H13      1.0000 0.58630  0.37230  0.45690  Biso   1.000  H
  H14      1.0000 0.55780  0.33200  0.25300  Biso   1.000  H
  O8       1.0000 0.59573  0.42552  0.90760  Biso   1.000  O
  C15      1.0000 0.72456  0.32734  0.21030  Biso   1.000  C
  H15      1.0000 0.76160  0.32970  0.25990  Biso   1.000  H
  C16      1.0000 0.65256  0.30470  0.00100  Biso   1.000  C
  H16      1.0000 0.62770  0.28910  0.88030  Biso   1.000  H
  O9       1.0000 0.68190  0.72710  0.42730  Biso   1.000  O
  N13      1.0000 0.58858  0.61087  0.44840  Biso   1.000  N
  C17      1.0000 0.66026  0.68182  0.34850  Biso   1.000  C
  N14      1.0000 0.54619  0.54323  0.25060  Biso   1.000  N
  N15      1.0000 0.60373  0.56486  0.58630  Biso   1.000  N
  C18      1.0000 0.61093  0.66454  0.52040  Biso   1.000  C
  H17      1.0000 0.62230  0.66370  0.70690  Biso   1.000  H
  H18      1.0000 0.58200  0.69220  0.50300  Biso   1.000  H
  O10      1.0000 0.67552  0.65427  0.15760  Biso   1.000  O
  C19      1.0000 0.57734  0.52544  0.46030  Biso   1.000  C
  H19      1.0000 0.57970  0.48840  0.50990  Biso   1.000  H
  C20      1.0000 0.55470  0.59744  0.25100  Biso   1.000  C
  H20      1.0000 0.53910  0.62230  0.13030  Biso   1.000  H
  O11      1.0000 0.18190  0.22710  0.92730  Biso   1.000  O
  N16      1.0000 0.08858  0.11087  0.94840  Biso   1.000  N
  C21      1.0000 0.16026  0.18182  0.84850  Biso   1.000  C
  N17      1.0000 0.04619  0.04323  0.75060  Biso   1.000  N
  N18      1.0000 0.10373  0.06486  0.08630  Biso   1.000  N
  C22      1.0000 0.11093  0.16454  0.02040  Biso   1.000  C
  H21      1.0000 0.12230  0.16370  0.20690  Biso   1.000  H
  H22      1.0000 0.08200  0.19220  0.00300  Biso   1.000  H
  O12      1.0000 0.17552  0.15427  0.65760  Biso   1.000  O
  C23      1.0000 0.07734  0.02544  0.96030  Biso   1.000  C
  H23      1.0000 0.07970  0.98840  0.00990  Biso   1.000  H
  C24      1.0000 0.05470  0.09744  0.75100  Biso   1.000  C
  H24      1.0000 0.03910  0.12230  0.63030  Biso   1.000  H
  O13      1.0000 0.81810  0.27290  0.92730  Biso   1.000  O
  N19      1.0000 0.91142  0.38913  0.94840  Biso   1.000  N
  C25      1.0000 0.83974  0.31818  0.84850  Biso   1.000  C
  N20      1.0000 0.95381  0.45677  0.75060  Biso   1.000  N
  N21      1.0000 0.89627  0.43514  0.08630  Biso   1.000  N
  C26      1.0000 0.88907  0.33546  0.02040  Biso   1.000  C
  H25      1.0000 0.87770  0.33630  0.20690  Biso   1.000  H
  H26      1.0000 0.91800  0.30780  0.00300  Biso   1.000  H
  O14      1.0000 0.82448  0.34573  0.65760  Biso   1.000  O
  C27      1.0000 0.92266  0.47456  0.96030  Biso   1.000  C
  H27      1.0000 0.92030  0.51160  0.00990  Biso   1.000  H
  C28      1.0000 0.94530  0.40256  0.75100  Biso   1.000  C
  H28      1.0000 0.96090  0.37770  0.63030  Biso   1.000  H
  O15      1.0000 0.31810  0.77290  0.42730  Biso   1.000  O
  N22      1.0000 0.41142  0.88913  0.44840  Biso   1.000  N
  C29      1.0000 0.33974  0.81818  0.34850  Biso   1.000  C
  N23      1.0000 0.45381  0.95677  0.25060  Biso   1.000  N
  N24      1.0000 0.39627  0.93514  0.58630  Biso   1.000  N
  C30      1.0000 0.38907  0.83546  0.52040  Biso   1.000  C
  H29      1.0000 0.37770  0.83630  0.70690  Biso   1.000  H
  H30      1.0000 0.41800  0.80780  0.50300  Biso   1.000  H
  O16      1.0000 0.32448  0.84573  0.15760  Biso   1.000  O
  C31      1.0000 0.42266  0.97456  0.46030  Biso   1.000  C
  H31      1.0000 0.42030  0.01160  0.50990  Biso   1.000  H
  C32      1.0000 0.44530  0.90256  0.25100  Biso   1.000  C
  H32      1.0000 0.46090  0.87770  0.13030  Biso   1.000  H
  O17      1.0000 0.52290  0.93190  0.82270  Biso   1.000  O
  N25      1.0000 0.63913  0.83858  0.80160  Biso   1.000  N
  C33      1.0000 0.56818  0.91026  0.90150  Biso   1.000  C
  N26      1.0000 0.70677  0.79619  0.99940  Biso   1.000  N
  N27      1.0000 0.68514  0.85373  0.66370  Biso   1.000  N
  C34      1.0000 0.58546  0.86093  0.72960  Biso   1.000  C
  H33      1.0000 0.58630  0.87230  0.54310  Biso   1.000  H
  H34      1.0000 0.55780  0.83200  0.74700  Biso   1.000  H
  O18      1.0000 0.59573  0.92552  0.09240  Biso   1.000  O
  C35      1.0000 0.72456  0.82734  0.78970  Biso   1.000  C
  H35      1.0000 0.76160  0.82970  0.74010  Biso   1.000  H
  C36      1.0000 0.65256  0.80470  0.99900  Biso   1.000  C
  H36      1.0000 0.62770  0.78910  0.11970  Biso   1.000  H
  O19      1.0000 0.02290  0.43190  0.32270  Biso   1.000  O
  N28      1.0000 0.13913  0.33858  0.30160  Biso   1.000  N
  C37      1.0000 0.06818  0.41026  0.40150  Biso   1.000  C
  N29      1.0000 0.20677  0.29619  0.49940  Biso   1.000  N
  N30      1.0000 0.18514  0.35373  0.16370  Biso   1.000  N
  C38      1.0000 0.08546  0.36093  0.22960  Biso   1.000  C
  H37      1.0000 0.08630  0.37230  0.04310  Biso   1.000  H
  H38      1.0000 0.05780  0.33200  0.24700  Biso   1.000  H
  O20      1.0000 0.09573  0.42552  0.59240  Biso   1.000  O
  C39      1.0000 0.22456  0.32734  0.28970  Biso   1.000  C
  H39      1.0000 0.26160  0.32970  0.24010  Biso   1.000  H
  C40      1.0000 0.15256  0.30470  0.49900  Biso   1.000  C
  H40      1.0000 0.12770  0.28910  0.61970  Biso   1.000  H
  O21      1.0000 0.97710  0.06810  0.32270  Biso   1.000  O
  N31      1.0000 0.86087  0.16142  0.30160  Biso   1.000  N
  C41      1.0000 0.93182  0.08974  0.40150  Biso   1.000  C
  N32      1.0000 0.79323  0.20381  0.49940  Biso   1.000  N
  N33      1.0000 0.81486  0.14627  0.16370  Biso   1.000  N
  C42      1.0000 0.91454  0.13907  0.22960  Biso   1.000  C
  H41      1.0000 0.91370  0.12770  0.04310  Biso   1.000  H
  H42      1.0000 0.94220  0.16800  0.24700  Biso   1.000  H
  O22      1.0000 0.90427  0.07448  0.59240  Biso   1.000  O
  C43      1.0000 0.77544  0.17266  0.28970  Biso   1.000  C
  H43      1.0000 0.73840  0.17030  0.24010  Biso   1.000  H
  C44      1.0000 0.84744  0.19530  0.49900  Biso   1.000  C
  H44      1.0000 0.87230  0.21090  0.61970  Biso   1.000  H
  O23      1.0000 0.47710  0.56810  0.82270  Biso   1.000  O
  N34      1.0000 0.36087  0.66142  0.80160  Biso   1.000  N
  C45      1.0000 0.43182  0.58974  0.90150  Biso   1.000  C
  N35      1.0000 0.29323  0.70381  0.99940  Biso   1.000  N
  N36      1.0000 0.31486  0.64627  0.66370  Biso   1.000  N
  C46      1.0000 0.41454  0.63907  0.72960  Biso   1.000  C
  H45      1.0000 0.41370  0.62770  0.54310  Biso   1.000  H
  H46      1.0000 0.44220  0.66800  0.74700  Biso   1.000  H
  O24      1.0000 0.40427  0.57448  0.09240  Biso   1.000  O
  C47      1.0000 0.27544  0.67266  0.78970  Biso   1.000  C
  H47      1.0000 0.23840  0.67030  0.74010  Biso   1.000  H
  C48      1.0000 0.34744  0.69530  0.99900  Biso   1.000  C
  H48      1.0000 0.37230  0.71090  0.11970  Biso   1.000  H
  O25      1.0000 0.31810  0.27290  0.57270  Biso   1.000  O
  N37      1.0000 0.41142  0.38913  0.55160  Biso   1.000  N
  C49      1.0000 0.33974  0.31818  0.65150  Biso   1.000  C
  N38      1.0000 0.45381  0.45677  0.74940  Biso   1.000  N
  N39      1.0000 0.39627  0.43514  0.41370  Biso   1.000  N
  C50      1.0000 0.38907  0.33546  0.47960  Biso   1.000  C
  H49      1.0000 0.37770  0.33630  0.29310  Biso   1.000  H
  H50      1.0000 0.41800  0.30780  0.49700  Biso   1.000  H
  O26      1.0000 0.32448  0.34573  0.84240  Biso   1.000  O
  C51      1.0000 0.42266  0.47456  0.53970  Biso   1.000  C
  H51      1.0000 0.42030  0.51160  0.49010  Biso   1.000  H
  C52      1.0000 0.44530  0.40256  0.74900  Biso   1.000  C
  H52      1.0000 0.46090  0.37770  0.86970  Biso   1.000  H
  O27      1.0000 0.81810  0.77290  0.07270  Biso   1.000  O
  N40      1.0000 0.91142  0.88913  0.05160  Biso   1.000  N
  C53      1.0000 0.83974  0.81818  0.15150  Biso   1.000  C
  N41      1.0000 0.95381  0.95677  0.24940  Biso   1.000  N
  N42      1.0000 0.89627  0.93514  0.91370  Biso   1.000  N
  C54      1.0000 0.88907  0.83546  0.97960  Biso   1.000  C
  H53      1.0000 0.87770  0.83630  0.79310  Biso   1.000  H
  H54      1.0000 0.91800  0.80780  0.99700  Biso   1.000  H
  O28      1.0000 0.82448  0.84573  0.34240  Biso   1.000  O
  C55      1.0000 0.92266  0.97456  0.03970  Biso   1.000  C
  H55      1.0000 0.92030  0.01160  0.99010  Biso   1.000  H
  C56      1.0000 0.94530  0.90256  0.24900  Biso   1.000  C
  H56      1.0000 0.96090  0.87770  0.36970  Biso   1.000  H
  O29      1.0000 0.18190  0.72710  0.07270  Biso   1.000  O
  N43      1.0000 0.08858  0.61087  0.05160  Biso   1.000  N
  C57      1.0000 0.16026  0.68182  0.15150  Biso   1.000  C
  N44      1.0000 0.04619  0.54323  0.24940  Biso   1.000  N
  N45      1.0000 0.10373  0.56486  0.91370  Biso   1.000  N
  C58      1.0000 0.11093  0.66454  0.97960  Biso   1.000  C
  H57      1.0000 0.12230  0.66370  0.79310  Biso   1.000  H
  H58      1.0000 0.08200  0.69220  0.99700  Biso   1.000  H
  O30      1.0000 0.17552  0.65427  0.34240  Biso   1.000  O
  C59      1.0000 0.07734  0.52544  0.03970  Biso   1.000  C
  H59      1.0000 0.07970  0.48840  0.99010  Biso   1.000  H
  C60      1.0000 0.05470  0.59744  0.24900  Biso   1.000  C
  H60      1.0000 0.03910  0.62230  0.36970  Biso   1.000  H
  O31      1.0000 0.68190  0.22710  0.57270  Biso   1.000  O
  N46      1.0000 0.58858  0.11087  0.55160  Biso   1.000  N
  C61      1.0000 0.66026  0.18182  0.65150  Biso   1.000  C
  N47      1.0000 0.54619  0.04323  0.74940  Biso   1.000  N
  N48      1.0000 0.60373  0.06486  0.41370  Biso   1.000  N
  C62      1.0000 0.61093  0.16454  0.47960  Biso   1.000  C
  H61      1.0000 0.62230  0.16370  0.29310  Biso   1.000  H
  H62      1.0000 0.58200  0.19220  0.49700  Biso   1.000  H
  O32      1.0000 0.67552  0.15427  0.84240  Biso   1.000  O
  C63      1.0000 0.57734  0.02544  0.53970  Biso   1.000  C
  H63      1.0000 0.57970  0.98840  0.49010  Biso   1.000  H
  C64      1.0000 0.55470  0.09744  0.74900  Biso   1.000  C
  H64      1.0000 0.53910  0.12230  0.86970  Biso   1.000  H
  Cu1      1.0000 0.50000  0.00000  0.00000  Biso   1.000  Cu
  Cu2      1.0000 0.00000  0.50000  0.50000  Biso   1.000  Cu
  Cu3      1.0000 0.00000  0.00000  0.50000  Biso   1.000  Cu
  Cu4      1.0000 0.50000  0.50000  0.00000  Biso   1.000  Cu
  Cu5      1.0000 0.75000  0.75000  0.25000  Biso   1.000  Cu
  Cu6      1.0000 0.75000  0.25000  0.75000  Biso   1.000  Cu
  Cu7      1.0000 0.25000  0.25000  0.75000  Biso   1.000  Cu
  Cu8      1.0000 0.25000  0.75000  0.25000  Biso   1.000  Cu
