data_POLNAG_clean
_audit_creation_date              2014-07-02
_audit_creation_method            'Materials Studio'
_symmetry_space_group_name_H-M    'P1'
_symmetry_Int_Tables_number       1
_symmetry_cell_setting            triclinic
loop_
_symmetry_equiv_pos_as_xyz
  x,y,z
_cell_length_a                    9.6427
_cell_length_b                    9.9392
_cell_length_c                    9.9832
_cell_angle_alpha                 86.3030
_cell_angle_beta                  81.1180
_cell_angle_gamma                 65.2620
loop_
_atom_site_label
_atom_site_type_symbol
_atom_site_fract_x
_atom_site_fract_y
_atom_site_fract_z
_atom_site_U_iso_or_equiv
_atom_site_adp_type
_atom_site_occupancy
Cd1    Cd    0.95039   0.72492   0.54150   0.01267  Uiso   1.00
Cd2    Cd    0.04961   0.27508   0.45850   0.01267  Uiso   1.00
H1     H     0.17100   0.99430   0.80520   0.01267  Uiso   1.00
H2     H     0.82220   0.89760   0.99760   0.01267  Uiso   1.00
H3     H     0.49210   0.65670   0.66970   0.01267  Uiso   1.00
H4     H     0.70730   0.41930   0.32570   0.01267  Uiso   1.00
H5     H     0.44930   0.44900   0.89460   0.01267  Uiso   1.00
H6     H     0.41680   0.41360   0.05190   0.01267  Uiso   1.00
H7     H     0.19930   0.61130   0.96870   0.01267  Uiso   1.00
H8     H     0.29750   0.70890   0.94580   0.01267  Uiso   1.00
H9     H     0.23320   0.83240   0.39360   0.01267  Uiso   1.00
H10    H     0.07130   0.59840   0.21670   0.01267  Uiso   1.00
H11    H     0.82900   0.00570   0.19480   0.01267  Uiso   1.00
H12    H     0.17780   0.10240   0.00240   0.01267  Uiso   1.00
H13    H     0.50790   0.34330   0.33030   0.01267  Uiso   1.00
H14    H     0.29270   0.58070   0.67430   0.01267  Uiso   1.00
H15    H     0.55070   0.55100   0.10540   0.01267  Uiso   1.00
H16    H     0.58320   0.58640   0.94810   0.01267  Uiso   1.00
H17    H     0.80070   0.38870   0.03130   0.01267  Uiso   1.00
H18    H     0.70250   0.29110   0.05420   0.01267  Uiso   1.00
H19    H     0.76680   0.16760   0.60640   0.01267  Uiso   1.00
H20    H     0.92870   0.40160   0.78330   0.01267  Uiso   1.00
C1     C     0.99330   0.86290   0.75430   0.01267  Uiso   1.00
C2     C     0.99650   0.93500   0.88080   0.01267  Uiso   1.00
C3     C     0.10130   0.99650   0.88430   0.01267  Uiso   1.00
C4     C     0.89460   0.93920   0.99840   0.01267  Uiso   1.00
C5     C     0.75130   0.58740   0.49600   0.01267  Uiso   1.00
C6     C     0.61980   0.54430   0.49650   0.01267  Uiso   1.00
C7     C     0.49550   0.59310   0.60100   0.01267  Uiso   1.00
C8     C     0.62280   0.45210   0.39680   0.01267  Uiso   1.00
C9     C     0.43010   0.48860   0.98730   0.01267  Uiso   1.00
C10    C     0.28120   0.62980   0.00220   0.01267  Uiso   1.00
C11    C     0.21670   0.77920   0.32650   0.01267  Uiso   1.00
C12    C     0.12710   0.65340   0.23380   0.01267  Uiso   1.00
C13    C     0.00670   0.13710   0.24570   0.01267  Uiso   1.00
C14    C     0.00350   0.06500   0.11920   0.01267  Uiso   1.00
C15    C     0.89870   0.00350   0.11570   0.01267  Uiso   1.00
C16    C     0.10540   0.06080   0.00160   0.01267  Uiso   1.00
C17    C     0.24870   0.41260   0.50400   0.01267  Uiso   1.00
C18    C     0.38020   0.45570   0.50350   0.01267  Uiso   1.00
C19    C     0.50450   0.40690   0.39900   0.01267  Uiso   1.00
C20    C     0.37720   0.54790   0.60320   0.01267  Uiso   1.00
C21    C     0.56990   0.51140   0.01270   0.01267  Uiso   1.00
C22    C     0.71880   0.37020   0.99780   0.01267  Uiso   1.00
C23    C     0.78330   0.22080   0.67350   0.01267  Uiso   1.00
C24    C     0.87290   0.34660   0.76620   0.01267  Uiso   1.00
N1     N     0.23090   0.67920   0.14300   0.01267  Uiso   1.00
N2     N     0.28970   0.76040   0.20340   0.01267  Uiso   1.00
N3     N     0.11420   0.71580   0.35060   0.01267  Uiso   1.00
N4     N     0.76910   0.32080   0.85700   0.01267  Uiso   1.00
N5     N     0.71030   0.23960   0.79660   0.01267  Uiso   1.00
N6     N     0.88580   0.28420   0.64940   0.01267  Uiso   1.00
O1     O     0.06700   0.87720   0.64400   0.01267  Uiso   1.00
O2     O     0.91550   0.78600   0.76290   0.01267  Uiso   1.00
O3     O     0.73520   0.68520   0.57890   0.01267  Uiso   1.00
O4     O     0.87310   0.52560   0.41280   0.01267  Uiso   1.00
O5     O     0.93300   0.12280   0.35600   0.01267  Uiso   1.00
O6     O     0.08450   0.21400   0.23710   0.01267  Uiso   1.00
O7     O     0.26480   0.31480   0.42110   0.01267  Uiso   1.00
O8     O     0.12690   0.47440   0.58720   0.01267  Uiso   1.00
