data_POLYEW_clean
_audit_creation_date              2015-10-16
_audit_creation_method            'Materials Studio'
_symmetry_space_group_name_H-M    'P1'
_symmetry_Int_Tables_number       1
_symmetry_cell_setting            triclinic
loop_
_symmetry_equiv_pos_as_xyz
  x,y,z
_cell_length_a                    13.1723
_cell_length_b                    13.1723
_cell_length_c                    15.8670
_cell_angle_alpha                 92.6837
_cell_angle_beta                  92.6837
_cell_angle_gamma                 109.0930
loop_
_atom_site_label
_atom_site_type_symbol
_atom_site_fract_x
_atom_site_fract_y
_atom_site_fract_z
_atom_site_U_iso_or_equiv
_atom_site_adp_type
_atom_site_occupancy
Zn1    Zn    0.56280   0.57242   0.43922   0.01267  Uiso   1.00
Zn2    Zn    0.43720   0.42758   0.56078   0.01267  Uiso   1.00
Zn3    Zn    0.42758   0.43720   0.06078   0.01267  Uiso   1.00
Zn4    Zn    0.57242   0.56280   0.93922   0.01267  Uiso   1.00
H1     H     0.79450   0.81850   0.08910   0.01267  Uiso   1.00
H2     H     0.98580   0.74260   0.46240   0.01267  Uiso   1.00
H3     H     0.19470   0.91050   0.43140   0.01267  Uiso   1.00
H4     H     0.61730   0.01470   0.66590   0.01267  Uiso   1.00
H5     H     0.77160   0.74260   0.44280   0.01267  Uiso   1.00
H6     H     0.01420   0.25740   0.53760   0.01267  Uiso   1.00
H7     H     0.44570   0.96630   0.90070   0.01267  Uiso   1.00
H8     H     0.50010   0.82970   0.85620   0.01267  Uiso   1.00
H9     H     0.18150   0.20550   0.41090   0.01267  Uiso   1.00
H10    H     0.90860   0.94920   0.22070   0.01267  Uiso   1.00
H11    H     0.00580   0.81140   0.13540   0.01267  Uiso   1.00
H12    H     0.24260   0.00480   0.93760   0.01267  Uiso   1.00
H13    H     0.33230   0.70090   0.16800   0.01267  Uiso   1.00
H14    H     0.18860   0.99420   0.36460   0.01267  Uiso   1.00
H15    H     0.79640   0.10000   0.01130   0.01267  Uiso   1.00
H16    H     0.85420   0.32000   0.73510   0.01267  Uiso   1.00
H17    H     0.34620   0.25240   0.83190   0.01267  Uiso   1.00
H18    H     0.38270   0.98530   0.33410   0.01267  Uiso   1.00
H19    H     0.96630   0.44570   0.40070   0.01267  Uiso   1.00
H20    H     0.03370   0.55430   0.59930   0.01267  Uiso   1.00
H21    H     0.29910   0.66770   0.33200   0.01267  Uiso   1.00
H22    H     0.94920   0.90860   0.72070   0.01267  Uiso   1.00
H23    H     0.81850   0.79450   0.58910   0.01267  Uiso   1.00
H24    H     0.13580   0.39620   0.91820   0.01267  Uiso   1.00
H25    H     0.20360   0.90000   0.98870   0.01267  Uiso   1.00
H26    H     0.70090   0.33230   0.66800   0.01267  Uiso   1.00
H27    H     0.90000   0.20360   0.48870   0.01267  Uiso   1.00
H28    H     0.12050   0.43870   0.47120   0.01267  Uiso   1.00
H29    H     0.66770   0.29910   0.83200   0.01267  Uiso   1.00
H30    H     0.49990   0.17030   0.14380   0.01267  Uiso   1.00
H31    H     0.74260   0.77160   0.94280   0.01267  Uiso   1.00
H32    H     0.48210   0.67810   0.77110   0.01267  Uiso   1.00
H33    H     0.82970   0.50010   0.35620   0.01267  Uiso   1.00
H34    H     0.43870   0.12050   0.97120   0.01267  Uiso   1.00
H35    H     0.75740   0.99520   0.06240   0.01267  Uiso   1.00
H36    H     0.36130   0.45070   0.23950   0.01267  Uiso   1.00
H37    H     0.22840   0.25740   0.55720   0.01267  Uiso   1.00
H38    H     0.32000   0.85420   0.23510   0.01267  Uiso   1.00
H39    H     0.80530   0.08950   0.56860   0.01267  Uiso   1.00
H40    H     0.13930   0.11770   0.14370   0.01267  Uiso   1.00
H41    H     0.87540   0.10540   0.85560   0.01267  Uiso   1.00
H42    H     0.51790   0.32190   0.22890   0.01267  Uiso   1.00
H43    H     0.74260   0.98580   0.96240   0.01267  Uiso   1.00
H44    H     0.74760   0.65380   0.66810   0.01267  Uiso   1.00
H45    H     0.54930   0.63870   0.26050   0.01267  Uiso   1.00
H46    H     0.88230   0.86070   0.35630   0.01267  Uiso   1.00
H47    H     0.68000   0.14580   0.76490   0.01267  Uiso   1.00
H48    H     0.10000   0.79640   0.51130   0.01267  Uiso   1.00
H49    H     0.05080   0.09140   0.27930   0.01267  Uiso   1.00
H50    H     0.32190   0.51790   0.72890   0.01267  Uiso   1.00
H51    H     0.17030   0.49990   0.64380   0.01267  Uiso   1.00
H52    H     0.08950   0.80530   0.06860   0.01267  Uiso   1.00
H53    H     0.99420   0.18860   0.86460   0.01267  Uiso   1.00
H54    H     0.63870   0.54930   0.76050   0.01267  Uiso   1.00
H55    H     0.87950   0.56130   0.52880   0.01267  Uiso   1.00
H56    H     0.65380   0.74760   0.16810   0.01267  Uiso   1.00
H57    H     0.67810   0.48210   0.27110   0.01267  Uiso   1.00
H58    H     0.09140   0.05080   0.77930   0.01267  Uiso   1.00
H59    H     0.99520   0.75740   0.56240   0.01267  Uiso   1.00
H60    H     0.14580   0.68000   0.26490   0.01267  Uiso   1.00
H61    H     0.55430   0.03370   0.09930   0.01267  Uiso   1.00
H62    H     0.25740   0.22840   0.05720   0.01267  Uiso   1.00
H63    H     0.45070   0.36130   0.73950   0.01267  Uiso   1.00
H64    H     0.20550   0.18150   0.91090   0.01267  Uiso   1.00
H65    H     0.12460   0.89460   0.14440   0.01267  Uiso   1.00
H66    H     0.01470   0.61730   0.16590   0.01267  Uiso   1.00
H67    H     0.98530   0.38270   0.83410   0.01267  Uiso   1.00
H68    H     0.39620   0.13580   0.41820   0.01267  Uiso   1.00
H69    H     0.11770   0.13930   0.64370   0.01267  Uiso   1.00
H70    H     0.91050   0.19470   0.93140   0.01267  Uiso   1.00
H71    H     0.60380   0.86420   0.58180   0.01267  Uiso   1.00
H72    H     0.89460   0.12460   0.64440   0.01267  Uiso   1.00
H73    H     0.00480   0.24260   0.43760   0.01267  Uiso   1.00
H74    H     0.86420   0.60380   0.08180   0.01267  Uiso   1.00
H75    H     0.86070   0.88230   0.85630   0.01267  Uiso   1.00
H76    H     0.10540   0.87540   0.35560   0.01267  Uiso   1.00
H77    H     0.56130   0.87950   0.02880   0.01267  Uiso   1.00
H78    H     0.81140   0.00580   0.63540   0.01267  Uiso   1.00
H79    H     0.25240   0.34620   0.33190   0.01267  Uiso   1.00
H80    H     0.25740   0.01420   0.03760   0.01267  Uiso   1.00
C1     C     0.24840   0.32080   0.27510   0.01267  Uiso   1.00
C2     C     0.12610   0.48490   0.42710   0.01267  Uiso   1.00
C3     C     0.41110   0.05350   0.31250   0.01267  Uiso   1.00
C4     C     0.45960   0.24500   0.33300   0.01267  Uiso   1.00
C5     C     0.07030   0.05850   0.94340   0.01267  Uiso   1.00
C6     C     0.77440   0.45380   0.59470   0.01267  Uiso   1.00
C7     C     0.51010   0.96630   0.11480   0.01267  Uiso   1.00
C8     C     0.25390   0.25350   0.61280   0.01267  Uiso   1.00
C9     C     0.16300   0.48100   0.70010   0.01267  Uiso   1.00
C10    C     0.14000   0.62780   0.30450   0.01267  Uiso   1.00
C11    C     0.05850   0.07030   0.44340   0.01267  Uiso   1.00
C12    C     0.58890   0.94650   0.68750   0.01267  Uiso   1.00
C13    C     0.96980   0.07080   0.94910   0.01267  Uiso   1.00
C14    C     0.23150   0.62110   0.34500   0.01267  Uiso   1.00
C15    C     0.18320   0.18700   0.16460   0.01267  Uiso   1.00
C16    C     0.85680   0.58120   0.13720   0.01267  Uiso   1.00
C17    C     0.06020   0.44420   0.73010   0.01267  Uiso   1.00
C18    C     0.17750   0.22270   0.24830   0.01267  Uiso   1.00
C19    C     0.34190   0.47050   0.89040   0.01267  Uiso   1.00
C20    C     0.54620   0.22560   0.90530   0.01267  Uiso   1.00
C21    C     0.51510   0.87390   0.07290   0.01267  Uiso   1.00
C22    C     0.14700   0.11020   0.80510   0.01267  Uiso   1.00
C23    C     0.06570   0.85330   0.10470   0.01267  Uiso   1.00
C24    C     0.32080   0.24840   0.77510   0.01267  Uiso   1.00
C25    C     0.48100   0.16300   0.20010   0.01267  Uiso   1.00
C26    C     0.45380   0.77440   0.09470   0.01267  Uiso   1.00
C27    C     0.61740   0.68580   0.28080   0.01267  Uiso   1.00
C28    C     0.98870   0.10110   0.49360   0.01267  Uiso   1.00
C29    C     0.46900   0.67420   0.05660   0.01267  Uiso   1.00
C30    C     0.02420   0.78900   0.51110   0.01267  Uiso   1.00
C31    C     0.74610   0.74650   0.38720   0.01267  Uiso   1.00
C32    C     0.01130   0.89890   0.50640   0.01267  Uiso   1.00
C33    C     0.52950   0.65810   0.60960   0.01267  Uiso   1.00
C34    C     0.92920   0.03020   0.55090   0.01267  Uiso   1.00
C35    C     0.24500   0.45960   0.83300   0.01267  Uiso   1.00
C36    C     0.05350   0.41110   0.81250   0.01267  Uiso   1.00
C37    C     0.55870   0.03810   0.82060   0.01267  Uiso   1.00
C38    C     0.94650   0.58890   0.18750   0.01267  Uiso   1.00
C39    C     0.25350   0.25390   0.11280   0.01267  Uiso   1.00
C40    C     0.92970   0.94150   0.05660   0.01267  Uiso   1.00
C41    C     0.51900   0.83700   0.79990   0.01267  Uiso   1.00
C42    C     0.41880   0.14320   0.36280   0.01267  Uiso   1.00
C43    C     0.78900   0.02420   0.01110   0.01267  Uiso   1.00
C44    C     0.03810   0.55870   0.32060   0.01267  Uiso   1.00
C45    C     0.85170   0.87650   0.11480   0.01267  Uiso   1.00
C46    C     0.14830   0.12350   0.88520   0.01267  Uiso   1.00
C47    C     0.67920   0.75160   0.22490   0.01267  Uiso   1.00
C48    C     0.94150   0.92970   0.55660   0.01267  Uiso   1.00
C49    C     0.93980   0.55580   0.26990   0.01267  Uiso   1.00
C50    C     0.67420   0.46900   0.55660   0.01267  Uiso   1.00
C51    C     0.38260   0.31420   0.71920   0.01267  Uiso   1.00
C52    C     0.50960   0.74640   0.74950   0.01267  Uiso   1.00
C53    C     0.77730   0.82250   0.25170   0.01267  Uiso   1.00
C54    C     0.76850   0.37890   0.65500   0.01267  Uiso   1.00
C55    C     0.03020   0.92920   0.05090   0.01267  Uiso   1.00
C56    C     0.53100   0.32580   0.94340   0.01267  Uiso   1.00
C57    C     0.81680   0.81300   0.83540   0.01267  Uiso   1.00
C58    C     0.12350   0.14830   0.38520   0.01267  Uiso   1.00
C59    C     0.07080   0.96980   0.44910   0.01267  Uiso   1.00
C60    C     0.74640   0.50960   0.24950   0.01267  Uiso   1.00
C61    C     0.83700   0.51900   0.29990   0.01267  Uiso   1.00
C62    C     0.62110   0.23150   0.84500   0.01267  Uiso   1.00
C63    C     0.22270   0.17750   0.74830   0.01267  Uiso   1.00
C64    C     0.55580   0.93980   0.76990   0.01267  Uiso   1.00
C65    C     0.22560   0.54620   0.40530   0.01267  Uiso   1.00
C66    C     0.10110   0.98870   0.99360   0.01267  Uiso   1.00
C67    C     0.37220   0.86000   0.19550   0.01267  Uiso   1.00
C68    C     0.37890   0.76850   0.15500   0.01267  Uiso   1.00
C69    C     0.82250   0.77730   0.75170   0.01267  Uiso   1.00
C70    C     0.31420   0.38260   0.21920   0.01267  Uiso   1.00
C71    C     0.75500   0.54040   0.16700   0.01267  Uiso   1.00
C72    C     0.65810   0.52950   0.10960   0.01267  Uiso   1.00
C73    C     0.81300   0.81680   0.33540   0.01267  Uiso   1.00
C74    C     0.85300   0.88980   0.19490   0.01267  Uiso   1.00
C75    C     0.32580   0.53100   0.44340   0.01267  Uiso   1.00
C76    C     0.14670   0.93430   0.39530   0.01267  Uiso   1.00
C77    C     0.47050   0.34190   0.39040   0.01267  Uiso   1.00
C78    C     0.25360   0.49040   0.75050   0.01267  Uiso   1.00
C79    C     0.96630   0.51010   0.61480   0.01267  Uiso   1.00
C80    C     0.75160   0.67920   0.72490   0.01267  Uiso   1.00
C81    C     0.87650   0.85170   0.61480   0.01267  Uiso   1.00
C82    C     0.48990   0.03370   0.88520   0.01267  Uiso   1.00
C83    C     0.49040   0.25360   0.25050   0.01267  Uiso   1.00
C84    C     0.58120   0.85680   0.63720   0.01267  Uiso   1.00
C85    C     0.86000   0.37220   0.69550   0.01267  Uiso   1.00
C86    C     0.14320   0.41880   0.86280   0.01267  Uiso   1.00
C87    C     0.48490   0.12610   0.92710   0.01267  Uiso   1.00
C88    C     0.44130   0.96190   0.17940   0.01267  Uiso   1.00
C89    C     0.97580   0.21100   0.48890   0.01267  Uiso   1.00
C90    C     0.18700   0.18320   0.66460   0.01267  Uiso   1.00
C91    C     0.93430   0.14670   0.89530   0.01267  Uiso   1.00
C92    C     0.89890   0.01130   0.00640   0.01267  Uiso   1.00
C93    C     0.03370   0.48990   0.38520   0.01267  Uiso   1.00
C94    C     0.21100   0.97580   0.98890   0.01267  Uiso   1.00
C95    C     0.87390   0.51510   0.57290   0.01267  Uiso   1.00
C96    C     0.96190   0.44130   0.67940   0.01267  Uiso   1.00
C97    C     0.88980   0.85300   0.69490   0.01267  Uiso   1.00
C98    C     0.62780   0.14000   0.80450   0.01267  Uiso   1.00
C99    C     0.74650   0.74610   0.88720   0.01267  Uiso   1.00
C100   C     0.85330   0.06570   0.60470   0.01267  Uiso   1.00
C101   C     0.44420   0.06020   0.23010   0.01267  Uiso   1.00
C102   C     0.68580   0.61740   0.78080   0.01267  Uiso   1.00
C103   C     0.54040   0.75500   0.66700   0.01267  Uiso   1.00
C104   C     0.11020   0.14700   0.30510   0.01267  Uiso   1.00
N1     N     0.68400   0.64680   0.86080   0.01267  Uiso   1.00
N2     N     0.35320   0.31600   0.63920   0.01267  Uiso   1.00
N3     N     0.64680   0.68400   0.36080   0.01267  Uiso   1.00
N4     N     0.31600   0.35320   0.13920   0.01267  Uiso   1.00
O1     O     0.42025   0.58715   0.08840   0.01267  Uiso   1.00
O2     O     0.57975   0.41285   0.91160   0.01267  Uiso   1.00
O3     O     0.43310   0.52230   0.86620   0.01267  Uiso   1.00
O4     O     0.67447   0.57353   0.04128   0.01267  Uiso   1.00
O5     O     0.57353   0.67447   0.54128   0.01267  Uiso   1.00
O6     O     0.47770   0.56690   0.63380   0.01267  Uiso   1.00
O7     O     0.41285   0.57975   0.41160   0.01267  Uiso   1.00
O8     O     0.31574   0.46926   0.50280   0.01267  Uiso   1.00
O9     O     0.58715   0.42025   0.58840   0.01267  Uiso   1.00
O10    O     0.42647   0.32553   0.45872   0.01267  Uiso   1.00
O11    O     0.46926   0.31574   0.00280   0.01267  Uiso   1.00
O12    O     0.52230   0.43310   0.36620   0.01267  Uiso   1.00
O13    O     0.32553   0.42647   0.95872   0.01267  Uiso   1.00
O14    O     0.56690   0.47770   0.13380   0.01267  Uiso   1.00
O15    O     0.68426   0.53074   0.49720   0.01267  Uiso   1.00
O16    O     0.53074   0.68426   0.99720   0.01267  Uiso   1.00
