data_image0
_cell_length_a       21.9173
_cell_length_b       21.9173
_cell_length_c       28.2685
_cell_angle_alpha    90
_cell_angle_beta     90
_cell_angle_gamma    120

_symmetry_space_group_name_H-M    "P 1"
_symmetry_int_tables_number       1

loop_
  _symmetry_equiv_pos_as_xyz
  'x, y, z'

loop_
  _atom_site_label
  _atom_site_occupancy
  _atom_site_fract_x
  _atom_site_fract_y
  _atom_site_fract_z
  _atom_site_thermal_displace_type
  _atom_site_B_iso_or_equiv
  _atom_site_type_symbol
  O1       1.0000 0.20310  0.56650  0.44350  Biso   1.000  O
  O2       1.0000 0.28100  0.52760  0.44540  Biso   1.000  O
  I1       1.0000 0.07657  0.46421  0.19169  Biso   1.000  I
  Cu1      1.0000 0.05067  0.48250  0.28233  Biso   1.000  Cu
  C1       1.0000 0.23030  0.53200  0.42830  Biso   1.000  C
  C2       1.0000 0.14980  0.50280  0.35920  Biso   1.000  C
  H1       1.0000 0.13760  0.53620  0.37050  Biso   1.000  H
  C3       1.0000 0.13270  0.41070  0.30790  Biso   1.000  C
  H2       1.0000 0.10150  0.37530  0.28660  Biso   1.000  H
  C4       1.0000 0.19880  0.48940  0.38560  Biso   1.000  C
  N1       1.0000 0.12130  0.46690  0.31780  Biso   1.000  N
  C5       1.0000 0.22290  0.44680  0.36820  Biso   1.000  C
  H3       1.0000 0.26140  0.44480  0.38200  Biso   1.000  H
  C6       1.0000 0.18450  0.40440  0.32650  Biso   1.000  C
  H4       1.0000 0.19710  0.37240  0.31310  Biso   1.000  H
  O3       1.0000 0.43350  0.63660  0.44350  Biso   1.000  O
  O4       1.0000 0.47240  0.75340  0.44540  Biso   1.000  O
  I2       1.0000 0.53579  0.61236  0.19169  Biso   1.000  I
  Cu2      1.0000 0.51750  0.56817  0.28233  Biso   1.000  Cu
  C7       1.0000 0.46800  0.69830  0.42830  Biso   1.000  C
  C8       1.0000 0.49720  0.64700  0.35920  Biso   1.000  C
  H5       1.0000 0.46380  0.60140  0.37050  Biso   1.000  H
  C9       1.0000 0.58930  0.72200  0.30790  Biso   1.000  C
  H6       1.0000 0.62470  0.72620  0.28660  Biso   1.000  H
  C10      1.0000 0.51060  0.70940  0.38560  Biso   1.000  C
  N2       1.0000 0.53310  0.65440  0.31780  Biso   1.000  N
  C11      1.0000 0.55320  0.77610  0.36820  Biso   1.000  C
  H7       1.0000 0.55520  0.81660  0.38200  Biso   1.000  H
  C12      1.0000 0.59560  0.78010  0.32650  Biso   1.000  C
  H8       1.0000 0.62760  0.82470  0.31310  Biso   1.000  H
  O5       1.0000 0.36340  0.79690  0.44350  Biso   1.000  O
  O6       1.0000 0.24660  0.71900  0.44540  Biso   1.000  O
  I3       1.0000 0.38764  0.92343  0.19169  Biso   1.000  I
  Cu3      1.0000 0.43183  0.94933  0.28233  Biso   1.000  Cu
  C13      1.0000 0.30170  0.76970  0.42830  Biso   1.000  C
  C14      1.0000 0.35300  0.85020  0.35920  Biso   1.000  C
  H9       1.0000 0.39860  0.86240  0.37050  Biso   1.000  H
  C15      1.0000 0.27800  0.86730  0.30790  Biso   1.000  C
  H10      1.0000 0.27380  0.89850  0.28660  Biso   1.000  H
  C16      1.0000 0.29060  0.80120  0.38560  Biso   1.000  C
  N3       1.0000 0.34560  0.87870  0.31780  Biso   1.000  N
  C17      1.0000 0.22390  0.77710  0.36820  Biso   1.000  C
  H11      1.0000 0.18340  0.73860  0.38200  Biso   1.000  H
  C18      1.0000 0.21990  0.81550  0.32650  Biso   1.000  C
  H12      1.0000 0.17530  0.80290  0.31310  Biso   1.000  H
  O7       1.0000 0.79690  0.43350  0.44350  Biso   1.000  O
  O8       1.0000 0.71900  0.47240  0.44540  Biso   1.000  O
  I4       1.0000 0.92343  0.53579  0.19169  Biso   1.000  I
  Cu4      1.0000 0.94933  0.51750  0.28233  Biso   1.000  Cu
  C19      1.0000 0.76970  0.46800  0.42830  Biso   1.000  C
  C20      1.0000 0.85020  0.49720  0.35920  Biso   1.000  C
  H13      1.0000 0.86240  0.46380  0.37050  Biso   1.000  H
  C21      1.0000 0.86730  0.58930  0.30790  Biso   1.000  C
  H14      1.0000 0.89850  0.62470  0.28660  Biso   1.000  H
  C22      1.0000 0.80120  0.51060  0.38560  Biso   1.000  C
  N4       1.0000 0.87870  0.53310  0.31780  Biso   1.000  N
  C23      1.0000 0.77710  0.55320  0.36820  Biso   1.000  C
  H15      1.0000 0.73860  0.55520  0.38200  Biso   1.000  H
  C24      1.0000 0.81550  0.59560  0.32650  Biso   1.000  C
  H16      1.0000 0.80290  0.62760  0.31310  Biso   1.000  H
  O9       1.0000 0.56650  0.36340  0.44350  Biso   1.000  O
  O10      1.0000 0.52760  0.24660  0.44540  Biso   1.000  O
  I5       1.0000 0.46421  0.38764  0.19169  Biso   1.000  I
  Cu5      1.0000 0.48250  0.43183  0.28233  Biso   1.000  Cu
  C25      1.0000 0.53200  0.30170  0.42830  Biso   1.000  C
  C26      1.0000 0.50280  0.35300  0.35920  Biso   1.000  C
  H17      1.0000 0.53620  0.39860  0.37050  Biso   1.000  H
  C27      1.0000 0.41070  0.27800  0.30790  Biso   1.000  C
  H18      1.0000 0.37530  0.27380  0.28660  Biso   1.000  H
  C28      1.0000 0.48940  0.29060  0.38560  Biso   1.000  C
  N5       1.0000 0.46690  0.34560  0.31780  Biso   1.000  N
  C29      1.0000 0.44680  0.22390  0.36820  Biso   1.000  C
  H19      1.0000 0.44480  0.18340  0.38200  Biso   1.000  H
  C30      1.0000 0.40440  0.21990  0.32650  Biso   1.000  C
  H20      1.0000 0.37240  0.17530  0.31310  Biso   1.000  H
  O11      1.0000 0.63660  0.20310  0.44350  Biso   1.000  O
  O12      1.0000 0.75340  0.28100  0.44540  Biso   1.000  O
  I6       1.0000 0.61236  0.07657  0.19169  Biso   1.000  I
  Cu6      1.0000 0.56817  0.05067  0.28233  Biso   1.000  Cu
  C31      1.0000 0.69830  0.23030  0.42830  Biso   1.000  C
  C32      1.0000 0.64700  0.14980  0.35920  Biso   1.000  C
  H21      1.0000 0.60140  0.13760  0.37050  Biso   1.000  H
  C33      1.0000 0.72200  0.13270  0.30790  Biso   1.000  C
  H22      1.0000 0.72620  0.10150  0.28660  Biso   1.000  H
  C34      1.0000 0.70940  0.19880  0.38560  Biso   1.000  C
  N6       1.0000 0.65440  0.12130  0.31780  Biso   1.000  N
  C35      1.0000 0.77610  0.22290  0.36820  Biso   1.000  C
  H23      1.0000 0.81660  0.26140  0.38200  Biso   1.000  H
  C36      1.0000 0.78010  0.18450  0.32650  Biso   1.000  C
  H24      1.0000 0.82470  0.19710  0.31310  Biso   1.000  H
  O13      1.0000 0.56650  0.20310  0.05650  Biso   1.000  O
  O14      1.0000 0.52760  0.28100  0.05460  Biso   1.000  O
  I7       1.0000 0.46421  0.07657  0.30831  Biso   1.000  I
  Cu7      1.0000 0.48250  0.05067  0.21767  Biso   1.000  Cu
  C37      1.0000 0.53200  0.23030  0.07170  Biso   1.000  C
  C38      1.0000 0.50280  0.14980  0.14080  Biso   1.000  C
  H25      1.0000 0.53620  0.13760  0.12950  Biso   1.000  H
  C39      1.0000 0.41070  0.13270  0.19210  Biso   1.000  C
  H26      1.0000 0.37530  0.10150  0.21340  Biso   1.000  H
  C40      1.0000 0.48940  0.19880  0.11440  Biso   1.000  C
  N7       1.0000 0.46690  0.12130  0.18220  Biso   1.000  N
  C41      1.0000 0.44680  0.22290  0.13180  Biso   1.000  C
  H27      1.0000 0.44480  0.26140  0.11800  Biso   1.000  H
  C42      1.0000 0.40440  0.18450  0.17350  Biso   1.000  C
  H28      1.0000 0.37240  0.19710  0.18690  Biso   1.000  H
  O15      1.0000 0.63660  0.43350  0.05650  Biso   1.000  O
  O16      1.0000 0.75340  0.47240  0.05460  Biso   1.000  O
  I8       1.0000 0.61236  0.53579  0.30831  Biso   1.000  I
  Cu8      1.0000 0.56817  0.51750  0.21767  Biso   1.000  Cu
  C43      1.0000 0.69830  0.46800  0.07170  Biso   1.000  C
  C44      1.0000 0.64700  0.49720  0.14080  Biso   1.000  C
  H29      1.0000 0.60140  0.46380  0.12950  Biso   1.000  H
  C45      1.0000 0.72200  0.58930  0.19210  Biso   1.000  C
  H30      1.0000 0.72620  0.62470  0.21340  Biso   1.000  H
  C46      1.0000 0.70940  0.51060  0.11440  Biso   1.000  C
  N8       1.0000 0.65440  0.53310  0.18220  Biso   1.000  N
  C47      1.0000 0.77610  0.55320  0.13180  Biso   1.000  C
  H31      1.0000 0.81660  0.55520  0.11800  Biso   1.000  H
  C48      1.0000 0.78010  0.59560  0.17350  Biso   1.000  C
  H32      1.0000 0.82470  0.62760  0.18690  Biso   1.000  H
  O17      1.0000 0.79690  0.36340  0.05650  Biso   1.000  O
  O18      1.0000 0.71900  0.24660  0.05460  Biso   1.000  O
  I9       1.0000 0.92343  0.38764  0.30831  Biso   1.000  I
  Cu9      1.0000 0.94933  0.43183  0.21767  Biso   1.000  Cu
  C49      1.0000 0.76970  0.30170  0.07170  Biso   1.000  C
  C50      1.0000 0.85020  0.35300  0.14080  Biso   1.000  C
  H33      1.0000 0.86240  0.39860  0.12950  Biso   1.000  H
  C51      1.0000 0.86730  0.27800  0.19210  Biso   1.000  C
  H34      1.0000 0.89850  0.27380  0.21340  Biso   1.000  H
  C52      1.0000 0.80120  0.29060  0.11440  Biso   1.000  C
  N9       1.0000 0.87870  0.34560  0.18220  Biso   1.000  N
  C53      1.0000 0.77710  0.22390  0.13180  Biso   1.000  C
  H35      1.0000 0.73860  0.18340  0.11800  Biso   1.000  H
  C54      1.0000 0.81550  0.21990  0.17350  Biso   1.000  C
  H36      1.0000 0.80290  0.17530  0.18690  Biso   1.000  H
  O19      1.0000 0.43350  0.79690  0.05650  Biso   1.000  O
  O20      1.0000 0.47240  0.71900  0.05460  Biso   1.000  O
  I10      1.0000 0.53579  0.92343  0.30831  Biso   1.000  I
  Cu10     1.0000 0.51750  0.94933  0.21767  Biso   1.000  Cu
  C55      1.0000 0.46800  0.76970  0.07170  Biso   1.000  C
  C56      1.0000 0.49720  0.85020  0.14080  Biso   1.000  C
  H37      1.0000 0.46380  0.86240  0.12950  Biso   1.000  H
  C57      1.0000 0.58930  0.86730  0.19210  Biso   1.000  C
  H38      1.0000 0.62470  0.89850  0.21340  Biso   1.000  H
  C58      1.0000 0.51060  0.80120  0.11440  Biso   1.000  C
  N10      1.0000 0.53310  0.87870  0.18220  Biso   1.000  N
  C59      1.0000 0.55320  0.77710  0.13180  Biso   1.000  C
  H39      1.0000 0.55520  0.73860  0.11800  Biso   1.000  H
  C60      1.0000 0.59560  0.81550  0.17350  Biso   1.000  C
  H40      1.0000 0.62760  0.80290  0.18690  Biso   1.000  H
  O21      1.0000 0.36340  0.56650  0.05650  Biso   1.000  O
  O22      1.0000 0.24660  0.52760  0.05460  Biso   1.000  O
  I11      1.0000 0.38764  0.46421  0.30831  Biso   1.000  I
  Cu11     1.0000 0.43183  0.48250  0.21767  Biso   1.000  Cu
  C61      1.0000 0.30170  0.53200  0.07170  Biso   1.000  C
  C62      1.0000 0.35300  0.50280  0.14080  Biso   1.000  C
  H41      1.0000 0.39860  0.53620  0.12950  Biso   1.000  H
  C63      1.0000 0.27800  0.41070  0.19210  Biso   1.000  C
  H42      1.0000 0.27380  0.37530  0.21340  Biso   1.000  H
  C64      1.0000 0.29060  0.48940  0.11440  Biso   1.000  C
  N11      1.0000 0.34560  0.46690  0.18220  Biso   1.000  N
  C65      1.0000 0.22390  0.44680  0.13180  Biso   1.000  C
  H43      1.0000 0.18340  0.44480  0.11800  Biso   1.000  H
  C66      1.0000 0.21990  0.40440  0.17350  Biso   1.000  C
  H44      1.0000 0.17530  0.37240  0.18690  Biso   1.000  H
  O23      1.0000 0.20310  0.63660  0.05650  Biso   1.000  O
  O24      1.0000 0.28100  0.75340  0.05460  Biso   1.000  O
  I12      1.0000 0.07657  0.61236  0.30831  Biso   1.000  I
  Cu12     1.0000 0.05067  0.56817  0.21767  Biso   1.000  Cu
  C67      1.0000 0.23030  0.69830  0.07170  Biso   1.000  C
  C68      1.0000 0.14980  0.64700  0.14080  Biso   1.000  C
  H45      1.0000 0.13760  0.60140  0.12950  Biso   1.000  H
  C69      1.0000 0.13270  0.72200  0.19210  Biso   1.000  C
  H46      1.0000 0.10150  0.72620  0.21340  Biso   1.000  H
  C70      1.0000 0.19880  0.70940  0.11440  Biso   1.000  C
  N12      1.0000 0.12130  0.65440  0.18220  Biso   1.000  N
  C71      1.0000 0.22290  0.77610  0.13180  Biso   1.000  C
  H47      1.0000 0.26140  0.81660  0.11800  Biso   1.000  H
  C72      1.0000 0.18450  0.78010  0.17350  Biso   1.000  C
  H48      1.0000 0.19710  0.82470  0.18690  Biso   1.000  H
  O25      1.0000 0.79690  0.43350  0.55650  Biso   1.000  O
  O26      1.0000 0.71900  0.47240  0.55460  Biso   1.000  O
  I13      1.0000 0.92343  0.53579  0.80831  Biso   1.000  I
  Cu13     1.0000 0.94933  0.51750  0.71767  Biso   1.000  Cu
  C73      1.0000 0.76970  0.46800  0.57170  Biso   1.000  C
  C74      1.0000 0.85020  0.49720  0.64080  Biso   1.000  C
  H49      1.0000 0.86240  0.46380  0.62950  Biso   1.000  H
  C75      1.0000 0.86730  0.58930  0.69210  Biso   1.000  C
  H50      1.0000 0.89850  0.62470  0.71340  Biso   1.000  H
  C76      1.0000 0.80120  0.51060  0.61440  Biso   1.000  C
  N13      1.0000 0.87870  0.53310  0.68220  Biso   1.000  N
  C77      1.0000 0.77710  0.55320  0.63180  Biso   1.000  C
  H51      1.0000 0.73860  0.55520  0.61800  Biso   1.000  H
  C78      1.0000 0.81550  0.59560  0.67350  Biso   1.000  C
  H52      1.0000 0.80290  0.62760  0.68690  Biso   1.000  H
  O27      1.0000 0.56650  0.36340  0.55650  Biso   1.000  O
  O28      1.0000 0.52760  0.24660  0.55460  Biso   1.000  O
  I14      1.0000 0.46421  0.38764  0.80831  Biso   1.000  I
  Cu14     1.0000 0.48250  0.43183  0.71767  Biso   1.000  Cu
  C79      1.0000 0.53200  0.30170  0.57170  Biso   1.000  C
  C80      1.0000 0.50280  0.35300  0.64080  Biso   1.000  C
  H53      1.0000 0.53620  0.39860  0.62950  Biso   1.000  H
  C81      1.0000 0.41070  0.27800  0.69210  Biso   1.000  C
  H54      1.0000 0.37530  0.27380  0.71340  Biso   1.000  H
  C82      1.0000 0.48940  0.29060  0.61440  Biso   1.000  C
  N14      1.0000 0.46690  0.34560  0.68220  Biso   1.000  N
  C83      1.0000 0.44680  0.22390  0.63180  Biso   1.000  C
  H55      1.0000 0.44480  0.18340  0.61800  Biso   1.000  H
  C84      1.0000 0.40440  0.21990  0.67350  Biso   1.000  C
  H56      1.0000 0.37240  0.17530  0.68690  Biso   1.000  H
  O29      1.0000 0.63660  0.20310  0.55650  Biso   1.000  O
  O30      1.0000 0.75340  0.28100  0.55460  Biso   1.000  O
  I15      1.0000 0.61236  0.07657  0.80831  Biso   1.000  I
  Cu15     1.0000 0.56817  0.05067  0.71767  Biso   1.000  Cu
  C85      1.0000 0.69830  0.23030  0.57170  Biso   1.000  C
  C86      1.0000 0.64700  0.14980  0.64080  Biso   1.000  C
  H57      1.0000 0.60140  0.13760  0.62950  Biso   1.000  H
  C87      1.0000 0.72200  0.13270  0.69210  Biso   1.000  C
  H58      1.0000 0.72620  0.10150  0.71340  Biso   1.000  H
  C88      1.0000 0.70940  0.19880  0.61440  Biso   1.000  C
  N15      1.0000 0.65440  0.12130  0.68220  Biso   1.000  N
  C89      1.0000 0.77610  0.22290  0.63180  Biso   1.000  C
  H59      1.0000 0.81660  0.26140  0.61800  Biso   1.000  H
  C90      1.0000 0.78010  0.18450  0.67350  Biso   1.000  C
  H60      1.0000 0.82470  0.19710  0.68690  Biso   1.000  H
  O31      1.0000 0.20310  0.56650  0.55650  Biso   1.000  O
  O32      1.0000 0.28100  0.52760  0.55460  Biso   1.000  O
  I16      1.0000 0.07657  0.46421  0.80831  Biso   1.000  I
  Cu16     1.0000 0.05067  0.48250  0.71767  Biso   1.000  Cu
  C91      1.0000 0.23030  0.53200  0.57170  Biso   1.000  C
  C92      1.0000 0.14980  0.50280  0.64080  Biso   1.000  C
  H61      1.0000 0.13760  0.53620  0.62950  Biso   1.000  H
  C93      1.0000 0.13270  0.41070  0.69210  Biso   1.000  C
  H62      1.0000 0.10150  0.37530  0.71340  Biso   1.000  H
  C94      1.0000 0.19880  0.48940  0.61440  Biso   1.000  C
  N16      1.0000 0.12130  0.46690  0.68220  Biso   1.000  N
  C95      1.0000 0.22290  0.44680  0.63180  Biso   1.000  C
  H63      1.0000 0.26140  0.44480  0.61800  Biso   1.000  H
  C96      1.0000 0.18450  0.40440  0.67350  Biso   1.000  C
  H64      1.0000 0.19710  0.37240  0.68690  Biso   1.000  H
  O33      1.0000 0.43350  0.63660  0.55650  Biso   1.000  O
  O34      1.0000 0.47240  0.75340  0.55460  Biso   1.000  O
  I17      1.0000 0.53579  0.61236  0.80831  Biso   1.000  I
  Cu17     1.0000 0.51750  0.56817  0.71767  Biso   1.000  Cu
  C97      1.0000 0.46800  0.69830  0.57170  Biso   1.000  C
  C98      1.0000 0.49720  0.64700  0.64080  Biso   1.000  C
  H65      1.0000 0.46380  0.60140  0.62950  Biso   1.000  H
  C99      1.0000 0.58930  0.72200  0.69210  Biso   1.000  C
  H66      1.0000 0.62470  0.72620  0.71340  Biso   1.000  H
  C100     1.0000 0.51060  0.70940  0.61440  Biso   1.000  C
  N17      1.0000 0.53310  0.65440  0.68220  Biso   1.000  N
  C101     1.0000 0.55320  0.77610  0.63180  Biso   1.000  C
  H67      1.0000 0.55520  0.81660  0.61800  Biso   1.000  H
  C102     1.0000 0.59560  0.78010  0.67350  Biso   1.000  C
  H68      1.0000 0.62760  0.82470  0.68690  Biso   1.000  H
  O35      1.0000 0.36340  0.79690  0.55650  Biso   1.000  O
  O36      1.0000 0.24660  0.71900  0.55460  Biso   1.000  O
  I18      1.0000 0.38764  0.92343  0.80831  Biso   1.000  I
  Cu18     1.0000 0.43183  0.94933  0.71767  Biso   1.000  Cu
  C103     1.0000 0.30170  0.76970  0.57170  Biso   1.000  C
  C104     1.0000 0.35300  0.85020  0.64080  Biso   1.000  C
  H69      1.0000 0.39860  0.86240  0.62950  Biso   1.000  H
  C105     1.0000 0.27800  0.86730  0.69210  Biso   1.000  C
  H70      1.0000 0.27380  0.89850  0.71340  Biso   1.000  H
  C106     1.0000 0.29060  0.80120  0.61440  Biso   1.000  C
  N18      1.0000 0.34560  0.87870  0.68220  Biso   1.000  N
  C107     1.0000 0.22390  0.77710  0.63180  Biso   1.000  C
  H71      1.0000 0.18340  0.73860  0.61800  Biso   1.000  H
  C108     1.0000 0.21990  0.81550  0.67350  Biso   1.000  C
  H72      1.0000 0.17530  0.80290  0.68690  Biso   1.000  H
  O37      1.0000 0.43350  0.79690  0.94350  Biso   1.000  O
  O38      1.0000 0.47240  0.71900  0.94540  Biso   1.000  O
  I19      1.0000 0.53579  0.92343  0.69169  Biso   1.000  I
  Cu19     1.0000 0.51750  0.94933  0.78233  Biso   1.000  Cu
  C109     1.0000 0.46800  0.76970  0.92830  Biso   1.000  C
  C110     1.0000 0.49720  0.85020  0.85920  Biso   1.000  C
  H73      1.0000 0.46380  0.86240  0.87050  Biso   1.000  H
  C111     1.0000 0.58930  0.86730  0.80790  Biso   1.000  C
  H74      1.0000 0.62470  0.89850  0.78660  Biso   1.000  H
  C112     1.0000 0.51060  0.80120  0.88560  Biso   1.000  C
  N19      1.0000 0.53310  0.87870  0.81780  Biso   1.000  N
  C113     1.0000 0.55320  0.77710  0.86820  Biso   1.000  C
  H75      1.0000 0.55520  0.73860  0.88200  Biso   1.000  H
  C114     1.0000 0.59560  0.81550  0.82650  Biso   1.000  C
  H76      1.0000 0.62760  0.80290  0.81310  Biso   1.000  H
  O39      1.0000 0.36340  0.56650  0.94350  Biso   1.000  O
  O40      1.0000 0.24660  0.52760  0.94540  Biso   1.000  O
  I20      1.0000 0.38764  0.46421  0.69169  Biso   1.000  I
  Cu20     1.0000 0.43183  0.48250  0.78233  Biso   1.000  Cu
  C115     1.0000 0.30170  0.53200  0.92830  Biso   1.000  C
  C116     1.0000 0.35300  0.50280  0.85920  Biso   1.000  C
  H77      1.0000 0.39860  0.53620  0.87050  Biso   1.000  H
  C117     1.0000 0.27800  0.41070  0.80790  Biso   1.000  C
  H78      1.0000 0.27380  0.37530  0.78660  Biso   1.000  H
  C118     1.0000 0.29060  0.48940  0.88560  Biso   1.000  C
  N20      1.0000 0.34560  0.46690  0.81780  Biso   1.000  N
  C119     1.0000 0.22390  0.44680  0.86820  Biso   1.000  C
  H79      1.0000 0.18340  0.44480  0.88200  Biso   1.000  H
  C120     1.0000 0.21990  0.40440  0.82650  Biso   1.000  C
  H80      1.0000 0.17530  0.37240  0.81310  Biso   1.000  H
  O41      1.0000 0.20310  0.63660  0.94350  Biso   1.000  O
  O42      1.0000 0.28100  0.75340  0.94540  Biso   1.000  O
  I21      1.0000 0.07657  0.61236  0.69169  Biso   1.000  I
  Cu21     1.0000 0.05067  0.56817  0.78233  Biso   1.000  Cu
  C121     1.0000 0.23030  0.69830  0.92830  Biso   1.000  C
  C122     1.0000 0.14980  0.64700  0.85920  Biso   1.000  C
  H81      1.0000 0.13760  0.60140  0.87050  Biso   1.000  H
  C123     1.0000 0.13270  0.72200  0.80790  Biso   1.000  C
  H82      1.0000 0.10150  0.72620  0.78660  Biso   1.000  H
  C124     1.0000 0.19880  0.70940  0.88560  Biso   1.000  C
  N21      1.0000 0.12130  0.65440  0.81780  Biso   1.000  N
  C125     1.0000 0.22290  0.77610  0.86820  Biso   1.000  C
  H83      1.0000 0.26140  0.81660  0.88200  Biso   1.000  H
  C126     1.0000 0.18450  0.78010  0.82650  Biso   1.000  C
  H84      1.0000 0.19710  0.82470  0.81310  Biso   1.000  H
  O43      1.0000 0.56650  0.20310  0.94350  Biso   1.000  O
  O44      1.0000 0.52760  0.28100  0.94540  Biso   1.000  O
  I22      1.0000 0.46421  0.07657  0.69169  Biso   1.000  I
  Cu22     1.0000 0.48250  0.05067  0.78233  Biso   1.000  Cu
  C127     1.0000 0.53200  0.23030  0.92830  Biso   1.000  C
  C128     1.0000 0.50280  0.14980  0.85920  Biso   1.000  C
  H85      1.0000 0.53620  0.13760  0.87050  Biso   1.000  H
  C129     1.0000 0.41070  0.13270  0.80790  Biso   1.000  C
  H86      1.0000 0.37530  0.10150  0.78660  Biso   1.000  H
  C130     1.0000 0.48940  0.19880  0.88560  Biso   1.000  C
  N22      1.0000 0.46690  0.12130  0.81780  Biso   1.000  N
  C131     1.0000 0.44680  0.22290  0.86820  Biso   1.000  C
  H87      1.0000 0.44480  0.26140  0.88200  Biso   1.000  H
  C132     1.0000 0.40440  0.18450  0.82650  Biso   1.000  C
  H88      1.0000 0.37240  0.19710  0.81310  Biso   1.000  H
  O45      1.0000 0.63660  0.43350  0.94350  Biso   1.000  O
  O46      1.0000 0.75340  0.47240  0.94540  Biso   1.000  O
  I23      1.0000 0.61236  0.53579  0.69169  Biso   1.000  I
  Cu23     1.0000 0.56817  0.51750  0.78233  Biso   1.000  Cu
  C133     1.0000 0.69830  0.46800  0.92830  Biso   1.000  C
  C134     1.0000 0.64700  0.49720  0.85920  Biso   1.000  C
  H89      1.0000 0.60140  0.46380  0.87050  Biso   1.000  H
  C135     1.0000 0.72200  0.58930  0.80790  Biso   1.000  C
  H90      1.0000 0.72620  0.62470  0.78660  Biso   1.000  H
  C136     1.0000 0.70940  0.51060  0.88560  Biso   1.000  C
  N23      1.0000 0.65440  0.53310  0.81780  Biso   1.000  N
  C137     1.0000 0.77610  0.55320  0.86820  Biso   1.000  C
  H91      1.0000 0.81660  0.55520  0.88200  Biso   1.000  H
  C138     1.0000 0.78010  0.59560  0.82650  Biso   1.000  C
  H92      1.0000 0.82470  0.62760  0.81310  Biso   1.000  H
  O47      1.0000 0.79690  0.36340  0.94350  Biso   1.000  O
  O48      1.0000 0.71900  0.24660  0.94540  Biso   1.000  O
  I24      1.0000 0.92343  0.38764  0.69169  Biso   1.000  I
  Cu24     1.0000 0.94933  0.43183  0.78233  Biso   1.000  Cu
  C139     1.0000 0.76970  0.30170  0.92830  Biso   1.000  C
  C140     1.0000 0.85020  0.35300  0.85920  Biso   1.000  C
  H93      1.0000 0.86240  0.39860  0.87050  Biso   1.000  H
  C141     1.0000 0.86730  0.27800  0.80790  Biso   1.000  C
  H94      1.0000 0.89850  0.27380  0.78660  Biso   1.000  H
  C142     1.0000 0.80120  0.29060  0.88560  Biso   1.000  C
  N24      1.0000 0.87870  0.34560  0.81780  Biso   1.000  N
  C143     1.0000 0.77710  0.22390  0.86820  Biso   1.000  C
  H95      1.0000 0.73860  0.18340  0.88200  Biso   1.000  H
  C144     1.0000 0.81550  0.21990  0.82650  Biso   1.000  C
  H96      1.0000 0.80290  0.17530  0.81310  Biso   1.000  H
  In1      1.0000 0.23073  0.64358  0.50000  Biso   1.000  In
  In2      1.0000 0.35642  0.58715  0.50000  Biso   1.000  In
  In3      1.0000 0.41285  0.76927  0.50000  Biso   1.000  In
  In4      1.0000 0.76927  0.35642  0.50000  Biso   1.000  In
  In5      1.0000 0.64358  0.41285  0.50000  Biso   1.000  In
  In6      1.0000 0.58715  0.23073  0.50000  Biso   1.000  In
  In7      1.0000 0.64358  0.23073  0.00000  Biso   1.000  In
  In8      1.0000 0.58715  0.35642  0.00000  Biso   1.000  In
  In9      1.0000 0.76927  0.41285  0.00000  Biso   1.000  In
  In10     1.0000 0.35642  0.76927  0.00000  Biso   1.000  In
  In11     1.0000 0.41285  0.64358  0.00000  Biso   1.000  In
  In12     1.0000 0.23073  0.58715  0.00000  Biso   1.000  In
  O49      1.0000 0.33333  0.66667  0.50000  Biso   1.000  O
  O50      1.0000 0.66667  0.33333  0.50000  Biso   1.000  O
  O51      1.0000 0.66667  0.33333  0.00000  Biso   1.000  O
  O52      1.0000 0.33333  0.66667  0.00000  Biso   1.000  O
