data_POMSER_clean
_audit_creation_date              2015-10-16
_audit_creation_method            'Materials Studio'
_symmetry_space_group_name_H-M    'P1'
_symmetry_Int_Tables_number       1
_symmetry_cell_setting            triclinic
loop_
_symmetry_equiv_pos_as_xyz
  x,y,z
_cell_length_a                    9.9892
_cell_length_b                    10.9251
_cell_length_c                    22.6123
_cell_angle_alpha                 94.8700
_cell_angle_beta                  90.0000
_cell_angle_gamma                 90.0000
loop_
_atom_site_label
_atom_site_type_symbol
_atom_site_fract_x
_atom_site_fract_y
_atom_site_fract_z
_atom_site_U_iso_or_equiv
_atom_site_adp_type
_atom_site_occupancy
Ca1    Ca    0.98121   0.44822   0.83872   0.01267  Uiso   1.00
Ca2    Ca    0.01879   0.55178   0.16128   0.01267  Uiso   1.00
Ca3    Ca    0.80628   0.75000   0.25000   0.01267  Uiso   1.00
Ca4    Ca    0.19372   0.25000   0.75000   0.01267  Uiso   1.00
Ca5    Ca    0.98121   0.05178   0.66128   0.01267  Uiso   1.00
Ca6    Ca    0.00000   0.50000   0.00000   0.01267  Uiso   1.00
Ca7    Ca    0.00000   0.00000   0.50000   0.01267  Uiso   1.00
Ca8    Ca    0.01879   0.94822   0.33872   0.01267  Uiso   1.00
H1     H     0.68130   0.16280   0.49510   0.01267  Uiso   1.00
H2     H     0.14400   0.12960   0.01200   0.01267  Uiso   1.00
H3     H     0.52210   0.69230   0.95030   0.01267  Uiso   1.00
H4     H     0.17040   0.58120   0.49490   0.01267  Uiso   1.00
H5     H     0.85600   0.87040   0.98800   0.01267  Uiso   1.00
H6     H     0.71930   0.66280   0.00080   0.01267  Uiso   1.00
H7     H     0.99080   0.87810   0.82110   0.01267  Uiso   1.00
H8     H     0.82960   0.41880   0.50510   0.01267  Uiso   1.00
H9     H     0.49220   0.40770   0.85460   0.01267  Uiso   1.00
H10    H     0.85600   0.62960   0.51200   0.01267  Uiso   1.00
H11    H     0.47790   0.19230   0.45030   0.01267  Uiso   1.00
H12    H     0.31870   0.83720   0.50490   0.01267  Uiso   1.00
H13    H     0.00920   0.12190   0.17890   0.01267  Uiso   1.00
H14    H     0.00920   0.37810   0.32110   0.01267  Uiso   1.00
H15    H     0.82960   0.08120   0.99490   0.01267  Uiso   1.00
H16    H     0.89500   0.19150   0.91680   0.01267  Uiso   1.00
H17    H     0.50780   0.90770   0.35460   0.01267  Uiso   1.00
H18    H     0.14400   0.37040   0.48800   0.01267  Uiso   1.00
H19    H     0.10500   0.69150   0.41680   0.01267  Uiso   1.00
H20    H     0.31870   0.66280   0.99510   0.01267  Uiso   1.00
H21    H     0.89500   0.30850   0.58320   0.01267  Uiso   1.00
H22    H     0.49220   0.09230   0.64540   0.01267  Uiso   1.00
H23    H     0.47790   0.30770   0.04970   0.01267  Uiso   1.00
H24    H     0.28070   0.33720   0.99920   0.01267  Uiso   1.00
H25    H     0.17040   0.91880   0.00510   0.01267  Uiso   1.00
H26    H     0.68130   0.33720   0.00490   0.01267  Uiso   1.00
H27    H     0.50780   0.59230   0.14540   0.01267  Uiso   1.00
H28    H     0.71930   0.83720   0.49920   0.01267  Uiso   1.00
H29    H     0.28070   0.16280   0.50080   0.01267  Uiso   1.00
H30    H     0.52210   0.80770   0.54970   0.01267  Uiso   1.00
H31    H     0.10500   0.80850   0.08320   0.01267  Uiso   1.00
H32    H     0.99080   0.62190   0.67890   0.01267  Uiso   1.00
C1     C     0.48930   0.39020   0.89410   0.01267  Uiso   1.00
C2     C     0.92980   0.64710   0.59550   0.01267  Uiso   1.00
C3     C     0.04080   0.28300   0.09650   0.01267  Uiso   1.00
C4     C     0.36650   0.37610   0.92179   0.01267  Uiso   1.00
C5     C     0.25980   0.59550   0.10290   0.01267  Uiso   1.00
C6     C     0.00500   0.61880   0.31177   0.01267  Uiso   1.00
C7     C     0.12040   0.08560   0.04380   0.01267  Uiso   1.00
C8     C     0.76150   0.90190   0.39066   0.01267  Uiso   1.00
C9     C     0.05100   0.54600   0.36129   0.01267  Uiso   1.00
C10    C     0.87960   0.58560   0.54380   0.01267  Uiso   1.00
C11    C     0.03860   0.41900   0.35640   0.01267  Uiso   1.00
C12    C     0.48060   0.17000   0.48910   0.01267  Uiso   1.00
C13    C     0.03860   0.08100   0.14360   0.01267  Uiso   1.00
C14    C     0.23850   0.09810   0.60934   0.01267  Uiso   1.00
C15    C     0.74020   0.40450   0.89710   0.01267  Uiso   1.00
C16    C     0.96140   0.91900   0.85640   0.01267  Uiso   1.00
C17    C     0.05100   0.95400   0.13871   0.01267  Uiso   1.00
C18    C     0.51940   0.67000   0.98910   0.01267  Uiso   1.00
C19    C     0.51940   0.83000   0.51090   0.01267  Uiso   1.00
C20    C     0.76150   0.59810   0.10934   0.01267  Uiso   1.00
C21    C     0.86460   0.45940   0.53950   0.01267  Uiso   1.00
C22    C     0.00500   0.88120   0.18823   0.01267  Uiso   1.00
C23    C     0.90180   0.10630   0.91340   0.01267  Uiso   1.00
C24    C     0.07020   0.35290   0.40450   0.01267  Uiso   1.00
C25    C     0.39760   0.84690   0.48390   0.01267  Uiso   1.00
C26    C     0.09820   0.60630   0.41340   0.01267  Uiso   1.00
C27    C     0.99500   0.11880   0.81177   0.01267  Uiso   1.00
C28    C     0.13540   0.95940   0.03950   0.01267  Uiso   1.00
C29    C     0.96140   0.58100   0.64360   0.01267  Uiso   1.00
C30    C     0.87960   0.91440   0.95620   0.01267  Uiso   1.00
C31    C     0.12040   0.41440   0.45620   0.01267  Uiso   1.00
C32    C     0.94900   0.45400   0.63871   0.01267  Uiso   1.00
C33    C     0.95920   0.78300   0.59650   0.01267  Uiso   1.00
C34    C     0.13540   0.54060   0.46050   0.01267  Uiso   1.00
C35    C     0.04080   0.21700   0.40350   0.01267  Uiso   1.00
C36    C     0.94900   0.04600   0.86129   0.01267  Uiso   1.00
C37    C     0.39160   0.87820   0.42558   0.01267  Uiso   1.00
C38    C     0.63740   0.65380   0.01950   0.01267  Uiso   1.00
C39    C     0.09820   0.89370   0.08660   0.01267  Uiso   1.00
C40    C     0.39160   0.62180   0.07442   0.01267  Uiso   1.00
C41    C     0.36260   0.34620   0.98050   0.01267  Uiso   1.00
C42    C     0.48930   0.10980   0.60590   0.01267  Uiso   1.00
C43    C     0.48060   0.33000   0.01090   0.01267  Uiso   1.00
C44    C     0.86460   0.04060   0.96050   0.01267  Uiso   1.00
C45    C     0.25980   0.90450   0.39710   0.01267  Uiso   1.00
C46    C     0.36650   0.12390   0.57821   0.01267  Uiso   1.00
C47    C     0.51070   0.89020   0.39410   0.01267  Uiso   1.00
C48    C     0.99500   0.38120   0.68823   0.01267  Uiso   1.00
C49    C     0.51070   0.60980   0.10590   0.01267  Uiso   1.00
C50    C     0.36260   0.15380   0.51950   0.01267  Uiso   1.00
C51    C     0.39760   0.65310   0.01610   0.01267  Uiso   1.00
C52    C     0.60240   0.34690   0.98390   0.01267  Uiso   1.00
C53    C     0.63740   0.84620   0.48050   0.01267  Uiso   1.00
C54    C     0.74020   0.09550   0.60290   0.01267  Uiso   1.00
C55    C     0.60840   0.37820   0.92558   0.01267  Uiso   1.00
C56    C     0.90180   0.39370   0.58660   0.01267  Uiso   1.00
C57    C     0.92980   0.85290   0.90450   0.01267  Uiso   1.00
C58    C     0.23850   0.40190   0.89066   0.01267  Uiso   1.00
C59    C     0.95920   0.71700   0.90350   0.01267  Uiso   1.00
C60    C     0.63350   0.87610   0.42179   0.01267  Uiso   1.00
C61    C     0.07020   0.14710   0.09550   0.01267  Uiso   1.00
C62    C     0.63350   0.62390   0.07821   0.01267  Uiso   1.00
C63    C     0.60840   0.12180   0.57442   0.01267  Uiso   1.00
C64    C     0.60240   0.15310   0.51610   0.01267  Uiso   1.00
O1     O     0.96570   0.67280   0.95230   0.01267  Uiso   1.00
O2     O     0.99240   0.76710   0.17814   0.01267  Uiso   1.00
O3     O     0.02200   0.43730   0.73750   0.01267  Uiso   1.00
O4     O     0.99240   0.73290   0.32186   0.01267  Uiso   1.00
O5     O     0.02050   0.34140   0.14640   0.01267  Uiso   1.00
O6     O     0.97800   0.93730   0.23750   0.01267  Uiso   1.00
O7     O     0.03430   0.32720   0.04770   0.01267  Uiso   1.00
O8     O     0.86290   0.56990   0.07862   0.01267  Uiso   1.00
O9     O     0.13710   0.43010   0.92138   0.01267  Uiso   1.00
O10    O     0.84220   0.41830   0.93003   0.01267  Uiso   1.00
O11    O     0.15780   0.58170   0.06997   0.01267  Uiso   1.00
O12    O     0.84220   0.08170   0.56997   0.01267  Uiso   1.00
O13    O     0.23440   0.39620   0.83470   0.01267  Uiso   1.00
O14    O     0.74620   0.08920   0.65733   0.01267  Uiso   1.00
O15    O     0.23440   0.10380   0.66530   0.01267  Uiso   1.00
O16    O     0.97800   0.56270   0.26250   0.01267  Uiso   1.00
O17    O     0.86290   0.93010   0.42138   0.01267  Uiso   1.00
O18    O     0.02050   0.15860   0.35360   0.01267  Uiso   1.00
O19    O     0.00760   0.23290   0.82186   0.01267  Uiso   1.00
O20    O     0.00760   0.26710   0.67814   0.01267  Uiso   1.00
O21    O     0.96570   0.82720   0.54770   0.01267  Uiso   1.00
O22    O     0.76560   0.60380   0.16530   0.01267  Uiso   1.00
O23    O     0.02200   0.06270   0.76250   0.01267  Uiso   1.00
O24    O     0.03430   0.17280   0.45230   0.01267  Uiso   1.00
O25    O     0.74620   0.41080   0.84267   0.01267  Uiso   1.00
O26    O     0.97950   0.65860   0.85360   0.01267  Uiso   1.00
O27    O     0.15780   0.91830   0.43003   0.01267  Uiso   1.00
O28    O     0.13710   0.06990   0.57862   0.01267  Uiso   1.00
O29    O     0.97950   0.84140   0.64640   0.01267  Uiso   1.00
O30    O     0.76560   0.89620   0.33470   0.01267  Uiso   1.00
O31    O     0.25380   0.91080   0.34267   0.01267  Uiso   1.00
O32    O     0.25380   0.58920   0.15733   0.01267  Uiso   1.00
