data_POMSOB_clean
_audit_creation_date              2015-10-16
_audit_creation_method            'Materials Studio'
_symmetry_space_group_name_H-M    'P1'
_symmetry_Int_Tables_number       1
_symmetry_cell_setting            triclinic
loop_
_symmetry_equiv_pos_as_xyz
  x,y,z
_cell_length_a                    10.1120
_cell_length_b                    13.7528
_cell_length_c                    15.0434
_cell_angle_alpha                 77.5580
_cell_angle_beta                  70.3608
_cell_angle_gamma                 68.4301
loop_
_atom_site_label
_atom_site_type_symbol
_atom_site_fract_x
_atom_site_fract_y
_atom_site_fract_z
_atom_site_U_iso_or_equiv
_atom_site_adp_type
_atom_site_occupancy
Ca1    Ca    0.49077   0.52717   0.11977   0.01267  Uiso   1.00
Ca2    Ca    0.50923   0.47283   0.88023   0.01267  Uiso   1.00
Ca3    Ca    0.13771   0.97283   0.38023   0.01267  Uiso   1.00
Ca4    Ca    0.21517   0.75000   0.25000   0.01267  Uiso   1.00
Ca5    Ca    0.86229   0.02717   0.61977   0.01267  Uiso   1.00
Ca6    Ca    0.78483   0.25000   0.75000   0.01267  Uiso   1.00
H1     H     0.58430   0.35410   0.41930   0.01267  Uiso   1.00
H2     H     0.50390   0.83420   0.07600   0.01267  Uiso   1.00
H3     H     0.82750   0.17170   0.24870   0.01267  Uiso   1.00
H4     H     0.41570   0.64590   0.58070   0.01267  Uiso   1.00
H5     H     0.24790   0.32830   0.25130   0.01267  Uiso   1.00
H6     H     0.83870   0.80390   0.65510   0.01267  Uiso   1.00
H7     H     0.22780   0.90490   0.01810   0.01267  Uiso   1.00
H8     H     0.15080   0.59510   0.48190   0.01267  Uiso   1.00
H9     H     0.17250   0.82830   0.75130   0.01267  Uiso   1.00
H10    H     0.64230   0.85410   0.91930   0.01267  Uiso   1.00
H11    H     0.35770   0.14590   0.08070   0.01267  Uiso   1.00
H12    H     0.75210   0.67170   0.74870   0.01267  Uiso   1.00
H13    H     0.11400   0.03830   0.91890   0.01267  Uiso   1.00
H14    H     0.92880   0.53830   0.41890   0.01267  Uiso   1.00
H15    H     0.77220   0.09510   0.98190   0.01267  Uiso   1.00
H16    H     0.88600   0.96170   0.08110   0.01267  Uiso   1.00
H17    H     0.58590   0.33420   0.57600   0.01267  Uiso   1.00
H18    H     0.70230   0.30390   0.15510   0.01267  Uiso   1.00
H19    H     0.49610   0.16580   0.92400   0.01267  Uiso   1.00
H20    H     0.29770   0.69610   0.84490   0.01267  Uiso   1.00
H21    H     0.07120   0.46170   0.58110   0.01267  Uiso   1.00
H22    H     0.84920   0.40490   0.51810   0.01267  Uiso   1.00
H23    H     0.41410   0.66580   0.42400   0.01267  Uiso   1.00
H24    H     0.16130   0.19610   0.34490   0.01267  Uiso   1.00
C1     C     0.07161   0.61069   0.53629   0.01267  Uiso   1.00
C2     C     0.09838   0.44704   0.32540   0.01267  Uiso   1.00
C3     C     0.87082   0.05296   0.17460   0.01267  Uiso   1.00
C4     C     0.65355   0.30082   0.99448   0.01267  Uiso   1.00
C5     C     0.81510   0.15584   0.19556   0.01267  Uiso   1.00
C6     C     0.97766   0.46907   0.40481   0.01267  Uiso   1.00
C7     C     0.92839   0.38931   0.46371   0.01267  Uiso   1.00
C8     C     0.02234   0.53093   0.59519   0.01267  Uiso   1.00
C9     C     0.44975   0.58692   0.54838   0.01267  Uiso   1.00
C10    C     0.32529   0.97655   0.19467   0.01267  Uiso   1.00
C11    C     0.04505   0.03225   0.76425   0.01267  Uiso   1.00
C12    C     0.85154   0.03093   0.09519   0.01267  Uiso   1.00
C13    C     0.50349   0.47655   0.69467   0.01267  Uiso   1.00
C14    C     0.83350   0.65584   0.69556   0.01267  Uiso   1.00
C15    C     0.05115   0.80082   0.49448   0.01267  Uiso   1.00
C16    C     0.58505   0.91308   0.95162   0.01267  Uiso   1.00
C17    C     0.49651   0.52345   0.30533   0.01267  Uiso   1.00
C18    C     0.94885   0.19918   0.50552   0.01267  Uiso   1.00
C19    C     0.16650   0.34416   0.30444   0.01267  Uiso   1.00
C20    C     0.18490   0.84416   0.80444   0.01267  Uiso   1.00
C21    C     0.99666   0.28672   0.44176   0.01267  Uiso   1.00
C22    C     0.84155   0.46775   0.73575   0.01267  Uiso   1.00
C23    C     0.15845   0.53225   0.26425   0.01267  Uiso   1.00
C24    C     0.34645   0.69918   0.00552   0.01267  Uiso   1.00
C25    C     0.11563   0.26479   0.36095   0.01267  Uiso   1.00
C26    C     0.12918   0.94704   0.82540   0.01267  Uiso   1.00
C27    C     0.95495   0.96775   0.23575   0.01267  Uiso   1.00
C28    C     0.67471   0.02345   0.80533   0.01267  Uiso   1.00
C29    C     0.50196   0.90111   0.04577   0.01267  Uiso   1.00
C30    C     0.41495   0.08692   0.04838   0.01267  Uiso   1.00
C31    C     0.21859   0.88931   0.96371   0.01267  Uiso   1.00
C32    C     0.25863   0.76479   0.86095   0.01267  Uiso   1.00
C33    C     0.49804   0.09889   0.95423   0.01267  Uiso   1.00
C34    C     0.00334   0.71328   0.55824   0.01267  Uiso   1.00
C35    C     0.55116   0.40111   0.54577   0.01267  Uiso   1.00
C36    C     0.44884   0.59889   0.45423   0.01267  Uiso   1.00
C37    C     0.58300   0.01221   0.90599   0.01267  Uiso   1.00
C38    C     0.88437   0.73521   0.63905   0.01267  Uiso   1.00
C39    C     0.72514   0.21328   0.05824   0.01267  Uiso   1.00
C40    C     0.41700   0.98779   0.09401   0.01267  Uiso   1.00
C41    C     0.90162   0.55296   0.67460   0.01267  Uiso   1.00
C42    C     0.74137   0.23521   0.13905   0.01267  Uiso   1.00
C43    C     0.49880   0.51221   0.40599   0.01267  Uiso   1.00
C44    C     0.14846   0.96907   0.90481   0.01267  Uiso   1.00
C45    C     0.78141   0.11069   0.03629   0.01267  Uiso   1.00
C46    C     0.50120   0.48779   0.59401   0.01267  Uiso   1.00
C47    C     0.27486   0.78672   0.94176   0.01267  Uiso   1.00
C48    C     0.55025   0.41308   0.45162   0.01267  Uiso   1.00
O1     O     0.43883   0.55639   0.73975   0.01267  Uiso   1.00
O2     O     0.42976   0.61288   0.26782   0.01267  Uiso   1.00
O3     O     0.73497   0.94361   0.76025   0.01267  Uiso   1.00
O4     O     0.56117   0.44361   0.26025   0.01267  Uiso   1.00
O5     O     0.26503   0.05639   0.23975   0.01267  Uiso   1.00
O6     O     0.58349   0.39025   0.02437   0.01267  Uiso   1.00
O7     O     0.89905   0.37768   0.70962   0.01267  Uiso   1.00
O8     O     0.96250   0.99382   0.30838   0.01267  Uiso   1.00
O9     O     0.73530   0.49382   0.80838   0.01267  Uiso   1.00
O10    O     0.41651   0.60975   0.97563   0.01267  Uiso   1.00
O11    O     0.86101   0.21427   0.58749   0.01267  Uiso   1.00
O12    O     0.33723   0.71427   0.08749   0.01267  Uiso   1.00
O13    O     0.00189   0.89025   0.52437   0.01267  Uiso   1.00
O14    O     0.03750   0.00618   0.69162   0.01267  Uiso   1.00
O15    O     0.26470   0.50618   0.19162   0.01267  Uiso   1.00
O16    O     0.10095   0.62232   0.29038   0.01267  Uiso   1.00
O17    O     0.31046   0.88712   0.23218   0.01267  Uiso   1.00
O18    O     0.13899   0.78573   0.41251   0.01267  Uiso   1.00
O19    O     0.99811   0.10975   0.47563   0.01267  Uiso   1.00
O20    O     0.66277   0.28573   0.91251   0.01267  Uiso   1.00
O21    O     0.68954   0.11288   0.76782   0.01267  Uiso   1.00
O22    O     0.98635   0.12232   0.79038   0.01267  Uiso   1.00
O23    O     0.57024   0.38712   0.73218   0.01267  Uiso   1.00
O24    O     0.01365   0.87768   0.20962   0.01267  Uiso   1.00
