data_image0
_cell_length_a       16.023
_cell_length_b       10.062
_cell_length_c       18.486
_cell_angle_alpha    90
_cell_angle_beta     90
_cell_angle_gamma    90

_symmetry_space_group_name_H-M    "P 1"
_symmetry_int_tables_number       1

loop_
  _symmetry_equiv_pos_as_xyz
  'x, y, z'

loop_
  _atom_site_label
  _atom_site_occupancy
  _atom_site_fract_x
  _atom_site_fract_y
  _atom_site_fract_z
  _atom_site_thermal_displace_type
  _atom_site_B_iso_or_equiv
  _atom_site_type_symbol
  Ga1      1.0000 0.46002  0.31747  0.21794  Biso   1.000  Ga
  Ga2      1.0000 0.64939  0.16380  0.17667  Biso   1.000  Ga
  Ga3      1.0000 0.48953  0.34630  0.40851  Biso   1.000  Ga
  P1       1.0000 0.48810  0.14240  0.07730  Biso   1.000  P
  P2       1.0000 0.55800  0.11830  0.31640  Biso   1.000  P
  P3       1.0000 0.31560  0.34960  0.33080  Biso   1.000  P
  F1       1.0000 0.58050  0.32990  0.19120  Biso   1.000  F
  F2       1.0000 0.49730  0.41030  0.30490  Biso   1.000  F
  O1       1.0000 0.43440  0.21120  0.13410  Biso   1.000  O
  O2       1.0000 0.55300  0.97340  0.33950  Biso   1.000  O
  O3       1.0000 0.34790  0.31190  0.25600  Biso   1.000  O
  O4       1.0000 0.48500  0.15420  0.26810  Biso   1.000  O
  O5       1.0000 0.58020  0.13120  0.09980  Biso   1.000  O
  O6       1.0000 0.64020  0.14230  0.27590  Biso   1.000  O
  O7       1.0000 0.29100  0.49760  0.33350  Biso   1.000  O
  O8       1.0000 0.23740  0.26890  0.34890  Biso   1.000  O
  O9       1.0000 0.55790  0.20230  0.38640  Biso   1.000  O
  O10      1.0000 0.37880  0.31570  0.39130  Biso   1.000  O
  O11      1.0000 0.48020  0.21810  0.00630  Biso   1.000  O
  O12      1.0000 0.45420  0.00040  0.06780  Biso   1.000  O
  Ga4      1.0000 0.03998  0.68253  0.71794  Biso   1.000  Ga
  Ga5      1.0000 0.85061  0.83620  0.67667  Biso   1.000  Ga
  Ga6      1.0000 0.01047  0.65370  0.90851  Biso   1.000  Ga
  P4       1.0000 0.01190  0.85760  0.57730  Biso   1.000  P
  P5       1.0000 0.94200  0.88170  0.81640  Biso   1.000  P
  P6       1.0000 0.18440  0.65040  0.83080  Biso   1.000  P
  F3       1.0000 0.91950  0.67010  0.69120  Biso   1.000  F
  F4       1.0000 0.00270  0.58970  0.80490  Biso   1.000  F
  O13      1.0000 0.06560  0.78880  0.63410  Biso   1.000  O
  O14      1.0000 0.94700  0.02660  0.83950  Biso   1.000  O
  O15      1.0000 0.15210  0.68810  0.75600  Biso   1.000  O
  O16      1.0000 0.01500  0.84580  0.76810  Biso   1.000  O
  O17      1.0000 0.91980  0.86880  0.59980  Biso   1.000  O
  O18      1.0000 0.85980  0.85770  0.77590  Biso   1.000  O
  O19      1.0000 0.20900  0.50240  0.83350  Biso   1.000  O
  O20      1.0000 0.26260  0.73110  0.84890  Biso   1.000  O
  O21      1.0000 0.94210  0.79770  0.88640  Biso   1.000  O
  O22      1.0000 0.12120  0.68430  0.89130  Biso   1.000  O
  O23      1.0000 0.01980  0.78190  0.50630  Biso   1.000  O
  O24      1.0000 0.04580  0.99960  0.56780  Biso   1.000  O
  Ga7      1.0000 0.53998  0.81747  0.28206  Biso   1.000  Ga
  Ga8      1.0000 0.35061  0.66380  0.32333  Biso   1.000  Ga
  Ga9      1.0000 0.51047  0.84630  0.09149  Biso   1.000  Ga
  P7       1.0000 0.51190  0.64240  0.42270  Biso   1.000  P
  P8       1.0000 0.44200  0.61830  0.18360  Biso   1.000  P
  P9       1.0000 0.68440  0.84960  0.16920  Biso   1.000  P
  F5       1.0000 0.41950  0.82990  0.30880  Biso   1.000  F
  F6       1.0000 0.50270  0.91030  0.19510  Biso   1.000  F
  O25      1.0000 0.56560  0.71120  0.36590  Biso   1.000  O
  O26      1.0000 0.44700  0.47340  0.16050  Biso   1.000  O
  O27      1.0000 0.65210  0.81190  0.24400  Biso   1.000  O
  O28      1.0000 0.51500  0.65420  0.23190  Biso   1.000  O
  O29      1.0000 0.41980  0.63120  0.40020  Biso   1.000  O
  O30      1.0000 0.35980  0.64230  0.22410  Biso   1.000  O
  O31      1.0000 0.70900  0.99760  0.16650  Biso   1.000  O
  O32      1.0000 0.76260  0.76890  0.15110  Biso   1.000  O
  O33      1.0000 0.44210  0.70230  0.11360  Biso   1.000  O
  O34      1.0000 0.62120  0.81570  0.10870  Biso   1.000  O
  O35      1.0000 0.51980  0.71810  0.49370  Biso   1.000  O
  O36      1.0000 0.54580  0.50040  0.43220  Biso   1.000  O
  Ga10     1.0000 0.96002  0.18253  0.78206  Biso   1.000  Ga
  Ga11     1.0000 0.14939  0.33620  0.82333  Biso   1.000  Ga
  Ga12     1.0000 0.98953  0.15370  0.59149  Biso   1.000  Ga
  P10      1.0000 0.98810  0.35760  0.92270  Biso   1.000  P
  P11      1.0000 0.05800  0.38170  0.68360  Biso   1.000  P
  P12      1.0000 0.81560  0.15040  0.66920  Biso   1.000  P
  F7       1.0000 0.08050  0.17010  0.80880  Biso   1.000  F
  F8       1.0000 0.99730  0.08970  0.69510  Biso   1.000  F
  O37      1.0000 0.93440  0.28880  0.86590  Biso   1.000  O
  O38      1.0000 0.05300  0.52660  0.66050  Biso   1.000  O
  O39      1.0000 0.84790  0.18810  0.74400  Biso   1.000  O
  O40      1.0000 0.98500  0.34580  0.73190  Biso   1.000  O
  O41      1.0000 0.08020  0.36880  0.90020  Biso   1.000  O
  O42      1.0000 0.14020  0.35770  0.72410  Biso   1.000  O
  O43      1.0000 0.79100  0.00240  0.66650  Biso   1.000  O
  O44      1.0000 0.73740  0.23110  0.65110  Biso   1.000  O
  O45      1.0000 0.05790  0.29770  0.61360  Biso   1.000  O
  O46      1.0000 0.87880  0.18430  0.60870  Biso   1.000  O
  O47      1.0000 0.98020  0.28190  0.99370  Biso   1.000  O
  O48      1.0000 0.95420  0.49960  0.93220  Biso   1.000  O
  Ga13     1.0000 0.53998  0.68253  0.78206  Biso   1.000  Ga
  Ga14     1.0000 0.35061  0.83620  0.82333  Biso   1.000  Ga
  Ga15     1.0000 0.51047  0.65370  0.59149  Biso   1.000  Ga
  P13      1.0000 0.51190  0.85760  0.92270  Biso   1.000  P
  P14      1.0000 0.44200  0.88170  0.68360  Biso   1.000  P
  P15      1.0000 0.68440  0.65040  0.66920  Biso   1.000  P
  F9       1.0000 0.41950  0.67010  0.80880  Biso   1.000  F
  F10      1.0000 0.50270  0.58970  0.69510  Biso   1.000  F
  O49      1.0000 0.56560  0.78880  0.86590  Biso   1.000  O
  O50      1.0000 0.44700  0.02660  0.66050  Biso   1.000  O
  O51      1.0000 0.65210  0.68810  0.74400  Biso   1.000  O
  O52      1.0000 0.51500  0.84580  0.73190  Biso   1.000  O
  O53      1.0000 0.41980  0.86880  0.90020  Biso   1.000  O
  O54      1.0000 0.35980  0.85770  0.72410  Biso   1.000  O
  O55      1.0000 0.70900  0.50240  0.66650  Biso   1.000  O
  O56      1.0000 0.76260  0.73110  0.65110  Biso   1.000  O
  O57      1.0000 0.44210  0.79770  0.61360  Biso   1.000  O
  O58      1.0000 0.62120  0.68430  0.60870  Biso   1.000  O
  O59      1.0000 0.51980  0.78190  0.99370  Biso   1.000  O
  O60      1.0000 0.54580  0.99960  0.93220  Biso   1.000  O
  Ga16     1.0000 0.96002  0.31747  0.28206  Biso   1.000  Ga
  Ga17     1.0000 0.14939  0.16380  0.32333  Biso   1.000  Ga
  Ga18     1.0000 0.98953  0.34630  0.09149  Biso   1.000  Ga
  P16      1.0000 0.98810  0.14240  0.42270  Biso   1.000  P
  P17      1.0000 0.05800  0.11830  0.18360  Biso   1.000  P
  P18      1.0000 0.81560  0.34960  0.16920  Biso   1.000  P
  F11      1.0000 0.08050  0.32990  0.30880  Biso   1.000  F
  F12      1.0000 0.99730  0.41030  0.19510  Biso   1.000  F
  O61      1.0000 0.93440  0.21120  0.36590  Biso   1.000  O
  O62      1.0000 0.05300  0.97340  0.16050  Biso   1.000  O
  O63      1.0000 0.84790  0.31190  0.24400  Biso   1.000  O
  O64      1.0000 0.98500  0.15420  0.23190  Biso   1.000  O
  O65      1.0000 0.08020  0.13120  0.40020  Biso   1.000  O
  O66      1.0000 0.14020  0.14230  0.22410  Biso   1.000  O
  O67      1.0000 0.79100  0.49760  0.16650  Biso   1.000  O
  O68      1.0000 0.73740  0.26890  0.15110  Biso   1.000  O
  O69      1.0000 0.05790  0.20230  0.11360  Biso   1.000  O
  O70      1.0000 0.87880  0.31570  0.10870  Biso   1.000  O
  O71      1.0000 0.98020  0.21810  0.49370  Biso   1.000  O
  O72      1.0000 0.95420  0.00040  0.43220  Biso   1.000  O
  Ga19     1.0000 0.46002  0.18253  0.71794  Biso   1.000  Ga
  Ga20     1.0000 0.64939  0.33620  0.67667  Biso   1.000  Ga
  Ga21     1.0000 0.48953  0.15370  0.90851  Biso   1.000  Ga
  P19      1.0000 0.48810  0.35760  0.57730  Biso   1.000  P
  P20      1.0000 0.55800  0.38170  0.81640  Biso   1.000  P
  P21      1.0000 0.31560  0.15040  0.83080  Biso   1.000  P
  F13      1.0000 0.58050  0.17010  0.69120  Biso   1.000  F
  F14      1.0000 0.49730  0.08970  0.80490  Biso   1.000  F
  O73      1.0000 0.43440  0.28880  0.63410  Biso   1.000  O
  O74      1.0000 0.55300  0.52660  0.83950  Biso   1.000  O
  O75      1.0000 0.34790  0.18810  0.75600  Biso   1.000  O
  O76      1.0000 0.48500  0.34580  0.76810  Biso   1.000  O
  O77      1.0000 0.58020  0.36880  0.59980  Biso   1.000  O
  O78      1.0000 0.64020  0.35770  0.77590  Biso   1.000  O
  O79      1.0000 0.29100  0.00240  0.83350  Biso   1.000  O
  O80      1.0000 0.23740  0.23110  0.84890  Biso   1.000  O
  O81      1.0000 0.55790  0.29770  0.88640  Biso   1.000  O
  O82      1.0000 0.37880  0.18430  0.89130  Biso   1.000  O
  O83      1.0000 0.48020  0.28190  0.50630  Biso   1.000  O
  O84      1.0000 0.45420  0.49960  0.56780  Biso   1.000  O
  Ga22     1.0000 0.03998  0.81747  0.21794  Biso   1.000  Ga
  Ga23     1.0000 0.85061  0.66380  0.17667  Biso   1.000  Ga
  Ga24     1.0000 0.01047  0.84630  0.40851  Biso   1.000  Ga
  P22      1.0000 0.01190  0.64240  0.07730  Biso   1.000  P
  P23      1.0000 0.94200  0.61830  0.31640  Biso   1.000  P
  P24      1.0000 0.18440  0.84960  0.33080  Biso   1.000  P
  F15      1.0000 0.91950  0.82990  0.19120  Biso   1.000  F
  F16      1.0000 0.00270  0.91030  0.30490  Biso   1.000  F
  O85      1.0000 0.06560  0.71120  0.13410  Biso   1.000  O
  O86      1.0000 0.94700  0.47340  0.33950  Biso   1.000  O
  O87      1.0000 0.15210  0.81190  0.25600  Biso   1.000  O
  O88      1.0000 0.01500  0.65420  0.26810  Biso   1.000  O
  O89      1.0000 0.91980  0.63120  0.09980  Biso   1.000  O
  O90      1.0000 0.85980  0.64230  0.27590  Biso   1.000  O
  O91      1.0000 0.20900  0.99760  0.33350  Biso   1.000  O
  O92      1.0000 0.26260  0.76890  0.34890  Biso   1.000  O
  O93      1.0000 0.94210  0.70230  0.38640  Biso   1.000  O
  O94      1.0000 0.12120  0.81570  0.39130  Biso   1.000  O
  O95      1.0000 0.01980  0.71810  0.00630  Biso   1.000  O
  O96      1.0000 0.04580  0.50040  0.06780  Biso   1.000  O
