data_image0
_cell_length_a       26.6396
_cell_length_b       12.9853
_cell_length_c       23.2326
_cell_angle_alpha    90
_cell_angle_beta     108.696
_cell_angle_gamma    90

_symmetry_space_group_name_H-M    "P 1"
_symmetry_int_tables_number       1

loop_
  _symmetry_equiv_pos_as_xyz
  'x, y, z'

loop_
  _atom_site_label
  _atom_site_occupancy
  _atom_site_fract_x
  _atom_site_fract_y
  _atom_site_fract_z
  _atom_site_thermal_displace_type
  _atom_site_B_iso_or_equiv
  _atom_site_type_symbol
  C1       1.0000 0.60244  0.35860  0.60941  Biso   1.000  C
  C2       1.0000 0.57244  0.28600  0.56016  Biso   1.000  C
  C3       1.0000 0.59484  0.19280  0.55209  Biso   1.000  C
  H1       1.0000 0.62980  0.17610  0.57690  Biso   1.000  H
  C4       1.0000 0.56647  0.12370  0.50800  Biso   1.000  C
  H2       1.0000 0.58230  0.06040  0.50270  Biso   1.000  H
  C5       1.0000 0.51525  0.14660  0.47165  Biso   1.000  C
  C6       1.0000 0.49341  0.24110  0.47997  Biso   1.000  C
  H3       1.0000 0.45840  0.25800  0.45530  Biso   1.000  H
  C7       1.0000 0.52148  0.30960  0.52296  Biso   1.000  C
  H4       1.0000 0.50600  0.37380  0.52740  Biso   1.000  H
  C8       1.0000 0.48572  0.07330  0.42392  Biso   1.000  C
  C9       1.0000 0.43125  0.07730  0.39712  Biso   1.000  C
  H5       1.0000 0.41120  0.12780  0.40960  Biso   1.000  H
  C10      1.0000 0.40595  0.00700  0.35177  Biso   1.000  C
  C11      1.0000 0.43732  0.93270  0.33699  Biso   1.000  C
  H6       1.0000 0.42160  0.88240  0.30690  Biso   1.000  H
  C12      1.0000 0.49143  0.93210  0.36618  Biso   1.000  C
  C13      1.0000 0.52608  0.85650  0.34994  Biso   1.000  C
  C14      1.0000 0.57489  0.88710  0.34588  Biso   1.000  C
  H7       1.0000 0.58760  0.95470  0.35780  Biso   1.000  H
  C15      1.0000 0.60491  0.81990  0.32468  Biso   1.000  C
  H8       1.0000 0.63800  0.84200  0.32160  Biso   1.000  H
  C16      1.0000 0.58758  0.72110  0.30785  Biso   1.000  C
  C17      1.0000 0.54046  0.68880  0.31473  Biso   1.000  C
  H9       1.0000 0.52910  0.61970  0.30520  Biso   1.000  H
  C18      1.0000 0.50987  0.75530  0.33512  Biso   1.000  C
  H10      1.0000 0.47730  0.73210  0.33920  Biso   1.000  H
  C19      1.0000 0.61660  0.65350  0.27726  Biso   1.000  C
  C20      1.0000 0.34825  0.01170  0.32027  Biso   1.000  C
  C21      1.0000 0.31961  0.92470  0.29198  Biso   1.000  C
  H11      1.0000 0.33680  0.86000  0.29430  Biso   1.000  H
  C22      1.0000 0.26630  0.93430  0.26079  Biso   1.000  C
  H12      1.0000 0.24750  0.87480  0.24180  Biso   1.000  H
  C23      1.0000 0.26692  0.10560  0.28296  Biso   1.000  C
  H13      1.0000 0.24860  0.16910  0.27990  Biso   1.000  H
  C24      1.0000 0.32012  0.10330  0.31498  Biso   1.000  C
  H14      1.0000 0.33770  0.16430  0.33350  Biso   1.000  H
  N1       1.0000 0.51581  0.00150  0.40859  Biso   1.000  N
  N2       1.0000 0.23962  0.02260  0.25578  Biso   1.000  N
  O1       1.0000 0.58121  0.44425  0.61444  Biso   1.000  O
  O2       1.0000 0.64591  0.33300  0.64400  Biso   1.000  O
  O3       1.0000 0.59490  0.57250  0.25190  Biso   1.000  O
  O4       1.0000 0.65938  0.68200  0.27336  Biso   1.000  O
  Mn1      1.0000 0.15272  0.03181  0.20581  Biso   1.000  Mn
  C25      1.0000 0.10244  0.85860  0.60941  Biso   1.000  C
  C26      1.0000 0.07244  0.78600  0.56016  Biso   1.000  C
  C27      1.0000 0.09484  0.69280  0.55209  Biso   1.000  C
  H15      1.0000 0.12980  0.67610  0.57690  Biso   1.000  H
  C28      1.0000 0.06647  0.62370  0.50800  Biso   1.000  C
  H16      1.0000 0.08230  0.56040  0.50270  Biso   1.000  H
  C29      1.0000 0.01525  0.64660  0.47165  Biso   1.000  C
  C30      1.0000 0.99341  0.74110  0.47997  Biso   1.000  C
  H17      1.0000 0.95840  0.75800  0.45530  Biso   1.000  H
  C31      1.0000 0.02148  0.80960  0.52296  Biso   1.000  C
  H18      1.0000 0.00600  0.87380  0.52740  Biso   1.000  H
  C32      1.0000 0.98572  0.57330  0.42392  Biso   1.000  C
  C33      1.0000 0.93125  0.57730  0.39712  Biso   1.000  C
  H19      1.0000 0.91120  0.62780  0.40960  Biso   1.000  H
  C34      1.0000 0.90595  0.50700  0.35177  Biso   1.000  C
  C35      1.0000 0.93732  0.43270  0.33699  Biso   1.000  C
  H20      1.0000 0.92160  0.38240  0.30690  Biso   1.000  H
  C36      1.0000 0.99143  0.43210  0.36618  Biso   1.000  C
  C37      1.0000 0.02608  0.35650  0.34994  Biso   1.000  C
  C38      1.0000 0.07489  0.38710  0.34588  Biso   1.000  C
  H21      1.0000 0.08760  0.45470  0.35780  Biso   1.000  H
  C39      1.0000 0.10491  0.31990  0.32468  Biso   1.000  C
  H22      1.0000 0.13800  0.34200  0.32160  Biso   1.000  H
  C40      1.0000 0.08758  0.22110  0.30785  Biso   1.000  C
  C41      1.0000 0.04046  0.18880  0.31473  Biso   1.000  C
  H23      1.0000 0.02910  0.11970  0.30520  Biso   1.000  H
  C42      1.0000 0.00987  0.25530  0.33512  Biso   1.000  C
  H24      1.0000 0.97730  0.23210  0.33920  Biso   1.000  H
  C43      1.0000 0.11660  0.15350  0.27726  Biso   1.000  C
  C44      1.0000 0.84825  0.51170  0.32027  Biso   1.000  C
  C45      1.0000 0.81961  0.42470  0.29198  Biso   1.000  C
  H25      1.0000 0.83680  0.36000  0.29430  Biso   1.000  H
  C46      1.0000 0.76630  0.43430  0.26079  Biso   1.000  C
  H26      1.0000 0.74750  0.37480  0.24180  Biso   1.000  H
  C47      1.0000 0.76692  0.60560  0.28296  Biso   1.000  C
  H27      1.0000 0.74860  0.66910  0.27990  Biso   1.000  H
  C48      1.0000 0.82012  0.60330  0.31498  Biso   1.000  C
  H28      1.0000 0.83770  0.66430  0.33350  Biso   1.000  H
  N3       1.0000 0.01581  0.50150  0.40859  Biso   1.000  N
  N4       1.0000 0.73962  0.52260  0.25578  Biso   1.000  N
  O5       1.0000 0.08121  0.94425  0.61444  Biso   1.000  O
  O6       1.0000 0.14591  0.83300  0.64400  Biso   1.000  O
  O7       1.0000 0.09490  0.07250  0.25190  Biso   1.000  O
  O8       1.0000 0.15938  0.18200  0.27336  Biso   1.000  O
  Mn2      1.0000 0.65272  0.53181  0.20581  Biso   1.000  Mn
  C49      1.0000 0.60244  0.64140  0.10941  Biso   1.000  C
  C50      1.0000 0.57244  0.71400  0.06016  Biso   1.000  C
  C51      1.0000 0.59484  0.80720  0.05209  Biso   1.000  C
  H29      1.0000 0.62980  0.82390  0.07690  Biso   1.000  H
  C52      1.0000 0.56647  0.87630  0.00800  Biso   1.000  C
  H30      1.0000 0.58230  0.93960  0.00270  Biso   1.000  H
  C53      1.0000 0.51525  0.85340  0.97165  Biso   1.000  C
  C54      1.0000 0.49341  0.75890  0.97997  Biso   1.000  C
  H31      1.0000 0.45840  0.74200  0.95530  Biso   1.000  H
  C55      1.0000 0.52148  0.69040  0.02296  Biso   1.000  C
  H32      1.0000 0.50600  0.62620  0.02740  Biso   1.000  H
  C56      1.0000 0.48572  0.92670  0.92392  Biso   1.000  C
  C57      1.0000 0.43125  0.92270  0.89712  Biso   1.000  C
  H33      1.0000 0.41120  0.87220  0.90960  Biso   1.000  H
  C58      1.0000 0.40595  0.99300  0.85177  Biso   1.000  C
  C59      1.0000 0.43732  0.06730  0.83699  Biso   1.000  C
  H34      1.0000 0.42160  0.11760  0.80690  Biso   1.000  H
  C60      1.0000 0.49143  0.06790  0.86618  Biso   1.000  C
  C61      1.0000 0.52608  0.14350  0.84994  Biso   1.000  C
  C62      1.0000 0.57489  0.11290  0.84588  Biso   1.000  C
  H35      1.0000 0.58760  0.04530  0.85780  Biso   1.000  H
  C63      1.0000 0.60491  0.18010  0.82468  Biso   1.000  C
  H36      1.0000 0.63800  0.15800  0.82160  Biso   1.000  H
  C64      1.0000 0.58758  0.27890  0.80785  Biso   1.000  C
  C65      1.0000 0.54046  0.31120  0.81473  Biso   1.000  C
  H37      1.0000 0.52910  0.38030  0.80520  Biso   1.000  H
  C66      1.0000 0.50987  0.24470  0.83512  Biso   1.000  C
  H38      1.0000 0.47730  0.26790  0.83920  Biso   1.000  H
  C67      1.0000 0.61660  0.34650  0.77726  Biso   1.000  C
  C68      1.0000 0.34825  0.98830  0.82027  Biso   1.000  C
  C69      1.0000 0.31961  0.07530  0.79198  Biso   1.000  C
  H39      1.0000 0.33680  0.14000  0.79430  Biso   1.000  H
  C70      1.0000 0.26630  0.06570  0.76079  Biso   1.000  C
  H40      1.0000 0.24750  0.12520  0.74180  Biso   1.000  H
  C71      1.0000 0.26692  0.89440  0.78296  Biso   1.000  C
  H41      1.0000 0.24860  0.83090  0.77990  Biso   1.000  H
  C72      1.0000 0.32012  0.89670  0.81498  Biso   1.000  C
  H42      1.0000 0.33770  0.83570  0.83350  Biso   1.000  H
  N5       1.0000 0.51581  0.99850  0.90859  Biso   1.000  N
  N6       1.0000 0.23962  0.97740  0.75578  Biso   1.000  N
  O9       1.0000 0.58121  0.55575  0.11444  Biso   1.000  O
  O10      1.0000 0.64591  0.66700  0.14400  Biso   1.000  O
  O11      1.0000 0.59490  0.42750  0.75190  Biso   1.000  O
  O12      1.0000 0.65938  0.31800  0.77336  Biso   1.000  O
  Mn3      1.0000 0.15272  0.96819  0.70581  Biso   1.000  Mn
  C73      1.0000 0.10244  0.14140  0.10941  Biso   1.000  C
  C74      1.0000 0.07244  0.21400  0.06016  Biso   1.000  C
  C75      1.0000 0.09484  0.30720  0.05209  Biso   1.000  C
  H43      1.0000 0.12980  0.32390  0.07690  Biso   1.000  H
  C76      1.0000 0.06647  0.37630  0.00800  Biso   1.000  C
  H44      1.0000 0.08230  0.43960  0.00270  Biso   1.000  H
  C77      1.0000 0.01525  0.35340  0.97165  Biso   1.000  C
  C78      1.0000 0.99341  0.25890  0.97997  Biso   1.000  C
  H45      1.0000 0.95840  0.24200  0.95530  Biso   1.000  H
  C79      1.0000 0.02148  0.19040  0.02296  Biso   1.000  C
  H46      1.0000 0.00600  0.12620  0.02740  Biso   1.000  H
  C80      1.0000 0.98572  0.42670  0.92392  Biso   1.000  C
  C81      1.0000 0.93125  0.42270  0.89712  Biso   1.000  C
  H47      1.0000 0.91120  0.37220  0.90960  Biso   1.000  H
  C82      1.0000 0.90595  0.49300  0.85177  Biso   1.000  C
  C83      1.0000 0.93732  0.56730  0.83699  Biso   1.000  C
  H48      1.0000 0.92160  0.61760  0.80690  Biso   1.000  H
  C84      1.0000 0.99143  0.56790  0.86618  Biso   1.000  C
  C85      1.0000 0.02608  0.64350  0.84994  Biso   1.000  C
  C86      1.0000 0.07489  0.61290  0.84588  Biso   1.000  C
  H49      1.0000 0.08760  0.54530  0.85780  Biso   1.000  H
  C87      1.0000 0.10491  0.68010  0.82468  Biso   1.000  C
  H50      1.0000 0.13800  0.65800  0.82160  Biso   1.000  H
  C88      1.0000 0.08758  0.77890  0.80785  Biso   1.000  C
  C89      1.0000 0.04046  0.81120  0.81473  Biso   1.000  C
  H51      1.0000 0.02910  0.88030  0.80520  Biso   1.000  H
  C90      1.0000 0.00987  0.74470  0.83512  Biso   1.000  C
  H52      1.0000 0.97730  0.76790  0.83920  Biso   1.000  H
  C91      1.0000 0.11660  0.84650  0.77726  Biso   1.000  C
  C92      1.0000 0.84825  0.48830  0.82027  Biso   1.000  C
  C93      1.0000 0.81961  0.57530  0.79198  Biso   1.000  C
  H53      1.0000 0.83680  0.64000  0.79430  Biso   1.000  H
  C94      1.0000 0.76630  0.56570  0.76079  Biso   1.000  C
  H54      1.0000 0.74750  0.62520  0.74180  Biso   1.000  H
  C95      1.0000 0.76692  0.39440  0.78296  Biso   1.000  C
  H55      1.0000 0.74860  0.33090  0.77990  Biso   1.000  H
  C96      1.0000 0.82012  0.39670  0.81498  Biso   1.000  C
  H56      1.0000 0.83770  0.33570  0.83350  Biso   1.000  H
  N7       1.0000 0.01581  0.49850  0.90859  Biso   1.000  N
  N8       1.0000 0.73962  0.47740  0.75578  Biso   1.000  N
  O13      1.0000 0.08121  0.05575  0.11444  Biso   1.000  O
  O14      1.0000 0.14591  0.16700  0.14400  Biso   1.000  O
  O15      1.0000 0.09490  0.92750  0.75190  Biso   1.000  O
  O16      1.0000 0.15938  0.81800  0.77336  Biso   1.000  O
  Mn4      1.0000 0.65272  0.46819  0.70581  Biso   1.000  Mn
  C97      1.0000 0.39756  0.35860  0.89059  Biso   1.000  C
  C98      1.0000 0.42756  0.28600  0.93984  Biso   1.000  C
  C99      1.0000 0.40516  0.19280  0.94791  Biso   1.000  C
  H57      1.0000 0.37020  0.17610  0.92310  Biso   1.000  H
  C100     1.0000 0.43353  0.12370  0.99200  Biso   1.000  C
  H58      1.0000 0.41770  0.06040  0.99730  Biso   1.000  H
  C101     1.0000 0.48475  0.14660  0.02835  Biso   1.000  C
  C102     1.0000 0.50659  0.24110  0.02003  Biso   1.000  C
  H59      1.0000 0.54160  0.25800  0.04470  Biso   1.000  H
  C103     1.0000 0.47852  0.30960  0.97704  Biso   1.000  C
  H60      1.0000 0.49400  0.37380  0.97260  Biso   1.000  H
  C104     1.0000 0.51428  0.07330  0.07608  Biso   1.000  C
  C105     1.0000 0.56875  0.07730  0.10288  Biso   1.000  C
  H61      1.0000 0.58880  0.12780  0.09040  Biso   1.000  H
  C106     1.0000 0.59405  0.00700  0.14823  Biso   1.000  C
  C107     1.0000 0.56268  0.93270  0.16301  Biso   1.000  C
  H62      1.0000 0.57840  0.88240  0.19310  Biso   1.000  H
  C108     1.0000 0.50857  0.93210  0.13382  Biso   1.000  C
  C109     1.0000 0.47392  0.85650  0.15006  Biso   1.000  C
  C110     1.0000 0.42511  0.88710  0.15412  Biso   1.000  C
  H63      1.0000 0.41240  0.95470  0.14220  Biso   1.000  H
  C111     1.0000 0.39509  0.81990  0.17532  Biso   1.000  C
  H64      1.0000 0.36200  0.84200  0.17840  Biso   1.000  H
  C112     1.0000 0.41242  0.72110  0.19215  Biso   1.000  C
  C113     1.0000 0.45954  0.68880  0.18527  Biso   1.000  C
  H65      1.0000 0.47090  0.61970  0.19480  Biso   1.000  H
  C114     1.0000 0.49013  0.75530  0.16488  Biso   1.000  C
  H66      1.0000 0.52270  0.73210  0.16080  Biso   1.000  H
  C115     1.0000 0.38340  0.65350  0.22274  Biso   1.000  C
  C116     1.0000 0.65175  0.01170  0.17973  Biso   1.000  C
  C117     1.0000 0.68039  0.92470  0.20802  Biso   1.000  C
  H67      1.0000 0.66320  0.86000  0.20570  Biso   1.000  H
  C118     1.0000 0.73370  0.93430  0.23921  Biso   1.000  C
  H68      1.0000 0.75250  0.87480  0.25820  Biso   1.000  H
  C119     1.0000 0.73308  0.10560  0.21704  Biso   1.000  C
  H69      1.0000 0.75140  0.16910  0.22010  Biso   1.000  H
  C120     1.0000 0.67988  0.10330  0.18502  Biso   1.000  C
  H70      1.0000 0.66230  0.16430  0.16650  Biso   1.000  H
  N9       1.0000 0.48419  0.00150  0.09141  Biso   1.000  N
  N10      1.0000 0.76038  0.02260  0.24422  Biso   1.000  N
  O17      1.0000 0.41879  0.44425  0.88556  Biso   1.000  O
  O18      1.0000 0.35409  0.33300  0.85600  Biso   1.000  O
  O19      1.0000 0.40510  0.57250  0.24810  Biso   1.000  O
  O20      1.0000 0.34062  0.68200  0.22664  Biso   1.000  O
  Mn5      1.0000 0.84728  0.03181  0.29419  Biso   1.000  Mn
  C121     1.0000 0.89756  0.85860  0.89059  Biso   1.000  C
  C122     1.0000 0.92756  0.78600  0.93984  Biso   1.000  C
  C123     1.0000 0.90516  0.69280  0.94791  Biso   1.000  C
  H71      1.0000 0.87020  0.67610  0.92310  Biso   1.000  H
  C124     1.0000 0.93353  0.62370  0.99200  Biso   1.000  C
  H72      1.0000 0.91770  0.56040  0.99730  Biso   1.000  H
  C125     1.0000 0.98475  0.64660  0.02835  Biso   1.000  C
  C126     1.0000 0.00659  0.74110  0.02003  Biso   1.000  C
  H73      1.0000 0.04160  0.75800  0.04470  Biso   1.000  H
  C127     1.0000 0.97852  0.80960  0.97704  Biso   1.000  C
  H74      1.0000 0.99400  0.87380  0.97260  Biso   1.000  H
  C128     1.0000 0.01428  0.57330  0.07608  Biso   1.000  C
  C129     1.0000 0.06875  0.57730  0.10288  Biso   1.000  C
  H75      1.0000 0.08880  0.62780  0.09040  Biso   1.000  H
  C130     1.0000 0.09405  0.50700  0.14823  Biso   1.000  C
  C131     1.0000 0.06268  0.43270  0.16301  Biso   1.000  C
  H76      1.0000 0.07840  0.38240  0.19310  Biso   1.000  H
  C132     1.0000 0.00857  0.43210  0.13382  Biso   1.000  C
  C133     1.0000 0.97392  0.35650  0.15006  Biso   1.000  C
  C134     1.0000 0.92511  0.38710  0.15412  Biso   1.000  C
  H77      1.0000 0.91240  0.45470  0.14220  Biso   1.000  H
  C135     1.0000 0.89509  0.31990  0.17532  Biso   1.000  C
  H78      1.0000 0.86200  0.34200  0.17840  Biso   1.000  H
  C136     1.0000 0.91242  0.22110  0.19215  Biso   1.000  C
  C137     1.0000 0.95954  0.18880  0.18527  Biso   1.000  C
  H79      1.0000 0.97090  0.11970  0.19480  Biso   1.000  H
  C138     1.0000 0.99013  0.25530  0.16488  Biso   1.000  C
  H80      1.0000 0.02270  0.23210  0.16080  Biso   1.000  H
  C139     1.0000 0.88340  0.15350  0.22274  Biso   1.000  C
  C140     1.0000 0.15175  0.51170  0.17973  Biso   1.000  C
  C141     1.0000 0.18039  0.42470  0.20802  Biso   1.000  C
  H81      1.0000 0.16320  0.36000  0.20570  Biso   1.000  H
  C142     1.0000 0.23370  0.43430  0.23921  Biso   1.000  C
  H82      1.0000 0.25250  0.37480  0.25820  Biso   1.000  H
  C143     1.0000 0.23308  0.60560  0.21704  Biso   1.000  C
  H83      1.0000 0.25140  0.66910  0.22010  Biso   1.000  H
  C144     1.0000 0.17988  0.60330  0.18502  Biso   1.000  C
  H84      1.0000 0.16230  0.66430  0.16650  Biso   1.000  H
  N11      1.0000 0.98419  0.50150  0.09141  Biso   1.000  N
  N12      1.0000 0.26038  0.52260  0.24422  Biso   1.000  N
  O21      1.0000 0.91879  0.94425  0.88556  Biso   1.000  O
  O22      1.0000 0.85409  0.83300  0.85600  Biso   1.000  O
  O23      1.0000 0.90510  0.07250  0.24810  Biso   1.000  O
  O24      1.0000 0.84062  0.18200  0.22664  Biso   1.000  O
  Mn6      1.0000 0.34728  0.53181  0.29419  Biso   1.000  Mn
  C145     1.0000 0.39756  0.64140  0.39059  Biso   1.000  C
  C146     1.0000 0.42756  0.71400  0.43984  Biso   1.000  C
  C147     1.0000 0.40516  0.80720  0.44791  Biso   1.000  C
  H85      1.0000 0.37020  0.82390  0.42310  Biso   1.000  H
  C148     1.0000 0.43353  0.87630  0.49200  Biso   1.000  C
  H86      1.0000 0.41770  0.93960  0.49730  Biso   1.000  H
  C149     1.0000 0.48475  0.85340  0.52835  Biso   1.000  C
  C150     1.0000 0.50659  0.75890  0.52003  Biso   1.000  C
  H87      1.0000 0.54160  0.74200  0.54470  Biso   1.000  H
  C151     1.0000 0.47852  0.69040  0.47704  Biso   1.000  C
  H88      1.0000 0.49400  0.62620  0.47260  Biso   1.000  H
  C152     1.0000 0.51428  0.92670  0.57608  Biso   1.000  C
  C153     1.0000 0.56875  0.92270  0.60288  Biso   1.000  C
  H89      1.0000 0.58880  0.87220  0.59040  Biso   1.000  H
  C154     1.0000 0.59405  0.99300  0.64823  Biso   1.000  C
  C155     1.0000 0.56268  0.06730  0.66301  Biso   1.000  C
  H90      1.0000 0.57840  0.11760  0.69310  Biso   1.000  H
  C156     1.0000 0.50857  0.06790  0.63382  Biso   1.000  C
  C157     1.0000 0.47392  0.14350  0.65006  Biso   1.000  C
  C158     1.0000 0.42511  0.11290  0.65412  Biso   1.000  C
  H91      1.0000 0.41240  0.04530  0.64220  Biso   1.000  H
  C159     1.0000 0.39509  0.18010  0.67532  Biso   1.000  C
  H92      1.0000 0.36200  0.15800  0.67840  Biso   1.000  H
  C160     1.0000 0.41242  0.27890  0.69215  Biso   1.000  C
  C161     1.0000 0.45954  0.31120  0.68527  Biso   1.000  C
  H93      1.0000 0.47090  0.38030  0.69480  Biso   1.000  H
  C162     1.0000 0.49013  0.24470  0.66488  Biso   1.000  C
  H94      1.0000 0.52270  0.26790  0.66080  Biso   1.000  H
  C163     1.0000 0.38340  0.34650  0.72274  Biso   1.000  C
  C164     1.0000 0.65175  0.98830  0.67973  Biso   1.000  C
  C165     1.0000 0.68039  0.07530  0.70802  Biso   1.000  C
  H95      1.0000 0.66320  0.14000  0.70570  Biso   1.000  H
  C166     1.0000 0.73370  0.06570  0.73921  Biso   1.000  C
  H96      1.0000 0.75250  0.12520  0.75820  Biso   1.000  H
  C167     1.0000 0.73308  0.89440  0.71704  Biso   1.000  C
  H97      1.0000 0.75140  0.83090  0.72010  Biso   1.000  H
  C168     1.0000 0.67988  0.89670  0.68502  Biso   1.000  C
  H98      1.0000 0.66230  0.83570  0.66650  Biso   1.000  H
  N13      1.0000 0.48419  0.99850  0.59141  Biso   1.000  N
  N14      1.0000 0.76038  0.97740  0.74422  Biso   1.000  N
  O25      1.0000 0.41879  0.55575  0.38556  Biso   1.000  O
  O26      1.0000 0.35409  0.66700  0.35600  Biso   1.000  O
  O27      1.0000 0.40510  0.42750  0.74810  Biso   1.000  O
  O28      1.0000 0.34062  0.31800  0.72664  Biso   1.000  O
  Mn7      1.0000 0.84728  0.96819  0.79419  Biso   1.000  Mn
  C169     1.0000 0.89756  0.14140  0.39059  Biso   1.000  C
  C170     1.0000 0.92756  0.21400  0.43984  Biso   1.000  C
  C171     1.0000 0.90516  0.30720  0.44791  Biso   1.000  C
  H99      1.0000 0.87020  0.32390  0.42310  Biso   1.000  H
  C172     1.0000 0.93353  0.37630  0.49200  Biso   1.000  C
  H100     1.0000 0.91770  0.43960  0.49730  Biso   1.000  H
  C173     1.0000 0.98475  0.35340  0.52835  Biso   1.000  C
  C174     1.0000 0.00659  0.25890  0.52003  Biso   1.000  C
  H101     1.0000 0.04160  0.24200  0.54470  Biso   1.000  H
  C175     1.0000 0.97852  0.19040  0.47704  Biso   1.000  C
  H102     1.0000 0.99400  0.12620  0.47260  Biso   1.000  H
  C176     1.0000 0.01428  0.42670  0.57608  Biso   1.000  C
  C177     1.0000 0.06875  0.42270  0.60288  Biso   1.000  C
  H103     1.0000 0.08880  0.37220  0.59040  Biso   1.000  H
  C178     1.0000 0.09405  0.49300  0.64823  Biso   1.000  C
  C179     1.0000 0.06268  0.56730  0.66301  Biso   1.000  C
  H104     1.0000 0.07840  0.61760  0.69310  Biso   1.000  H
  C180     1.0000 0.00857  0.56790  0.63382  Biso   1.000  C
  C181     1.0000 0.97392  0.64350  0.65006  Biso   1.000  C
  C182     1.0000 0.92511  0.61290  0.65412  Biso   1.000  C
  H105     1.0000 0.91240  0.54530  0.64220  Biso   1.000  H
  C183     1.0000 0.89509  0.68010  0.67532  Biso   1.000  C
  H106     1.0000 0.86200  0.65800  0.67840  Biso   1.000  H
  C184     1.0000 0.91242  0.77890  0.69215  Biso   1.000  C
  C185     1.0000 0.95954  0.81120  0.68527  Biso   1.000  C
  H107     1.0000 0.97090  0.88030  0.69480  Biso   1.000  H
  C186     1.0000 0.99013  0.74470  0.66488  Biso   1.000  C
  H108     1.0000 0.02270  0.76790  0.66080  Biso   1.000  H
  C187     1.0000 0.88340  0.84650  0.72274  Biso   1.000  C
  C188     1.0000 0.15175  0.48830  0.67973  Biso   1.000  C
  C189     1.0000 0.18039  0.57530  0.70802  Biso   1.000  C
  H109     1.0000 0.16320  0.64000  0.70570  Biso   1.000  H
  C190     1.0000 0.23370  0.56570  0.73921  Biso   1.000  C
  H110     1.0000 0.25250  0.62520  0.75820  Biso   1.000  H
  C191     1.0000 0.23308  0.39440  0.71704  Biso   1.000  C
  H111     1.0000 0.25140  0.33090  0.72010  Biso   1.000  H
  C192     1.0000 0.17988  0.39670  0.68502  Biso   1.000  C
  H112     1.0000 0.16230  0.33570  0.66650  Biso   1.000  H
  N15      1.0000 0.98419  0.49850  0.59141  Biso   1.000  N
  N16      1.0000 0.26038  0.47740  0.74422  Biso   1.000  N
  O29      1.0000 0.91879  0.05575  0.38556  Biso   1.000  O
  O30      1.0000 0.85409  0.16700  0.35600  Biso   1.000  O
  O31      1.0000 0.90510  0.92750  0.74810  Biso   1.000  O
  O32      1.0000 0.84062  0.81800  0.72664  Biso   1.000  O
  Mn8      1.0000 0.34728  0.46819  0.79419  Biso   1.000  Mn
