data_image0
_cell_length_a       17.8023
_cell_length_b       16.1037
_cell_length_c       19.1232
_cell_angle_alpha    90
_cell_angle_beta     90
_cell_angle_gamma    90

_symmetry_space_group_name_H-M    "P 1"
_symmetry_int_tables_number       1

loop_
  _symmetry_equiv_pos_as_xyz
  'x, y, z'

loop_
  _atom_site_label
  _atom_site_occupancy
  _atom_site_fract_x
  _atom_site_fract_y
  _atom_site_fract_z
  _atom_site_thermal_displace_type
  _atom_site_B_iso_or_equiv
  _atom_site_type_symbol
  Fe1      1.0000 0.23357  0.66496  0.54241  Biso   1.000  Fe
  Fe2      1.0000 0.45778  0.83565  0.55121  Biso   1.000  Fe
  Fe3      1.0000 0.94604  0.75601  0.70677  Biso   1.000  Fe
  P1       1.0000 0.11640  0.75924  0.65008  Biso   1.000  P
  P2       1.0000 0.30446  0.95896  0.54181  Biso   1.000  P
  P3       1.0000 0.34167  0.72765  0.65893  Biso   1.000  P
  P4       1.0000 0.35258  0.73392  0.43509  Biso   1.000  P
  P5       1.0000 0.01199  0.90711  0.79496  Biso   1.000  P
  P6       1.0000 0.12635  0.75142  0.92706  Biso   1.000  P
  B1       1.0000 0.23960  0.83790  0.61220  Biso   1.000  B
  B2       1.0000 0.23890  0.83530  0.47730  Biso   1.000  B
  B3       1.0000 0.09540  0.76610  0.78617  Biso   1.000  B
  O1       1.0000 0.03318  0.77802  0.64574  Biso   1.000  O
  O2       1.0000 0.14140  0.68967  0.60198  Biso   1.000  O
  O3       1.0000 0.13683  0.73407  0.72622  Biso   1.000  O
  O4       1.0000 0.15994  0.84014  0.63144  Biso   1.000  O
  O5       1.0000 0.29651  0.05081  0.54298  Biso   1.000  O
  O6       1.0000 0.38510  0.93107  0.53585  Biso   1.000  O
  O7       1.0000 0.26561  0.92386  0.60844  Biso   1.000  O
  O8       1.0000 0.25686  0.92427  0.47996  Biso   1.000  O
  O9       1.0000 0.30252  0.65477  0.62375  Biso   1.000  O
  O10      1.0000 0.40785  0.75882  0.61566  Biso   1.000  O
  O11      1.0000 0.36847  0.70391  0.73193  Biso   1.000  O
  O12      1.0000 0.28279  0.79834  0.66844  Biso   1.000  O
  O13      1.0000 0.41838  0.77753  0.46925  Biso   1.000  O
  O14      1.0000 0.37464  0.70333  0.36220  Biso   1.000  O
  O15      1.0000 0.32411  0.66060  0.47894  Biso   1.000  O
  O16      1.0000 0.28675  0.79685  0.42349  Biso   1.000  O
  O17      1.0000 0.02566  0.99491  0.77116  Biso   1.000  O
  O18      1.0000 0.99789  0.90334  0.87363  Biso   1.000  O
  O19      1.0000 0.94783  0.86606  0.75319  Biso   1.000  O
  O20      1.0000 0.08525  0.85617  0.77986  Biso   1.000  O
  O21      1.0000 0.16904  0.82396  0.95757  Biso   1.000  O
  O22      1.0000 0.04305  0.75297  0.94260  Biso   1.000  O
  O23      1.0000 0.14042  0.74633  0.84709  Biso   1.000  O
  O24      1.0000 0.15991  0.66893  0.95573  Biso   1.000  O
  O25      1.0000 0.25146  0.79419  0.54494  Biso   1.000  O
  O26      1.0000 0.02215  0.72244  0.78713  Biso   1.000  O
  H1       1.0000 0.00200  0.72600  0.81800  Biso   1.000  H
  Fe4      1.0000 0.26643  0.33504  0.04241  Biso   1.000  Fe
  Fe5      1.0000 0.04222  0.16435  0.05121  Biso   1.000  Fe
  Fe6      1.0000 0.55396  0.24399  0.20677  Biso   1.000  Fe
  P7       1.0000 0.38360  0.24076  0.15008  Biso   1.000  P
  P8       1.0000 0.19554  0.04104  0.04181  Biso   1.000  P
  P9       1.0000 0.15833  0.27235  0.15893  Biso   1.000  P
  P10      1.0000 0.14742  0.26608  0.93509  Biso   1.000  P
  P11      1.0000 0.48801  0.09289  0.29496  Biso   1.000  P
  P12      1.0000 0.37365  0.24858  0.42706  Biso   1.000  P
  B4       1.0000 0.26040  0.16210  0.11220  Biso   1.000  B
  B5       1.0000 0.26110  0.16470  0.97730  Biso   1.000  B
  B6       1.0000 0.40460  0.23390  0.28617  Biso   1.000  B
  O27      1.0000 0.46682  0.22198  0.14574  Biso   1.000  O
  O28      1.0000 0.35860  0.31033  0.10198  Biso   1.000  O
  O29      1.0000 0.36317  0.26593  0.22622  Biso   1.000  O
  O30      1.0000 0.34006  0.15986  0.13144  Biso   1.000  O
  O31      1.0000 0.20349  0.94919  0.04298  Biso   1.000  O
  O32      1.0000 0.11490  0.06893  0.03585  Biso   1.000  O
  O33      1.0000 0.23439  0.07614  0.10844  Biso   1.000  O
  O34      1.0000 0.24314  0.07573  0.97996  Biso   1.000  O
  O35      1.0000 0.19748  0.34523  0.12375  Biso   1.000  O
  O36      1.0000 0.09215  0.24118  0.11566  Biso   1.000  O
  O37      1.0000 0.13153  0.29609  0.23193  Biso   1.000  O
  O38      1.0000 0.21721  0.20166  0.16844  Biso   1.000  O
  O39      1.0000 0.08162  0.22247  0.96925  Biso   1.000  O
  O40      1.0000 0.12536  0.29667  0.86220  Biso   1.000  O
  O41      1.0000 0.17589  0.33940  0.97894  Biso   1.000  O
  O42      1.0000 0.21325  0.20315  0.92349  Biso   1.000  O
  O43      1.0000 0.47434  0.00509  0.27116  Biso   1.000  O
  O44      1.0000 0.50211  0.09666  0.37363  Biso   1.000  O
  O45      1.0000 0.55217  0.13394  0.25319  Biso   1.000  O
  O46      1.0000 0.41475  0.14383  0.27986  Biso   1.000  O
  O47      1.0000 0.33096  0.17604  0.45757  Biso   1.000  O
  O48      1.0000 0.45695  0.24703  0.44260  Biso   1.000  O
  O49      1.0000 0.35958  0.25367  0.34709  Biso   1.000  O
  O50      1.0000 0.34009  0.33107  0.45573  Biso   1.000  O
  O51      1.0000 0.24854  0.20581  0.04494  Biso   1.000  O
  O52      1.0000 0.47785  0.27756  0.28713  Biso   1.000  O
  H2       1.0000 0.49800  0.27400  0.31800  Biso   1.000  H
  Fe7      1.0000 0.76643  0.16496  0.95759  Biso   1.000  Fe
  Fe8      1.0000 0.54222  0.33565  0.94879  Biso   1.000  Fe
  Fe9      1.0000 0.05396  0.25601  0.79323  Biso   1.000  Fe
  P13      1.0000 0.88360  0.25924  0.84992  Biso   1.000  P
  P14      1.0000 0.69554  0.45896  0.95819  Biso   1.000  P
  P15      1.0000 0.65833  0.22765  0.84107  Biso   1.000  P
  P16      1.0000 0.64742  0.23392  0.06491  Biso   1.000  P
  P17      1.0000 0.98801  0.40711  0.70504  Biso   1.000  P
  P18      1.0000 0.87365  0.25142  0.57294  Biso   1.000  P
  B7       1.0000 0.76040  0.33790  0.88780  Biso   1.000  B
  B8       1.0000 0.76110  0.33530  0.02270  Biso   1.000  B
  B9       1.0000 0.90460  0.26610  0.71383  Biso   1.000  B
  O53      1.0000 0.96682  0.27802  0.85426  Biso   1.000  O
  O54      1.0000 0.85860  0.18967  0.89802  Biso   1.000  O
  O55      1.0000 0.86317  0.23407  0.77378  Biso   1.000  O
  O56      1.0000 0.84006  0.34014  0.86856  Biso   1.000  O
  O57      1.0000 0.70349  0.55081  0.95702  Biso   1.000  O
  O58      1.0000 0.61490  0.43107  0.96415  Biso   1.000  O
  O59      1.0000 0.73439  0.42386  0.89156  Biso   1.000  O
  O60      1.0000 0.74314  0.42427  0.02004  Biso   1.000  O
  O61      1.0000 0.69748  0.15477  0.87625  Biso   1.000  O
  O62      1.0000 0.59215  0.25882  0.88434  Biso   1.000  O
  O63      1.0000 0.63153  0.20391  0.76807  Biso   1.000  O
  O64      1.0000 0.71721  0.29834  0.83156  Biso   1.000  O
  O65      1.0000 0.58162  0.27753  0.03075  Biso   1.000  O
  O66      1.0000 0.62536  0.20333  0.13780  Biso   1.000  O
  O67      1.0000 0.67589  0.16060  0.02106  Biso   1.000  O
  O68      1.0000 0.71325  0.29685  0.07651  Biso   1.000  O
  O69      1.0000 0.97434  0.49491  0.72884  Biso   1.000  O
  O70      1.0000 0.00211  0.40334  0.62637  Biso   1.000  O
  O71      1.0000 0.05217  0.36606  0.74681  Biso   1.000  O
  O72      1.0000 0.91475  0.35617  0.72014  Biso   1.000  O
  O73      1.0000 0.83096  0.32396  0.54243  Biso   1.000  O
  O74      1.0000 0.95695  0.25297  0.55740  Biso   1.000  O
  O75      1.0000 0.85958  0.24633  0.65291  Biso   1.000  O
  O76      1.0000 0.84009  0.16893  0.54427  Biso   1.000  O
  O77      1.0000 0.74854  0.29419  0.95506  Biso   1.000  O
  O78      1.0000 0.97785  0.22244  0.71287  Biso   1.000  O
  H3       1.0000 0.99800  0.22600  0.68200  Biso   1.000  H
  Fe10     1.0000 0.73357  0.83504  0.45759  Biso   1.000  Fe
  Fe11     1.0000 0.95778  0.66435  0.44879  Biso   1.000  Fe
  Fe12     1.0000 0.44604  0.74399  0.29323  Biso   1.000  Fe
  P19      1.0000 0.61640  0.74076  0.34992  Biso   1.000  P
  P20      1.0000 0.80446  0.54104  0.45819  Biso   1.000  P
  P21      1.0000 0.84167  0.77235  0.34107  Biso   1.000  P
  P22      1.0000 0.85258  0.76608  0.56491  Biso   1.000  P
  P23      1.0000 0.51199  0.59289  0.20504  Biso   1.000  P
  P24      1.0000 0.62635  0.74858  0.07294  Biso   1.000  P
  B10      1.0000 0.73960  0.66210  0.38780  Biso   1.000  B
  B11      1.0000 0.73890  0.66470  0.52270  Biso   1.000  B
  B12      1.0000 0.59540  0.73390  0.21383  Biso   1.000  B
  O79      1.0000 0.53318  0.72198  0.35426  Biso   1.000  O
  O80      1.0000 0.64140  0.81033  0.39802  Biso   1.000  O
  O81      1.0000 0.63683  0.76593  0.27378  Biso   1.000  O
  O82      1.0000 0.65994  0.65986  0.36856  Biso   1.000  O
  O83      1.0000 0.79651  0.44919  0.45702  Biso   1.000  O
  O84      1.0000 0.88510  0.56893  0.46415  Biso   1.000  O
  O85      1.0000 0.76561  0.57614  0.39156  Biso   1.000  O
  O86      1.0000 0.75686  0.57573  0.52004  Biso   1.000  O
  O87      1.0000 0.80252  0.84523  0.37625  Biso   1.000  O
  O88      1.0000 0.90785  0.74118  0.38434  Biso   1.000  O
  O89      1.0000 0.86847  0.79609  0.26807  Biso   1.000  O
  O90      1.0000 0.78279  0.70166  0.33156  Biso   1.000  O
  O91      1.0000 0.91838  0.72247  0.53075  Biso   1.000  O
  O92      1.0000 0.87464  0.79667  0.63780  Biso   1.000  O
  O93      1.0000 0.82411  0.83940  0.52106  Biso   1.000  O
  O94      1.0000 0.78675  0.70315  0.57651  Biso   1.000  O
  O95      1.0000 0.52566  0.50509  0.22884  Biso   1.000  O
  O96      1.0000 0.49789  0.59666  0.12637  Biso   1.000  O
  O97      1.0000 0.44783  0.63394  0.24681  Biso   1.000  O
  O98      1.0000 0.58525  0.64383  0.22014  Biso   1.000  O
  O99      1.0000 0.66904  0.67604  0.04243  Biso   1.000  O
  O100     1.0000 0.54305  0.74703  0.05740  Biso   1.000  O
  O101     1.0000 0.64042  0.75367  0.15291  Biso   1.000  O
  O102     1.0000 0.65991  0.83107  0.04427  Biso   1.000  O
  O103     1.0000 0.75146  0.70581  0.45506  Biso   1.000  O
  O104     1.0000 0.52215  0.77756  0.21287  Biso   1.000  O
  H4       1.0000 0.50200  0.77400  0.18200  Biso   1.000  H
  Fe13     1.0000 0.76643  0.33504  0.45759  Biso   1.000  Fe
  Fe14     1.0000 0.54222  0.16435  0.44879  Biso   1.000  Fe
  Fe15     1.0000 0.05396  0.24399  0.29323  Biso   1.000  Fe
  P25      1.0000 0.88360  0.24076  0.34992  Biso   1.000  P
  P26      1.0000 0.69554  0.04104  0.45819  Biso   1.000  P
  P27      1.0000 0.65833  0.27235  0.34107  Biso   1.000  P
  P28      1.0000 0.64742  0.26608  0.56491  Biso   1.000  P
  P29      1.0000 0.98801  0.09289  0.20504  Biso   1.000  P
  P30      1.0000 0.87365  0.24858  0.07294  Biso   1.000  P
  B13      1.0000 0.76040  0.16210  0.38780  Biso   1.000  B
  B14      1.0000 0.76110  0.16470  0.52270  Biso   1.000  B
  B15      1.0000 0.90460  0.23390  0.21383  Biso   1.000  B
  O105     1.0000 0.96682  0.22198  0.35426  Biso   1.000  O
  O106     1.0000 0.85860  0.31033  0.39802  Biso   1.000  O
  O107     1.0000 0.86317  0.26593  0.27378  Biso   1.000  O
  O108     1.0000 0.84006  0.15986  0.36856  Biso   1.000  O
  O109     1.0000 0.70349  0.94919  0.45702  Biso   1.000  O
  O110     1.0000 0.61490  0.06893  0.46415  Biso   1.000  O
  O111     1.0000 0.73439  0.07614  0.39156  Biso   1.000  O
  O112     1.0000 0.74314  0.07573  0.52004  Biso   1.000  O
  O113     1.0000 0.69748  0.34523  0.37625  Biso   1.000  O
  O114     1.0000 0.59215  0.24118  0.38434  Biso   1.000  O
  O115     1.0000 0.63153  0.29609  0.26807  Biso   1.000  O
  O116     1.0000 0.71721  0.20166  0.33156  Biso   1.000  O
  O117     1.0000 0.58162  0.22247  0.53075  Biso   1.000  O
  O118     1.0000 0.62536  0.29667  0.63780  Biso   1.000  O
  O119     1.0000 0.67589  0.33940  0.52106  Biso   1.000  O
  O120     1.0000 0.71325  0.20315  0.57651  Biso   1.000  O
  O121     1.0000 0.97434  0.00509  0.22884  Biso   1.000  O
  O122     1.0000 0.00211  0.09666  0.12637  Biso   1.000  O
  O123     1.0000 0.05217  0.13394  0.24681  Biso   1.000  O
  O124     1.0000 0.91475  0.14383  0.22014  Biso   1.000  O
  O125     1.0000 0.83096  0.17604  0.04243  Biso   1.000  O
  O126     1.0000 0.95695  0.24703  0.05740  Biso   1.000  O
  O127     1.0000 0.85958  0.25367  0.15291  Biso   1.000  O
  O128     1.0000 0.84009  0.33107  0.04427  Biso   1.000  O
  O129     1.0000 0.74854  0.20581  0.45506  Biso   1.000  O
  O130     1.0000 0.97785  0.27756  0.21287  Biso   1.000  O
  H5       1.0000 0.99800  0.27400  0.18200  Biso   1.000  H
  Fe16     1.0000 0.73357  0.66496  0.95759  Biso   1.000  Fe
  Fe17     1.0000 0.95778  0.83565  0.94879  Biso   1.000  Fe
  Fe18     1.0000 0.44604  0.75601  0.79323  Biso   1.000  Fe
  P31      1.0000 0.61640  0.75924  0.84992  Biso   1.000  P
  P32      1.0000 0.80446  0.95896  0.95819  Biso   1.000  P
  P33      1.0000 0.84167  0.72765  0.84107  Biso   1.000  P
  P34      1.0000 0.85258  0.73392  0.06491  Biso   1.000  P
  P35      1.0000 0.51199  0.90711  0.70504  Biso   1.000  P
  P36      1.0000 0.62635  0.75142  0.57294  Biso   1.000  P
  B16      1.0000 0.73960  0.83790  0.88780  Biso   1.000  B
  B17      1.0000 0.73890  0.83530  0.02270  Biso   1.000  B
  B18      1.0000 0.59540  0.76610  0.71383  Biso   1.000  B
  O131     1.0000 0.53318  0.77802  0.85426  Biso   1.000  O
  O132     1.0000 0.64140  0.68967  0.89802  Biso   1.000  O
  O133     1.0000 0.63683  0.73407  0.77378  Biso   1.000  O
  O134     1.0000 0.65994  0.84014  0.86856  Biso   1.000  O
  O135     1.0000 0.79651  0.05081  0.95702  Biso   1.000  O
  O136     1.0000 0.88510  0.93107  0.96415  Biso   1.000  O
  O137     1.0000 0.76561  0.92386  0.89156  Biso   1.000  O
  O138     1.0000 0.75686  0.92427  0.02004  Biso   1.000  O
  O139     1.0000 0.80252  0.65477  0.87625  Biso   1.000  O
  O140     1.0000 0.90785  0.75882  0.88434  Biso   1.000  O
  O141     1.0000 0.86847  0.70391  0.76807  Biso   1.000  O
  O142     1.0000 0.78279  0.79834  0.83156  Biso   1.000  O
  O143     1.0000 0.91838  0.77753  0.03075  Biso   1.000  O
  O144     1.0000 0.87464  0.70333  0.13780  Biso   1.000  O
  O145     1.0000 0.82411  0.66060  0.02106  Biso   1.000  O
  O146     1.0000 0.78675  0.79685  0.07651  Biso   1.000  O
  O147     1.0000 0.52566  0.99491  0.72884  Biso   1.000  O
  O148     1.0000 0.49789  0.90334  0.62637  Biso   1.000  O
  O149     1.0000 0.44783  0.86606  0.74681  Biso   1.000  O
  O150     1.0000 0.58525  0.85617  0.72014  Biso   1.000  O
  O151     1.0000 0.66904  0.82396  0.54243  Biso   1.000  O
  O152     1.0000 0.54305  0.75297  0.55740  Biso   1.000  O
  O153     1.0000 0.64042  0.74633  0.65291  Biso   1.000  O
  O154     1.0000 0.65991  0.66893  0.54427  Biso   1.000  O
  O155     1.0000 0.75146  0.79419  0.95506  Biso   1.000  O
  O156     1.0000 0.52215  0.72244  0.71287  Biso   1.000  O
  H6       1.0000 0.50200  0.72600  0.68200  Biso   1.000  H
  Fe19     1.0000 0.23357  0.83504  0.04241  Biso   1.000  Fe
  Fe20     1.0000 0.45778  0.66435  0.05121  Biso   1.000  Fe
  Fe21     1.0000 0.94604  0.74399  0.20677  Biso   1.000  Fe
  P37      1.0000 0.11640  0.74076  0.15008  Biso   1.000  P
  P38      1.0000 0.30446  0.54104  0.04181  Biso   1.000  P
  P39      1.0000 0.34167  0.77235  0.15893  Biso   1.000  P
  P40      1.0000 0.35258  0.76608  0.93509  Biso   1.000  P
  P41      1.0000 0.01199  0.59289  0.29496  Biso   1.000  P
  P42      1.0000 0.12635  0.74858  0.42706  Biso   1.000  P
  B19      1.0000 0.23960  0.66210  0.11220  Biso   1.000  B
  B20      1.0000 0.23890  0.66470  0.97730  Biso   1.000  B
  B21      1.0000 0.09540  0.73390  0.28617  Biso   1.000  B
  O157     1.0000 0.03318  0.72198  0.14574  Biso   1.000  O
  O158     1.0000 0.14140  0.81033  0.10198  Biso   1.000  O
  O159     1.0000 0.13683  0.76593  0.22622  Biso   1.000  O
  O160     1.0000 0.15994  0.65986  0.13144  Biso   1.000  O
  O161     1.0000 0.29651  0.44919  0.04298  Biso   1.000  O
  O162     1.0000 0.38510  0.56893  0.03585  Biso   1.000  O
  O163     1.0000 0.26561  0.57614  0.10844  Biso   1.000  O
  O164     1.0000 0.25686  0.57573  0.97996  Biso   1.000  O
  O165     1.0000 0.30252  0.84523  0.12375  Biso   1.000  O
  O166     1.0000 0.40785  0.74118  0.11566  Biso   1.000  O
  O167     1.0000 0.36847  0.79609  0.23193  Biso   1.000  O
  O168     1.0000 0.28279  0.70166  0.16844  Biso   1.000  O
  O169     1.0000 0.41838  0.72247  0.96925  Biso   1.000  O
  O170     1.0000 0.37464  0.79667  0.86220  Biso   1.000  O
  O171     1.0000 0.32411  0.83940  0.97894  Biso   1.000  O
  O172     1.0000 0.28675  0.70315  0.92349  Biso   1.000  O
  O173     1.0000 0.02566  0.50509  0.27116  Biso   1.000  O
  O174     1.0000 0.99789  0.59666  0.37363  Biso   1.000  O
  O175     1.0000 0.94783  0.63394  0.25319  Biso   1.000  O
  O176     1.0000 0.08525  0.64383  0.27986  Biso   1.000  O
  O177     1.0000 0.16904  0.67604  0.45757  Biso   1.000  O
  O178     1.0000 0.04305  0.74703  0.44260  Biso   1.000  O
  O179     1.0000 0.14042  0.75367  0.34709  Biso   1.000  O
  O180     1.0000 0.15991  0.83107  0.45573  Biso   1.000  O
  O181     1.0000 0.25146  0.70581  0.04494  Biso   1.000  O
  O182     1.0000 0.02215  0.77756  0.28713  Biso   1.000  O
  H7       1.0000 0.00200  0.77400  0.31800  Biso   1.000  H
  Fe22     1.0000 0.26643  0.16496  0.54241  Biso   1.000  Fe
  Fe23     1.0000 0.04222  0.33565  0.55121  Biso   1.000  Fe
  Fe24     1.0000 0.55396  0.25601  0.70677  Biso   1.000  Fe
  P43      1.0000 0.38360  0.25924  0.65008  Biso   1.000  P
  P44      1.0000 0.19554  0.45896  0.54181  Biso   1.000  P
  P45      1.0000 0.15833  0.22765  0.65893  Biso   1.000  P
  P46      1.0000 0.14742  0.23392  0.43509  Biso   1.000  P
  P47      1.0000 0.48801  0.40711  0.79496  Biso   1.000  P
  P48      1.0000 0.37365  0.25142  0.92706  Biso   1.000  P
  B22      1.0000 0.26040  0.33790  0.61220  Biso   1.000  B
  B23      1.0000 0.26110  0.33530  0.47730  Biso   1.000  B
  B24      1.0000 0.40460  0.26610  0.78617  Biso   1.000  B
  O183     1.0000 0.46682  0.27802  0.64574  Biso   1.000  O
  O184     1.0000 0.35860  0.18967  0.60198  Biso   1.000  O
  O185     1.0000 0.36317  0.23407  0.72622  Biso   1.000  O
  O186     1.0000 0.34006  0.34014  0.63144  Biso   1.000  O
  O187     1.0000 0.20349  0.55081  0.54298  Biso   1.000  O
  O188     1.0000 0.11490  0.43107  0.53585  Biso   1.000  O
  O189     1.0000 0.23439  0.42386  0.60844  Biso   1.000  O
  O190     1.0000 0.24314  0.42427  0.47996  Biso   1.000  O
  O191     1.0000 0.19748  0.15477  0.62375  Biso   1.000  O
  O192     1.0000 0.09215  0.25882  0.61566  Biso   1.000  O
  O193     1.0000 0.13153  0.20391  0.73193  Biso   1.000  O
  O194     1.0000 0.21721  0.29834  0.66844  Biso   1.000  O
  O195     1.0000 0.08162  0.27753  0.46925  Biso   1.000  O
  O196     1.0000 0.12536  0.20333  0.36220  Biso   1.000  O
  O197     1.0000 0.17589  0.16060  0.47894  Biso   1.000  O
  O198     1.0000 0.21325  0.29685  0.42349  Biso   1.000  O
  O199     1.0000 0.47434  0.49491  0.77116  Biso   1.000  O
  O200     1.0000 0.50211  0.40334  0.87363  Biso   1.000  O
  O201     1.0000 0.55217  0.36606  0.75319  Biso   1.000  O
  O202     1.0000 0.41475  0.35617  0.77986  Biso   1.000  O
  O203     1.0000 0.33096  0.32396  0.95757  Biso   1.000  O
  O204     1.0000 0.45695  0.25297  0.94260  Biso   1.000  O
  O205     1.0000 0.35958  0.24633  0.84709  Biso   1.000  O
  O206     1.0000 0.34009  0.16893  0.95573  Biso   1.000  O
  O207     1.0000 0.24854  0.29419  0.54494  Biso   1.000  O
  O208     1.0000 0.47785  0.22244  0.78713  Biso   1.000  O
  H8       1.0000 0.49800  0.22600  0.81800  Biso   1.000  H
