data_PORLAL_clean
_audit_creation_date              2015-10-16
_audit_creation_method            'Materials Studio'
_symmetry_space_group_name_H-M    'P1'
_symmetry_Int_Tables_number       1
_symmetry_cell_setting            triclinic
loop_
_symmetry_equiv_pos_as_xyz
  x,y,z
_cell_length_a                    8.2096
_cell_length_b                    14.9980
_cell_length_c                    36.8727
_cell_angle_alpha                 90.0000
_cell_angle_beta                  90.8824
_cell_angle_gamma                 90.0000
loop_
_atom_site_label
_atom_site_type_symbol
_atom_site_fract_x
_atom_site_fract_y
_atom_site_fract_z
_atom_site_U_iso_or_equiv
_atom_site_adp_type
_atom_site_occupancy
Gd1    Gd    0.16545   0.09808   0.48678   0.01267  Uiso   1.00
Gd2    Gd    0.83455   0.90192   0.51322   0.01267  Uiso   1.00
Gd3    Gd    0.66545   0.90192   0.98678   0.01267  Uiso   1.00
Gd4    Gd    0.33455   0.09808   0.01322   0.01267  Uiso   1.00
H1     H     0.53470   0.95350   0.26060   0.01267  Uiso   1.00
H2     H     0.59050   0.37270   0.07370   0.01267  Uiso   1.00
H3     H     0.06610   0.31170   0.77220   0.01267  Uiso   1.00
H4     H     0.41500   0.33590   0.56470   0.01267  Uiso   1.00
H5     H     0.73670   0.09040   0.65780   0.01267  Uiso   1.00
H6     H     0.93220   0.39620   0.88800   0.01267  Uiso   1.00
H7     H     0.40710   0.28770   0.88710   0.01267  Uiso   1.00
H8     H     0.91500   0.66410   0.06470   0.01267  Uiso   1.00
H9     H     0.09050   0.62730   0.57370   0.01267  Uiso   1.00
H10    H     0.66010   0.66930   0.49080   0.01267  Uiso   1.00
H11    H     0.93390   0.68830   0.22780   0.01267  Uiso   1.00
H12    H     0.39100   0.37130   0.97490   0.01267  Uiso   1.00
H13    H     0.90710   0.71230   0.38710   0.01267  Uiso   1.00
H14    H     0.86090   0.42500   0.54550   0.01267  Uiso   1.00
H15    H     0.04530   0.91430   0.09360   0.01267  Uiso   1.00
H16    H     0.58500   0.66410   0.43530   0.01267  Uiso   1.00
H17    H     0.43220   0.60380   0.38800   0.01267  Uiso   1.00
H18    H     0.83990   0.66930   0.00920   0.01267  Uiso   1.00
H19    H     0.14280   0.75250   0.00230   0.01267  Uiso   1.00
H20    H     0.08420   0.67070   0.28070   0.01267  Uiso   1.00
H21    H     0.03470   0.04650   0.76060   0.01267  Uiso   1.00
H22    H     0.62530   0.02160   0.13280   0.01267  Uiso   1.00
H23    H     0.98800   0.18700   0.57030   0.01267  Uiso   1.00
H24    H     0.41580   0.67070   0.21930   0.01267  Uiso   1.00
H25    H     0.20230   0.52470   0.91520   0.01267  Uiso   1.00
H26    H     0.35720   0.75250   0.49770   0.01267  Uiso   1.00
H27    H     0.26330   0.90960   0.34220   0.01267  Uiso   1.00
H28    H     0.54530   0.08570   0.59360   0.01267  Uiso   1.00
H29    H     0.12530   0.97840   0.63280   0.01267  Uiso   1.00
H30    H     0.62320   0.06560   0.79160   0.01267  Uiso   1.00
H31    H     0.21490   0.28560   0.82170   0.01267  Uiso   1.00
H32    H     0.16010   0.33070   0.99080   0.01267  Uiso   1.00
H33    H     0.37680   0.93440   0.20840   0.01267  Uiso   1.00
H34    H     0.06780   0.60380   0.11200   0.01267  Uiso   1.00
H35    H     0.36090   0.57500   0.04550   0.01267  Uiso   1.00
H36    H     0.01200   0.81300   0.42970   0.01267  Uiso   1.00
H37    H     0.45470   0.91430   0.40640   0.01267  Uiso   1.00
H38    H     0.90950   0.37270   0.42630   0.01267  Uiso   1.00
H39    H     0.70230   0.47530   0.41520   0.01267  Uiso   1.00
H40    H     0.37470   0.97840   0.86720   0.01267  Uiso   1.00
H41    H     0.58420   0.32930   0.78070   0.01267  Uiso   1.00
H42    H     0.91580   0.32930   0.71930   0.01267  Uiso   1.00
H43    H     0.56610   0.68830   0.27220   0.01267  Uiso   1.00
H44    H     0.10900   0.37130   0.52510   0.01267  Uiso   1.00
H45    H     0.29770   0.52470   0.58480   0.01267  Uiso   1.00
H46    H     0.79770   0.47530   0.08480   0.01267  Uiso   1.00
H47    H     0.56780   0.39620   0.61200   0.01267  Uiso   1.00
H48    H     0.87680   0.06560   0.70840   0.01267  Uiso   1.00
H49    H     0.48800   0.81300   0.07030   0.01267  Uiso   1.00
H50    H     0.12320   0.93440   0.29160   0.01267  Uiso   1.00
H51    H     0.51200   0.18700   0.92970   0.01267  Uiso   1.00
H52    H     0.85720   0.24750   0.99770   0.01267  Uiso   1.00
H53    H     0.60900   0.62870   0.02510   0.01267  Uiso   1.00
H54    H     0.46530   0.04650   0.73940   0.01267  Uiso   1.00
H55    H     0.71490   0.71440   0.32170   0.01267  Uiso   1.00
H56    H     0.08500   0.33590   0.93530   0.01267  Uiso   1.00
H57    H     0.76330   0.09040   0.84220   0.01267  Uiso   1.00
H58    H     0.09290   0.28770   0.61290   0.01267  Uiso   1.00
H59    H     0.43390   0.31170   0.72780   0.01267  Uiso   1.00
H60    H     0.23670   0.90960   0.15780   0.01267  Uiso   1.00
H61    H     0.95470   0.08570   0.90640   0.01267  Uiso   1.00
H62    H     0.87470   0.02160   0.36720   0.01267  Uiso   1.00
H63    H     0.89100   0.62870   0.47490   0.01267  Uiso   1.00
H64    H     0.64280   0.24750   0.50230   0.01267  Uiso   1.00
H65    H     0.28510   0.28560   0.67830   0.01267  Uiso   1.00
H66    H     0.40950   0.62730   0.92630   0.01267  Uiso   1.00
H67    H     0.59290   0.71230   0.11290   0.01267  Uiso   1.00
H68    H     0.63910   0.42500   0.95450   0.01267  Uiso   1.00
H69    H     0.33990   0.33070   0.50920   0.01267  Uiso   1.00
H70    H     0.96530   0.95350   0.23940   0.01267  Uiso   1.00
H71    H     0.78510   0.71440   0.17830   0.01267  Uiso   1.00
H72    H     0.13910   0.57500   0.45450   0.01267  Uiso   1.00
C1     C     0.12112   0.80050   0.29152   0.01267  Uiso   1.00
C2     C     0.99462   0.01030   0.56872   0.01267  Uiso   1.00
C3     C     0.68623   0.80890   0.14603   0.01267  Uiso   1.00
C4     C     0.43310   0.17680   0.72830   0.01267  Uiso   1.00
C5     C     0.22005   0.78740   0.32485   0.01267  Uiso   1.00
C6     C     0.15492   0.70810   0.98492   0.01267  Uiso   1.00
C7     C     0.29636   0.70060   0.96496   0.01267  Uiso   1.00
C8     C     0.37525   0.03940   0.87185   0.01267  Uiso   1.00
C9     C     0.62475   0.96060   0.12815   0.01267  Uiso   1.00
C10    C     0.95230   0.14690   0.90250   0.01267  Uiso   1.00
C11    C     0.45230   0.85310   0.40250   0.01267  Uiso   1.00
C12    C     0.27995   0.78740   0.17515   0.01267  Uiso   1.00
C13    C     0.41571   0.54520   0.02721   0.01267  Uiso   1.00
C14    C     0.02974   0.26200   0.75934   0.01267  Uiso   1.00
C15    C     0.53549   0.79390   0.42539   0.01267  Uiso   1.00
C16    C     0.34969   0.46930   0.01169   0.01267  Uiso   1.00
C17    C     0.93840   0.33490   0.89130   0.01267  Uiso   1.00
C18    C     0.84969   0.53070   0.51169   0.01267  Uiso   1.00
C19    C     0.39577   0.22650   0.88387   0.01267  Uiso   1.00
C20    C     0.19693   0.09930   0.65223   0.01267  Uiso   1.00
C21    C     0.87525   0.96060   0.37185   0.01267  Uiso   1.00
C22    C     0.96451   0.79390   0.07461   0.01267  Uiso   1.00
C23    C     0.43467   0.42320   0.98477   0.01267  Uiso   1.00
C24    C     0.92859   0.23360   0.47189   0.01267  Uiso   1.00
C25    C     0.18867   0.43510   0.02337   0.01267  Uiso   1.00
C26    C     0.64250   0.27610   0.63220   0.01267  Uiso   1.00
C27    C     0.69024   0.43040   0.43234   0.01267  Uiso   1.00
C28    C     0.55222   0.92660   0.09712   0.01267  Uiso   1.00
C29    C     0.34508   0.70810   0.51508   0.01267  Uiso   1.00
C30    C     0.13438   0.81590   0.12648   0.01267  Uiso   1.00
C31    C     0.97197   0.70180   0.08037   0.01267  Uiso   1.00
C32    C     0.58470   0.11520   0.77900   0.01267  Uiso   1.00
C33    C     0.42859   0.76640   0.97189   0.01267  Uiso   1.00
C34    C     0.45996   0.16600   0.90876   0.01267  Uiso   1.00
C35    C     0.03303   0.64680   0.97793   0.01267  Uiso   1.00
C36    C     0.56200   0.27210   0.77230   0.01267  Uiso   1.00
C37    C     0.56160   0.33490   0.60870   0.01267  Uiso   1.00
C38    C     0.44778   0.07340   0.90288   0.01267  Uiso   1.00
C39    C     0.77995   0.21260   0.67515   0.01267  Uiso   1.00
C40    C     0.31133   0.43510   0.47663   0.01267  Uiso   1.00
C41    C     0.56690   0.82320   0.27170   0.01267  Uiso   1.00
C42    C     0.12475   0.03940   0.62815   0.01267  Uiso   1.00
C43    C     0.46697   0.64680   0.52207   0.01267  Uiso   1.00
C44    C     0.54004   0.83400   0.09124   0.01267  Uiso   1.00
C45    C     0.16813   0.16200   0.80453   0.01267  Uiso   1.00
C46    C     0.02803   0.29820   0.91963   0.01267  Uiso   1.00
C47    C     0.18688   0.63150   0.56088   0.01267  Uiso   1.00
C48    C     0.45316   0.57790   0.54746   0.01267  Uiso   1.00
C49    C     0.68867   0.56490   0.52337   0.01267  Uiso   1.00
C50    C     0.49010   0.10370   0.74750   0.01267  Uiso   1.00
C51    C     0.31377   0.19110   0.85397   0.01267  Uiso   1.00
C52    C     0.13530   0.16830   0.95590   0.01267  Uiso   1.00
C53    C     0.06200   0.72790   0.27230   0.01267  Uiso   1.00
C54    C     0.04004   0.16600   0.59124   0.01267  Uiso   1.00
C55    C     0.66813   0.83800   0.30453   0.01267  Uiso   1.00
C56    C     0.04770   0.85310   0.09750   0.01267  Uiso   1.00
C57    C     0.93467   0.57680   0.48477   0.01267  Uiso   1.00
C58    C     0.80976   0.43040   0.06766   0.01267  Uiso   1.00
C59    C     0.63530   0.83170   0.45590   0.01267  Uiso   1.00
C60    C     0.93310   0.82320   0.22830   0.01267  Uiso   1.00
C61    C     0.47026   0.26200   0.74066   0.01267  Uiso   1.00
C62    C     0.33187   0.16200   0.69547   0.01267  Uiso   1.00
C63    C     0.30307   0.09930   0.84777   0.01267  Uiso   1.00
C64    C     0.63438   0.18410   0.62648   0.01267  Uiso   1.00
C65    C     0.81377   0.80890   0.35397   0.01267  Uiso   1.00
C66    C     0.47197   0.29820   0.58037   0.01267  Uiso   1.00
C67    C     0.50990   0.89630   0.25250   0.01267  Uiso   1.00
C68    C     0.30976   0.56960   0.56766   0.01267  Uiso   1.00
C69    C     0.00990   0.10370   0.75250   0.01267  Uiso   1.00
C70    C     0.62112   0.19950   0.79152   0.01267  Uiso   1.00
C71    C     0.04684   0.57790   0.95254   0.01267  Uiso   1.00
C72    C     0.96697   0.35320   0.02207   0.01267  Uiso   1.00
C73    C     0.99010   0.89630   0.24750   0.01267  Uiso   1.00
C74    C     0.18623   0.19110   0.64603   0.01267  Uiso   1.00
C75    C     0.36562   0.81590   0.37352   0.01267  Uiso   1.00
C76    C     0.81312   0.36850   0.43912   0.01267  Uiso   1.00
C77    C     0.36470   0.16830   0.54410   0.01267  Uiso   1.00
C78    C     0.69693   0.90070   0.15223   0.01267  Uiso   1.00
C79    C     0.95316   0.42210   0.04746   0.01267  Uiso   1.00
C80    C     0.70364   0.29940   0.03504   0.01267  Uiso   1.00
C81    C     0.65492   0.29190   0.48492   0.01267  Uiso   1.00
C82    C     0.41530   0.88480   0.22100   0.01267  Uiso   1.00
C83    C     0.06690   0.17680   0.77170   0.01267  Uiso   1.00
C84    C     0.06533   0.42320   0.51523   0.01267  Uiso   1.00
C85    C     0.95996   0.83400   0.40876   0.01267  Uiso   1.00
C86    C     0.35750   0.72390   0.36780   0.01267  Uiso   1.00
C87    C     0.19024   0.56960   0.93234   0.01267  Uiso   1.00
C88    C     0.52974   0.73800   0.25934   0.01267  Uiso   1.00
C89    C     0.52803   0.70180   0.41963   0.01267  Uiso   1.00
C90    C     0.85750   0.27610   0.86780   0.01267  Uiso   1.00
C91    C     0.68688   0.36850   0.06088   0.01267  Uiso   1.00
C92    C     0.06160   0.66510   0.10870   0.01267  Uiso   1.00
C93    C     0.91530   0.11520   0.72100   0.01267  Uiso   1.00
C94    C     0.79636   0.29940   0.46496   0.01267  Uiso   1.00
C95    C     0.50538   0.01030   0.93128   0.01267  Uiso   1.00
C96    C     0.20364   0.70060   0.53504   0.01267  Uiso   1.00
C97    C     0.46451   0.20610   0.57461   0.01267  Uiso   1.00
C98    C     0.56533   0.57680   0.01523   0.01267  Uiso   1.00
C99    C     0.14250   0.72390   0.13220   0.01267  Uiso   1.00
C100   C     0.03549   0.20610   0.92539   0.01267  Uiso   1.00
C101   C     0.31312   0.63150   0.93912   0.01267  Uiso   1.00
C102   C     0.54684   0.42210   0.45254   0.01267  Uiso   1.00
C103   C     0.83187   0.83800   0.19547   0.01267  Uiso   1.00
C104   C     0.57141   0.23360   0.02811   0.01267  Uiso   1.00
C105   C     0.72005   0.21260   0.82485   0.01267  Uiso   1.00
C106   C     0.43800   0.72790   0.22770   0.01267  Uiso   1.00
C107   C     0.08429   0.54520   0.47279   0.01267  Uiso   1.00
C108   C     0.86562   0.18410   0.87352   0.01267  Uiso   1.00
C109   C     0.81133   0.56490   0.97663   0.01267  Uiso   1.00
C110   C     0.94778   0.92660   0.40288   0.01267  Uiso   1.00
C111   C     0.43840   0.66510   0.39130   0.01267  Uiso   1.00
C112   C     0.89577   0.77350   0.38387   0.01267  Uiso   1.00
C113   C     0.93800   0.27210   0.72770   0.01267  Uiso   1.00
C114   C     0.05222   0.07340   0.59712   0.01267  Uiso   1.00
C115   C     0.58429   0.45480   0.97279   0.01267  Uiso   1.00
C116   C     0.37888   0.80050   0.20848   0.01267  Uiso   1.00
C117   C     0.49462   0.98970   0.06872   0.01267  Uiso   1.00
C118   C     0.97026   0.73800   0.24066   0.01267  Uiso   1.00
C119   C     0.84508   0.29190   0.01508   0.01267  Uiso   1.00
C120   C     0.54770   0.14690   0.59750   0.01267  Uiso   1.00
C121   C     0.87888   0.19950   0.70848   0.01267  Uiso   1.00
C122   C     0.53303   0.35320   0.47793   0.01267  Uiso   1.00
C123   C     0.10423   0.22650   0.61613   0.01267  Uiso   1.00
C124   C     0.86470   0.83170   0.04410   0.01267  Uiso   1.00
C125   C     0.60423   0.77350   0.11613   0.01267  Uiso   1.00
C126   C     0.07141   0.76640   0.52811   0.01267  Uiso   1.00
C127   C     0.00538   0.98970   0.43128   0.01267  Uiso   1.00
C128   C     0.08470   0.88480   0.27900   0.01267  Uiso   1.00
C129   C     0.15031   0.46930   0.48831   0.01267  Uiso   1.00
C130   C     0.65031   0.53070   0.98831   0.01267  Uiso   1.00
C131   C     0.91571   0.45480   0.52721   0.01267  Uiso   1.00
C132   C     0.80307   0.90070   0.34777   0.01267  Uiso   1.00
N1     N     0.61801   0.63640   0.50731   0.01267  Uiso   1.00
N2     N     0.72182   0.14660   0.65432   0.01267  Uiso   1.00
N3     N     0.22182   0.85340   0.15432   0.01267  Uiso   1.00
N4     N     0.77818   0.14660   0.84568   0.01267  Uiso   1.00
N5     N     0.88199   0.63640   0.99269   0.01267  Uiso   1.00
N6     N     0.73454   0.29200   0.66274   0.01267  Uiso   1.00
N7     N     0.26546   0.70800   0.33726   0.01267  Uiso   1.00
N8     N     0.78819   0.91660   0.18299   0.01267  Uiso   1.00
N9     N     0.59500   0.52680   0.54740   0.01267  Uiso   1.00
N10    N     0.21181   0.08340   0.81701   0.01267  Uiso   1.00
N11    N     0.38199   0.36360   0.49269   0.01267  Uiso   1.00
N12    N     0.11801   0.36360   0.00731   0.01267  Uiso   1.00
N13    N     0.77203   0.77050   0.17453   0.01267  Uiso   1.00
N14    N     0.22797   0.22950   0.82547   0.01267  Uiso   1.00
N15    N     0.72797   0.77050   0.32547   0.01267  Uiso   1.00
N16    N     0.23454   0.70800   0.16274   0.01267  Uiso   1.00
N17    N     0.40500   0.47320   0.45260   0.01267  Uiso   1.00
N18    N     0.90500   0.52680   0.95260   0.01267  Uiso   1.00
N19    N     0.27818   0.85340   0.34568   0.01267  Uiso   1.00
N20    N     0.28819   0.08340   0.68299   0.01267  Uiso   1.00
N21    N     0.27203   0.22950   0.67453   0.01267  Uiso   1.00
N22    N     0.09500   0.47320   0.04740   0.01267  Uiso   1.00
N23    N     0.71181   0.91660   0.31701   0.01267  Uiso   1.00
N24    N     0.76546   0.29200   0.83726   0.01267  Uiso   1.00
O1     O     0.11792   0.08790   0.96552   0.01267  Uiso   1.00
O2     O     0.58630   0.94190   0.92280   0.01267  Uiso   1.00
O3     O     0.38208   0.08790   0.53448   0.01267  Uiso   1.00
O4     O     0.97069   0.97660   0.46489   0.01267  Uiso   1.00
O5     O     0.90539   0.17080   0.49419   0.01267  Uiso   1.00
O6     O     0.93577   0.76090   0.54427   0.01267  Uiso   1.00
O7     O     0.88208   0.91210   0.03448   0.01267  Uiso   1.00
O8     O     0.09461   0.82920   0.50581   0.01267  Uiso   1.00
O9     O     0.08630   0.05810   0.42280   0.01267  Uiso   1.00
O10    O     0.24148   0.21790   0.97208   0.01267  Uiso   1.00
O11    O     0.06423   0.23910   0.45573   0.01267  Uiso   1.00
O12    O     0.59461   0.17080   0.00581   0.01267  Uiso   1.00
O13    O     0.61792   0.91210   0.46552   0.01267  Uiso   1.00
O14    O     0.25852   0.21790   0.52792   0.01267  Uiso   1.00
O15    O     0.56423   0.76090   0.95573   0.01267  Uiso   1.00
O16    O     0.02931   0.02340   0.53511   0.01267  Uiso   1.00
O17    O     0.74148   0.78210   0.47208   0.01267  Uiso   1.00
O18    O     0.40539   0.82920   0.99419   0.01267  Uiso   1.00
O19    O     0.91370   0.94190   0.57720   0.01267  Uiso   1.00
O20    O     0.75852   0.78210   0.02792   0.01267  Uiso   1.00
O21    O     0.52931   0.97660   0.03511   0.01267  Uiso   1.00
O22    O     0.43577   0.23910   0.04427   0.01267  Uiso   1.00
O23    O     0.47069   0.02340   0.96489   0.01267  Uiso   1.00
O24    O     0.41370   0.05810   0.07720   0.01267  Uiso   1.00
