data_PORVUO_clean
_audit_creation_date              2014-07-02
_audit_creation_method            'Materials Studio'
_symmetry_space_group_name_H-M    'P1'
_symmetry_Int_Tables_number       1
_symmetry_cell_setting            triclinic
loop_
_symmetry_equiv_pos_as_xyz
  x,y,z
_cell_length_a                    6.2226
_cell_length_b                    14.7020
_cell_length_c                    17.5045
_cell_angle_alpha                 102.2330
_cell_angle_beta                  90.0000
_cell_angle_gamma                 102.2180
loop_
_atom_site_label
_atom_site_type_symbol
_atom_site_fract_x
_atom_site_fract_y
_atom_site_fract_z
_atom_site_U_iso_or_equiv
_atom_site_adp_type
_atom_site_occupancy
Zn1    Zn    0.43648   0.00000   0.25000   0.01267  Uiso   1.00
Zn2    Zn    0.56352  -0.00000   0.75000   0.01267  Uiso   1.00
H1     H     0.02170   0.19060   0.36200   0.01267  Uiso   1.00
H2     H     0.88620   0.31700   0.43120   0.01267  Uiso   1.00
H3     H     0.46260   0.49200   0.41520   0.01267  Uiso   1.00
H4     H     0.59750   0.36760   0.34500   0.01267  Uiso   1.00
H5     H     0.17820   0.56100   0.48110   0.01267  Uiso   1.00
H6     H     0.88900   0.09840   0.21500   0.01267  Uiso   1.00
H7     H     0.12850   0.09780   0.11600   0.01267  Uiso   1.00
H8     H     0.66510   0.89920   0.97830   0.01267  Uiso   1.00
H9     H     0.43430   0.91620   0.07970   0.01267  Uiso   1.00
H10    H     0.83110   0.80940   0.13800   0.01267  Uiso   1.00
H11    H     0.56920   0.68300   0.06880   0.01267  Uiso   1.00
H12    H     0.97060   0.50800   0.08480   0.01267  Uiso   1.00
H13    H     0.22990   0.63240   0.15500   0.01267  Uiso   1.00
H14    H     0.61720   0.43900   0.01890   0.01267  Uiso   1.00
H15    H     0.79060   0.90160   0.28500   0.01267  Uiso   1.00
H16    H     0.03070   0.90220   0.38400   0.01267  Uiso   1.00
H17    H     0.76590   0.10080   0.52170   0.01267  Uiso   1.00
H18    H     0.51810   0.08380   0.42030   0.01267  Uiso   1.00
H19    H     0.97830   0.80940   0.63800   0.01267  Uiso   1.00
H20    H     0.11380   0.68300   0.56880   0.01267  Uiso   1.00
H21    H     0.53740   0.50800   0.58480   0.01267  Uiso   1.00
H22    H     0.40250   0.63240   0.65500   0.01267  Uiso   1.00
H23    H     0.82180   0.43900   0.51890   0.01267  Uiso   1.00
H24    H     0.11100   0.90160   0.78500   0.01267  Uiso   1.00
H25    H     0.87150   0.90220   0.88400   0.01267  Uiso   1.00
H26    H     0.33490   0.10080   0.02170   0.01267  Uiso   1.00
H27    H     0.56570   0.08380   0.92030   0.01267  Uiso   1.00
H28    H     0.16890   0.19060   0.86200   0.01267  Uiso   1.00
H29    H     0.43080   0.31700   0.93120   0.01267  Uiso   1.00
H30    H     0.02940   0.49200   0.91520   0.01267  Uiso   1.00
H31    H     0.77010   0.36760   0.84500   0.01267  Uiso   1.00
H32    H     0.38280   0.56100   0.98110   0.01267  Uiso   1.00
H33    H     0.20940   0.09840   0.71500   0.01267  Uiso   1.00
H34    H     0.96930   0.09780   0.61600   0.01267  Uiso   1.00
H35    H     0.23410   0.89920   0.47830   0.01267  Uiso   1.00
H36    H     0.48190   0.91620   0.57970   0.01267  Uiso   1.00
C1     C     0.41210   0.18240   0.30370   0.01267  Uiso   1.00
C2     C     0.32210   0.26540   0.34630   0.01267  Uiso   1.00
C3     C     0.11090   0.25140   0.37260   0.01267  Uiso   1.00
C4     C     0.02980   0.32740   0.41480   0.01267  Uiso   1.00
C5     C     0.16150   0.41820   0.43260   0.01267  Uiso   1.00
C6     C     0.37340   0.43100   0.40480   0.01267  Uiso   1.00
C7     C     0.45520   0.35680   0.36250   0.01267  Uiso   1.00
C8     C     0.08900   0.50120   0.47990   0.01267  Uiso   1.00
C9     C     0.84350   0.05820   0.16650   0.01267  Uiso   1.00
C10    C     0.98850   0.05880   0.10700   0.01267  Uiso   1.00
C11    C     0.92430   0.00000   0.03270   0.01267  Uiso   1.00
C12    C     0.71440   0.94260   0.02500   0.01267  Uiso   1.00
C13    C     0.57920   0.95060   0.08790   0.01267  Uiso   1.00
C14    C     0.22970   0.81760   0.19630   0.01267  Uiso   1.00
C15    C     0.05670   0.73460   0.15370   0.01267  Uiso   1.00
C16    C     0.85950   0.74860   0.12740   0.01267  Uiso   1.00
C17    C     0.70240   0.67260   0.08520   0.01267  Uiso   1.00
C18    C     0.74330   0.58180   0.06740   0.01267  Uiso   1.00
C19    C     0.94240   0.56900   0.09520   0.01267  Uiso   1.00
C20    C     0.09840   0.64320   0.13750   0.01267  Uiso   1.00
C21    C     0.58780   0.49880   0.02010   0.01267  Uiso   1.00
C22    C     0.78530   0.94180   0.33350   0.01267  Uiso   1.00
C23    C     0.92970   0.94120   0.39300   0.01267  Uiso   1.00
C24    C     0.92430   0.00000   0.46730   0.01267  Uiso   1.00
C25    C     0.77180   0.05740   0.47500   0.01267  Uiso   1.00
C26    C     0.62860   0.04940   0.41210   0.01267  Uiso   1.00
C27    C     0.58790   0.81760   0.69630   0.01267  Uiso   1.00
C28    C     0.67790   0.73460   0.65370   0.01267  Uiso   1.00
C29    C     0.88910   0.74860   0.62740   0.01267  Uiso   1.00
C30    C     0.97020   0.67260   0.58520   0.01267  Uiso   1.00
C31    C     0.83850   0.58180   0.56740   0.01267  Uiso   1.00
C32    C     0.62660   0.56900   0.59520   0.01267  Uiso   1.00
C33    C     0.54480   0.64320   0.63750   0.01267  Uiso   1.00
C34    C     0.91100   0.49880   0.52010   0.01267  Uiso   1.00
C35    C     0.15650   0.94180   0.83350   0.01267  Uiso   1.00
C36    C     0.01150   0.94120   0.89300   0.01267  Uiso   1.00
C37    C     0.07570  -0.00000   0.96730   0.01267  Uiso   1.00
C38    C     0.28560   0.05740   0.97500   0.01267  Uiso   1.00
C39    C     0.42080   0.04940   0.91210   0.01267  Uiso   1.00
C40    C     0.77030   0.18240   0.80370   0.01267  Uiso   1.00
C41    C     0.94330   0.26540   0.84630   0.01267  Uiso   1.00
C42    C     0.14050   0.25140   0.87260   0.01267  Uiso   1.00
C43    C     0.29760   0.32740   0.91480   0.01267  Uiso   1.00
C44    C     0.25670   0.41820   0.93260   0.01267  Uiso   1.00
C45    C     0.05760   0.43100   0.90480   0.01267  Uiso   1.00
C46    C     0.90160   0.35680   0.86250   0.01267  Uiso   1.00
C47    C     0.41220   0.50120   0.97990   0.01267  Uiso   1.00
C48    C     0.21470   0.05820   0.66650   0.01267  Uiso   1.00
C49    C     0.07030   0.05880   0.60700   0.01267  Uiso   1.00
C50    C     0.07570  -0.00000   0.53270   0.01267  Uiso   1.00
C51    C     0.22820   0.94260   0.52500   0.01267  Uiso   1.00
C52    C     0.37140   0.95060   0.58790   0.01267  Uiso   1.00
N1     N     0.63910   0.00260   0.15800   0.01267  Uiso   1.00
N2     N     0.63650   0.99740   0.34200   0.01267  Uiso   1.00
N3     N     0.36090   0.99740   0.84200   0.01267  Uiso   1.00
N4     N     0.36350   0.00260   0.65800   0.01267  Uiso   1.00
O1     O     0.28183   0.10166   0.29110   0.01267  Uiso   1.00
O2     O     0.60640   0.19400   0.28680   0.01267  Uiso   1.00
O3     O     0.18017   0.89834   0.20890   0.01267  Uiso   1.00
O4     O     0.41240   0.80600   0.21320   0.01267  Uiso   1.00
O5     O     0.71817   0.89834   0.70890   0.01267  Uiso   1.00
O6     O     0.39360   0.80600   0.71320   0.01267  Uiso   1.00
O7     O     0.81983   0.10166   0.79110   0.01267  Uiso   1.00
O8     O     0.58760   0.19400   0.78680   0.01267  Uiso   1.00
