data_image0
_cell_length_a       16.1322
_cell_length_b       15.7981
_cell_length_c       11.6042
_cell_angle_alpha    90
_cell_angle_beta     90
_cell_angle_gamma    90

_symmetry_space_group_name_H-M    "P 1"
_symmetry_int_tables_number       1

loop_
  _symmetry_equiv_pos_as_xyz
  'x, y, z'

loop_
  _atom_site_label
  _atom_site_occupancy
  _atom_site_fract_x
  _atom_site_fract_y
  _atom_site_fract_z
  _atom_site_thermal_displace_type
  _atom_site_B_iso_or_equiv
  _atom_site_type_symbol
  C1       1.0000 0.64334  0.40130  0.94850  Biso   1.000  C
  C2       1.0000 0.57298  0.35150  0.00060  Biso   1.000  C
  C3       1.0000 0.58730  0.27540  0.05700  Biso   1.000  C
  H1       1.0000 0.64140  0.25670  0.06760  Biso   1.000  H
  C4       1.0000 0.52162  0.22670  0.09770  Biso   1.000  C
  H2       1.0000 0.53210  0.17610  0.13610  Biso   1.000  H
  C5       1.0000 0.43967  0.25368  0.08120  Biso   1.000  C
  C6       1.0000 0.42540  0.33050  0.02630  Biso   1.000  C
  H3       1.0000 0.37130  0.34940  0.01590  Biso   1.000  H
  C7       1.0000 0.49124  0.37970  0.98640  Biso   1.000  C
  H4       1.0000 0.48090  0.43130  0.95050  Biso   1.000  H
  C8       1.0000 0.37027  0.20214  0.12180  Biso   1.000  C
  C9       1.0000 0.37134  0.12614  0.18090  Biso   1.000  C
  H5       1.0000 0.41850  0.09620  0.20250  Biso   1.000  H
  C10      1.0000 0.24300  0.16560  0.16230  Biso   1.000  C
  H6       1.0000 0.18570  0.16800  0.16980  Biso   1.000  H
  N1       1.0000 0.29016  0.10222  0.20250  Biso   1.000  N
  N2       1.0000 0.28824  0.22415  0.11080  Biso   1.000  N
  H7       1.0000 0.26960  0.26840  0.07640  Biso   1.000  H
  O1       1.0000 0.71710  0.37680  0.96347  Biso   1.000  O
  O2       1.0000 0.62562  0.46625  0.89141  Biso   1.000  O
  C11      1.0000 0.85666  0.59870  0.94850  Biso   1.000  C
  C12      1.0000 0.92702  0.64850  0.00060  Biso   1.000  C
  C13      1.0000 0.91270  0.72460  0.05700  Biso   1.000  C
  H8       1.0000 0.85860  0.74330  0.06760  Biso   1.000  H
  C14      1.0000 0.97838  0.77330  0.09770  Biso   1.000  C
  H9       1.0000 0.96790  0.82390  0.13610  Biso   1.000  H
  C15      1.0000 0.06033  0.74632  0.08120  Biso   1.000  C
  C16      1.0000 0.07460  0.66950  0.02630  Biso   1.000  C
  H10      1.0000 0.12870  0.65060  0.01590  Biso   1.000  H
  C17      1.0000 0.00876  0.62030  0.98640  Biso   1.000  C
  H11      1.0000 0.01910  0.56870  0.95050  Biso   1.000  H
  C18      1.0000 0.12973  0.79786  0.12180  Biso   1.000  C
  C19      1.0000 0.12866  0.87386  0.18090  Biso   1.000  C
  H12      1.0000 0.08150  0.90380  0.20250  Biso   1.000  H
  C20      1.0000 0.25700  0.83440  0.16230  Biso   1.000  C
  H13      1.0000 0.31430  0.83200  0.16980  Biso   1.000  H
  N3       1.0000 0.20984  0.89778  0.20250  Biso   1.000  N
  N4       1.0000 0.21176  0.77585  0.11080  Biso   1.000  N
  H14      1.0000 0.23040  0.73160  0.07640  Biso   1.000  H
  O3       1.0000 0.78290  0.62320  0.96347  Biso   1.000  O
  O4       1.0000 0.87438  0.53375  0.89141  Biso   1.000  O
  C21      1.0000 0.14334  0.09870  0.44850  Biso   1.000  C
  C22      1.0000 0.07298  0.14850  0.50060  Biso   1.000  C
  C23      1.0000 0.08730  0.22460  0.55700  Biso   1.000  C
  H15      1.0000 0.14140  0.24330  0.56760  Biso   1.000  H
  C24      1.0000 0.02162  0.27330  0.59770  Biso   1.000  C
  H16      1.0000 0.03210  0.32390  0.63610  Biso   1.000  H
  C25      1.0000 0.93967  0.24632  0.58120  Biso   1.000  C
  C26      1.0000 0.92540  0.16950  0.52630  Biso   1.000  C
  H17      1.0000 0.87130  0.15060  0.51590  Biso   1.000  H
  C27      1.0000 0.99124  0.12030  0.48640  Biso   1.000  C
  H18      1.0000 0.98090  0.06870  0.45050  Biso   1.000  H
  C28      1.0000 0.87027  0.29786  0.62180  Biso   1.000  C
  C29      1.0000 0.87134  0.37386  0.68090  Biso   1.000  C
  H19      1.0000 0.91850  0.40380  0.70250  Biso   1.000  H
  C30      1.0000 0.74300  0.33440  0.66230  Biso   1.000  C
  H20      1.0000 0.68570  0.33200  0.66980  Biso   1.000  H
  N5       1.0000 0.79016  0.39778  0.70250  Biso   1.000  N
  N6       1.0000 0.78824  0.27585  0.61080  Biso   1.000  N
  H21      1.0000 0.76960  0.23160  0.57640  Biso   1.000  H
  O5       1.0000 0.21710  0.12320  0.46347  Biso   1.000  O
  O6       1.0000 0.12562  0.03375  0.39141  Biso   1.000  O
  C31      1.0000 0.35666  0.90130  0.44850  Biso   1.000  C
  C32      1.0000 0.42702  0.85150  0.50060  Biso   1.000  C
  C33      1.0000 0.41270  0.77540  0.55700  Biso   1.000  C
  H22      1.0000 0.35860  0.75670  0.56760  Biso   1.000  H
  C34      1.0000 0.47838  0.72670  0.59770  Biso   1.000  C
  H23      1.0000 0.46790  0.67610  0.63610  Biso   1.000  H
  C35      1.0000 0.56033  0.75368  0.58120  Biso   1.000  C
  C36      1.0000 0.57460  0.83050  0.52630  Biso   1.000  C
  H24      1.0000 0.62870  0.84940  0.51590  Biso   1.000  H
  C37      1.0000 0.50876  0.87970  0.48640  Biso   1.000  C
  H25      1.0000 0.51910  0.93130  0.45050  Biso   1.000  H
  C38      1.0000 0.62973  0.70214  0.62180  Biso   1.000  C
  C39      1.0000 0.62866  0.62614  0.68090  Biso   1.000  C
  H26      1.0000 0.58150  0.59620  0.70250  Biso   1.000  H
  C40      1.0000 0.75700  0.66560  0.66230  Biso   1.000  C
  H27      1.0000 0.81430  0.66800  0.66980  Biso   1.000  H
  N7       1.0000 0.70984  0.60222  0.70250  Biso   1.000  N
  N8       1.0000 0.71176  0.72415  0.61080  Biso   1.000  N
  H28      1.0000 0.73040  0.76840  0.57640  Biso   1.000  H
  O7       1.0000 0.28290  0.87680  0.46347  Biso   1.000  O
  O8       1.0000 0.37438  0.96625  0.39141  Biso   1.000  O
  Cd1      1.0000 0.75000  0.50000  0.82528  Biso   1.000  Cd
  Cd2      1.0000 0.25000  0.00000  0.32528  Biso   1.000  Cd
  C41      1.0000 0.85666  0.90130  0.55150  Biso   1.000  C
  C42      1.0000 0.92702  0.85150  0.49940  Biso   1.000  C
  C43      1.0000 0.91270  0.77540  0.44300  Biso   1.000  C
  H29      1.0000 0.85860  0.75670  0.43240  Biso   1.000  H
  C44      1.0000 0.97838  0.72670  0.40230  Biso   1.000  C
  H30      1.0000 0.96790  0.67610  0.36390  Biso   1.000  H
  C45      1.0000 0.06033  0.75368  0.41880  Biso   1.000  C
  C46      1.0000 0.07460  0.83050  0.47370  Biso   1.000  C
  H31      1.0000 0.12870  0.84940  0.48410  Biso   1.000  H
  C47      1.0000 0.00876  0.87970  0.51360  Biso   1.000  C
  H32      1.0000 0.01910  0.93130  0.54950  Biso   1.000  H
  C48      1.0000 0.12973  0.70214  0.37820  Biso   1.000  C
  C49      1.0000 0.12866  0.62614  0.31910  Biso   1.000  C
  H33      1.0000 0.08150  0.59620  0.29750  Biso   1.000  H
  C50      1.0000 0.25700  0.66560  0.33770  Biso   1.000  C
  H34      1.0000 0.31430  0.66800  0.33020  Biso   1.000  H
  N9       1.0000 0.20984  0.60222  0.29750  Biso   1.000  N
  N10      1.0000 0.21176  0.72415  0.38920  Biso   1.000  N
  H35      1.0000 0.23040  0.76840  0.42360  Biso   1.000  H
  O9       1.0000 0.78290  0.87680  0.53653  Biso   1.000  O
  O10      1.0000 0.87438  0.96625  0.60859  Biso   1.000  O
  C51      1.0000 0.64334  0.09870  0.55150  Biso   1.000  C
  C52      1.0000 0.57298  0.14850  0.49940  Biso   1.000  C
  C53      1.0000 0.58730  0.22460  0.44300  Biso   1.000  C
  H36      1.0000 0.64140  0.24330  0.43240  Biso   1.000  H
  C54      1.0000 0.52162  0.27330  0.40230  Biso   1.000  C
  H37      1.0000 0.53210  0.32390  0.36390  Biso   1.000  H
  C55      1.0000 0.43967  0.24632  0.41880  Biso   1.000  C
  C56      1.0000 0.42540  0.16950  0.47370  Biso   1.000  C
  H38      1.0000 0.37130  0.15060  0.48410  Biso   1.000  H
  C57      1.0000 0.49124  0.12030  0.51360  Biso   1.000  C
  H39      1.0000 0.48090  0.06870  0.54950  Biso   1.000  H
  C58      1.0000 0.37027  0.29786  0.37820  Biso   1.000  C
  C59      1.0000 0.37134  0.37386  0.31910  Biso   1.000  C
  H40      1.0000 0.41850  0.40380  0.29750  Biso   1.000  H
  C60      1.0000 0.24300  0.33440  0.33770  Biso   1.000  C
  H41      1.0000 0.18570  0.33200  0.33020  Biso   1.000  H
  N11      1.0000 0.29016  0.39778  0.29750  Biso   1.000  N
  N12      1.0000 0.28824  0.27585  0.38920  Biso   1.000  N
  H42      1.0000 0.26960  0.23160  0.42360  Biso   1.000  H
  O11      1.0000 0.71710  0.12320  0.53653  Biso   1.000  O
  O12      1.0000 0.62562  0.03375  0.60859  Biso   1.000  O
  C61      1.0000 0.35666  0.59870  0.05150  Biso   1.000  C
  C62      1.0000 0.42702  0.64850  0.99940  Biso   1.000  C
  C63      1.0000 0.41270  0.72460  0.94300  Biso   1.000  C
  H43      1.0000 0.35860  0.74330  0.93240  Biso   1.000  H
  C64      1.0000 0.47838  0.77330  0.90230  Biso   1.000  C
  H44      1.0000 0.46790  0.82390  0.86390  Biso   1.000  H
  C65      1.0000 0.56033  0.74632  0.91880  Biso   1.000  C
  C66      1.0000 0.57460  0.66950  0.97370  Biso   1.000  C
  H45      1.0000 0.62870  0.65060  0.98410  Biso   1.000  H
  C67      1.0000 0.50876  0.62030  0.01360  Biso   1.000  C
  H46      1.0000 0.51910  0.56870  0.04950  Biso   1.000  H
  C68      1.0000 0.62973  0.79786  0.87820  Biso   1.000  C
  C69      1.0000 0.62866  0.87386  0.81910  Biso   1.000  C
  H47      1.0000 0.58150  0.90380  0.79750  Biso   1.000  H
  C70      1.0000 0.75700  0.83440  0.83770  Biso   1.000  C
  H48      1.0000 0.81430  0.83200  0.83020  Biso   1.000  H
  N13      1.0000 0.70984  0.89778  0.79750  Biso   1.000  N
  N14      1.0000 0.71176  0.77585  0.88920  Biso   1.000  N
  H49      1.0000 0.73040  0.73160  0.92360  Biso   1.000  H
  O13      1.0000 0.28290  0.62320  0.03653  Biso   1.000  O
  O14      1.0000 0.37438  0.53375  0.10859  Biso   1.000  O
  C71      1.0000 0.14334  0.40130  0.05150  Biso   1.000  C
  C72      1.0000 0.07298  0.35150  0.99940  Biso   1.000  C
  C73      1.0000 0.08730  0.27540  0.94300  Biso   1.000  C
  H50      1.0000 0.14140  0.25670  0.93240  Biso   1.000  H
  C74      1.0000 0.02162  0.22670  0.90230  Biso   1.000  C
  H51      1.0000 0.03210  0.17610  0.86390  Biso   1.000  H
  C75      1.0000 0.93967  0.25368  0.91880  Biso   1.000  C
  C76      1.0000 0.92540  0.33050  0.97370  Biso   1.000  C
  H52      1.0000 0.87130  0.34940  0.98410  Biso   1.000  H
  C77      1.0000 0.99124  0.37970  0.01360  Biso   1.000  C
  H53      1.0000 0.98090  0.43130  0.04950  Biso   1.000  H
  C78      1.0000 0.87027  0.20214  0.87820  Biso   1.000  C
  C79      1.0000 0.87134  0.12614  0.81910  Biso   1.000  C
  H54      1.0000 0.91850  0.09620  0.79750  Biso   1.000  H
  C80      1.0000 0.74300  0.16560  0.83770  Biso   1.000  C
  H55      1.0000 0.68570  0.16800  0.83020  Biso   1.000  H
  N15      1.0000 0.79016  0.10222  0.79750  Biso   1.000  N
  N16      1.0000 0.78824  0.22415  0.88920  Biso   1.000  N
  H56      1.0000 0.76960  0.26840  0.92360  Biso   1.000  H
  O15      1.0000 0.21710  0.37680  0.03653  Biso   1.000  O
  O16      1.0000 0.12562  0.46625  0.10859  Biso   1.000  O
  Cd3      1.0000 0.75000  0.00000  0.67472  Biso   1.000  Cd
  Cd4      1.0000 0.25000  0.50000  0.17472  Biso   1.000  Cd
