data_image0
_cell_length_a       13.202
_cell_length_b       27.475
_cell_length_c       7.641
_cell_angle_alpha    90
_cell_angle_beta     123.254
_cell_angle_gamma    90

_symmetry_space_group_name_H-M    "P 1"
_symmetry_int_tables_number       1

loop_
  _symmetry_equiv_pos_as_xyz
  'x, y, z'

loop_
  _atom_site_label
  _atom_site_occupancy
  _atom_site_fract_x
  _atom_site_fract_y
  _atom_site_fract_z
  _atom_site_thermal_displace_type
  _atom_site_B_iso_or_equiv
  _atom_site_type_symbol
  C1       1.0000 0.92500  0.28360  0.49740  Biso   1.000  C
  H1       1.0000 0.94710  0.31210  0.46090  Biso   1.000  H
  C2       1.0000 0.86900  0.24640  0.35430  Biso   1.000  C
  H2       1.0000 0.84830  0.25060  0.21770  Biso   1.000  H
  C3       1.0000 0.84330  0.20260  0.41320  Biso   1.000  C
  C4       1.0000 0.87000  0.19750  0.61510  Biso   1.000  C
  H3       1.0000 0.85000  0.16880  0.65390  Biso   1.000  H
  C5       1.0000 0.92730  0.23550  0.76130  Biso   1.000  C
  H4       1.0000 0.95030  0.23130  0.89920  Biso   1.000  H
  C6       1.0000 0.94820  0.27800  0.69810  Biso   1.000  C
  C7       1.0000 0.99950  0.32150  0.84530  Biso   1.000  C
  C8       1.0000 0.04450  0.32570  0.04910  Biso   1.000  C
  H5       1.0000 0.05400  0.29990  0.13570  Biso   1.000  H
  C9       1.0000 0.04580  0.39620  0.95230  Biso   1.000  C
  H6       1.0000 0.05580  0.42970  0.95070  Biso   1.000  H
  C10      1.0000 0.77880  0.16050  0.26520  Biso   1.000  C
  C11      1.0000 0.60870  0.56310  0.67520  Biso   1.000  C
  H7       1.0000 0.55160  0.58740  0.64020  Biso   1.000  H
  C12      1.0000 0.72850  0.57500  0.75380  Biso   1.000  C
  H8       1.0000 0.75300  0.60730  0.78400  Biso   1.000  H
  C13      1.0000 0.81540  0.53810  0.78930  Biso   1.000  C
  C14      1.0000 0.77890  0.49090  0.75630  Biso   1.000  C
  H9       1.0000 0.83510  0.46630  0.78990  Biso   1.000  H
  C15      1.0000 0.66130  0.47950  0.67480  Biso   1.000  C
  H10      1.0000 0.63720  0.44740  0.63380  Biso   1.000  H
  C16      1.0000 0.57430  0.51260  0.64870  Biso   1.000  C
  C17      1.0000 0.45120  0.49860  0.56260  Biso   1.000  C
  C18      1.0000 0.40370  0.45340  0.56670  Biso   1.000  C
  H11      1.0000 0.44760  0.42460  0.61870  Biso   1.000  H
  C19      1.0000 0.25490  0.50630  0.42980  Biso   1.000  C
  H12      1.0000 0.17760  0.51950  0.36660  Biso   1.000  H
  C20      1.0000 0.94490  0.55230  0.86110  Biso   1.000  C
  Cd1      1.0000 0.15111  0.40207  0.43916  Biso   1.000  Cd
  N1       1.0000 0.07460  0.37270  0.11410  Biso   1.000  N
  N2       1.0000 0.99960  0.36830  0.78380  Biso   1.000  N
  H13      1.0000 0.97440  0.37780  0.65900  Biso   1.000  H
  N3       1.0000 0.28340  0.45840  0.48240  Biso   1.000  N
  N4       1.0000 0.35560  0.53140  0.48360  Biso   1.000  N
  H14      1.0000 0.36010  0.56230  0.47130  Biso   1.000  H
  O1       1.0000 0.73200  0.17220  0.06760  Biso   1.000  O
  O2       1.0000 0.77360  0.12190  0.30850  Biso   1.000  O
  O3       1.0000 0.01090  0.52370  0.85000  Biso   1.000  O
  O4       1.0000 0.97330  0.59620  0.92210  Biso   1.000  O
  C21      1.0000 0.42500  0.78360  0.49740  Biso   1.000  C
  H15      1.0000 0.44710  0.81210  0.46090  Biso   1.000  H
  C22      1.0000 0.36900  0.74640  0.35430  Biso   1.000  C
  H16      1.0000 0.34830  0.75060  0.21770  Biso   1.000  H
  C23      1.0000 0.34330  0.70260  0.41320  Biso   1.000  C
  C24      1.0000 0.37000  0.69750  0.61510  Biso   1.000  C
  H17      1.0000 0.35000  0.66880  0.65390  Biso   1.000  H
  C25      1.0000 0.42730  0.73550  0.76130  Biso   1.000  C
  H18      1.0000 0.45030  0.73130  0.89920  Biso   1.000  H
  C26      1.0000 0.44820  0.77800  0.69810  Biso   1.000  C
  C27      1.0000 0.49950  0.82150  0.84530  Biso   1.000  C
  C28      1.0000 0.54450  0.82570  0.04910  Biso   1.000  C
  H19      1.0000 0.55400  0.79990  0.13570  Biso   1.000  H
  C29      1.0000 0.54580  0.89620  0.95230  Biso   1.000  C
  H20      1.0000 0.55580  0.92970  0.95070  Biso   1.000  H
  C30      1.0000 0.27880  0.66050  0.26520  Biso   1.000  C
  C31      1.0000 0.10870  0.06310  0.67520  Biso   1.000  C
  H21      1.0000 0.05160  0.08740  0.64020  Biso   1.000  H
  C32      1.0000 0.22850  0.07500  0.75380  Biso   1.000  C
  H22      1.0000 0.25300  0.10730  0.78400  Biso   1.000  H
  C33      1.0000 0.31540  0.03810  0.78930  Biso   1.000  C
  C34      1.0000 0.27890  0.99090  0.75630  Biso   1.000  C
  H23      1.0000 0.33510  0.96630  0.78990  Biso   1.000  H
  C35      1.0000 0.16130  0.97950  0.67480  Biso   1.000  C
  H24      1.0000 0.13720  0.94740  0.63380  Biso   1.000  H
  C36      1.0000 0.07430  0.01260  0.64870  Biso   1.000  C
  C37      1.0000 0.95120  0.99860  0.56260  Biso   1.000  C
  C38      1.0000 0.90370  0.95340  0.56670  Biso   1.000  C
  H25      1.0000 0.94760  0.92460  0.61870  Biso   1.000  H
  C39      1.0000 0.75490  0.00630  0.42980  Biso   1.000  C
  H26      1.0000 0.67760  0.01950  0.36660  Biso   1.000  H
  C40      1.0000 0.44490  0.05230  0.86110  Biso   1.000  C
  Cd2      1.0000 0.65111  0.90207  0.43916  Biso   1.000  Cd
  N5       1.0000 0.57460  0.87270  0.11410  Biso   1.000  N
  N6       1.0000 0.49960  0.86830  0.78380  Biso   1.000  N
  H27      1.0000 0.47440  0.87780  0.65900  Biso   1.000  H
  N7       1.0000 0.78340  0.95840  0.48240  Biso   1.000  N
  N8       1.0000 0.85560  0.03140  0.48360  Biso   1.000  N
  H28      1.0000 0.86010  0.06230  0.47130  Biso   1.000  H
  O5       1.0000 0.23200  0.67220  0.06760  Biso   1.000  O
  O6       1.0000 0.27360  0.62190  0.30850  Biso   1.000  O
  O7       1.0000 0.51090  0.02370  0.85000  Biso   1.000  O
  O8       1.0000 0.47330  0.09620  0.92210  Biso   1.000  O
  C41      1.0000 0.92500  0.71640  0.99740  Biso   1.000  C
  H29      1.0000 0.94710  0.68790  0.96090  Biso   1.000  H
  C42      1.0000 0.86900  0.75360  0.85430  Biso   1.000  C
  H30      1.0000 0.84830  0.74940  0.71770  Biso   1.000  H
  C43      1.0000 0.84330  0.79740  0.91320  Biso   1.000  C
  C44      1.0000 0.87000  0.80250  0.11510  Biso   1.000  C
  H31      1.0000 0.85000  0.83120  0.15390  Biso   1.000  H
  C45      1.0000 0.92730  0.76450  0.26130  Biso   1.000  C
  H32      1.0000 0.95030  0.76870  0.39920  Biso   1.000  H
  C46      1.0000 0.94820  0.72200  0.19810  Biso   1.000  C
  C47      1.0000 0.99950  0.67850  0.34530  Biso   1.000  C
  C48      1.0000 0.04450  0.67430  0.54910  Biso   1.000  C
  H33      1.0000 0.05400  0.70010  0.63570  Biso   1.000  H
  C49      1.0000 0.04580  0.60380  0.45230  Biso   1.000  C
  H34      1.0000 0.05580  0.57030  0.45070  Biso   1.000  H
  C50      1.0000 0.77880  0.83950  0.76520  Biso   1.000  C
  C51      1.0000 0.60870  0.43690  0.17520  Biso   1.000  C
  H35      1.0000 0.55160  0.41260  0.14020  Biso   1.000  H
  C52      1.0000 0.72850  0.42500  0.25380  Biso   1.000  C
  H36      1.0000 0.75300  0.39270  0.28400  Biso   1.000  H
  C53      1.0000 0.81540  0.46190  0.28930  Biso   1.000  C
  C54      1.0000 0.77890  0.50910  0.25630  Biso   1.000  C
  H37      1.0000 0.83510  0.53370  0.28990  Biso   1.000  H
  C55      1.0000 0.66130  0.52050  0.17480  Biso   1.000  C
  H38      1.0000 0.63720  0.55260  0.13380  Biso   1.000  H
  C56      1.0000 0.57430  0.48740  0.14870  Biso   1.000  C
  C57      1.0000 0.45120  0.50140  0.06260  Biso   1.000  C
  C58      1.0000 0.40370  0.54660  0.06670  Biso   1.000  C
  H39      1.0000 0.44760  0.57540  0.11870  Biso   1.000  H
  C59      1.0000 0.25490  0.49370  0.92980  Biso   1.000  C
  H40      1.0000 0.17760  0.48050  0.86660  Biso   1.000  H
  C60      1.0000 0.94490  0.44770  0.36110  Biso   1.000  C
  Cd3      1.0000 0.15111  0.59793  0.93916  Biso   1.000  Cd
  N9       1.0000 0.07460  0.62730  0.61410  Biso   1.000  N
  N10      1.0000 0.99960  0.63170  0.28380  Biso   1.000  N
  H41      1.0000 0.97440  0.62220  0.15900  Biso   1.000  H
  N11      1.0000 0.28340  0.54160  0.98240  Biso   1.000  N
  N12      1.0000 0.35560  0.46860  0.98360  Biso   1.000  N
  H42      1.0000 0.36010  0.43770  0.97130  Biso   1.000  H
  O9       1.0000 0.73200  0.82780  0.56760  Biso   1.000  O
  O10      1.0000 0.77360  0.87810  0.80850  Biso   1.000  O
  O11      1.0000 0.01090  0.47630  0.35000  Biso   1.000  O
  O12      1.0000 0.97330  0.40380  0.42210  Biso   1.000  O
  C61      1.0000 0.42500  0.21640  0.99740  Biso   1.000  C
  H43      1.0000 0.44710  0.18790  0.96090  Biso   1.000  H
  C62      1.0000 0.36900  0.25360  0.85430  Biso   1.000  C
  H44      1.0000 0.34830  0.24940  0.71770  Biso   1.000  H
  C63      1.0000 0.34330  0.29740  0.91320  Biso   1.000  C
  C64      1.0000 0.37000  0.30250  0.11510  Biso   1.000  C
  H45      1.0000 0.35000  0.33120  0.15390  Biso   1.000  H
  C65      1.0000 0.42730  0.26450  0.26130  Biso   1.000  C
  H46      1.0000 0.45030  0.26870  0.39920  Biso   1.000  H
  C66      1.0000 0.44820  0.22200  0.19810  Biso   1.000  C
  C67      1.0000 0.49950  0.17850  0.34530  Biso   1.000  C
  C68      1.0000 0.54450  0.17430  0.54910  Biso   1.000  C
  H47      1.0000 0.55400  0.20010  0.63570  Biso   1.000  H
  C69      1.0000 0.54580  0.10380  0.45230  Biso   1.000  C
  H48      1.0000 0.55580  0.07030  0.45070  Biso   1.000  H
  C70      1.0000 0.27880  0.33950  0.76520  Biso   1.000  C
  C71      1.0000 0.10870  0.93690  0.17520  Biso   1.000  C
  H49      1.0000 0.05160  0.91260  0.14020  Biso   1.000  H
  C72      1.0000 0.22850  0.92500  0.25380  Biso   1.000  C
  H50      1.0000 0.25300  0.89270  0.28400  Biso   1.000  H
  C73      1.0000 0.31540  0.96190  0.28930  Biso   1.000  C
  C74      1.0000 0.27890  0.00910  0.25630  Biso   1.000  C
  H51      1.0000 0.33510  0.03370  0.28990  Biso   1.000  H
  C75      1.0000 0.16130  0.02050  0.17480  Biso   1.000  C
  H52      1.0000 0.13720  0.05260  0.13380  Biso   1.000  H
  C76      1.0000 0.07430  0.98740  0.14870  Biso   1.000  C
  C77      1.0000 0.95120  0.00140  0.06260  Biso   1.000  C
  C78      1.0000 0.90370  0.04660  0.06670  Biso   1.000  C
  H53      1.0000 0.94760  0.07540  0.11870  Biso   1.000  H
  C79      1.0000 0.75490  0.99370  0.92980  Biso   1.000  C
  H54      1.0000 0.67760  0.98050  0.86660  Biso   1.000  H
  C80      1.0000 0.44490  0.94770  0.36110  Biso   1.000  C
  Cd4      1.0000 0.65111  0.09793  0.93916  Biso   1.000  Cd
  N13      1.0000 0.57460  0.12730  0.61410  Biso   1.000  N
  N14      1.0000 0.49960  0.13170  0.28380  Biso   1.000  N
  H55      1.0000 0.47440  0.12220  0.15900  Biso   1.000  H
  N15      1.0000 0.78340  0.04160  0.98240  Biso   1.000  N
  N16      1.0000 0.85560  0.96860  0.98360  Biso   1.000  N
  H56      1.0000 0.86010  0.93770  0.97130  Biso   1.000  H
  O13      1.0000 0.23200  0.32780  0.56760  Biso   1.000  O
  O14      1.0000 0.27360  0.37810  0.80850  Biso   1.000  O
  O15      1.0000 0.51090  0.97630  0.35000  Biso   1.000  O
  O16      1.0000 0.47330  0.90380  0.42210  Biso   1.000  O
