data_POXHUG_clean
_audit_creation_date              2014-07-02
_audit_creation_method            'Materials Studio'
_symmetry_space_group_name_H-M    'P1'
_symmetry_Int_Tables_number       1
_symmetry_cell_setting            triclinic
loop_
_symmetry_equiv_pos_as_xyz
  x,y,z
_cell_length_a                    9.1581
_cell_length_b                    9.7109
_cell_length_c                    22.3358
_cell_angle_alpha                 90.0000
_cell_angle_beta                  90.0000
_cell_angle_gamma                 117.4850
loop_
_atom_site_label
_atom_site_type_symbol
_atom_site_fract_x
_atom_site_fract_y
_atom_site_fract_z
_atom_site_U_iso_or_equiv
_atom_site_adp_type
_atom_site_occupancy
Eu1    Eu    0.61790   0.35660   0.00862   0.01267  Uiso   1.00
Eu2    Eu    0.88210   0.64340   0.50862   0.01267  Uiso   1.00
Eu3    Eu    0.38210   0.64340   0.99138   0.01267  Uiso   1.00
Eu4    Eu    0.11790   0.35660   0.49138   0.01267  Uiso   1.00
Ag1    Ag    0.01655   0.67970   0.85216   0.01267  Uiso   1.00
Ag2    Ag    0.48345   0.32030   0.35216   0.01267  Uiso   1.00
Ag3    Ag    0.98345   0.32030   0.14784   0.01267  Uiso   1.00
Ag4    Ag    0.51655   0.67970   0.64784   0.01267  Uiso   1.00
H1     H     0.94040   0.22180   0.92750   0.01267  Uiso   1.00
H2     H     0.74330   0.03090   0.86840   0.01267  Uiso   1.00
H3     H     0.77820   0.82160   0.84070   0.01267  Uiso   1.00
H4     H     0.18230   0.97120   0.93420   0.01267  Uiso   1.00
H5     H     0.98890   0.63950   0.71760   0.01267  Uiso   1.00
H6     H     0.10090   0.31110   0.65910   0.01267  Uiso   1.00
H7     H     0.13750   0.26170   0.75810   0.01267  Uiso   1.00
H8     H     0.11040   0.40860   0.83270   0.01267  Uiso   1.00
H9     H     0.55960   0.77820   0.42750   0.01267  Uiso   1.00
H10    H     0.75670   0.96910   0.36840   0.01267  Uiso   1.00
H11    H     0.72180   0.17840   0.34070   0.01267  Uiso   1.00
H12    H     0.31770   0.02880   0.43420   0.01267  Uiso   1.00
H13    H     0.51110   0.36050   0.21760   0.01267  Uiso   1.00
H14    H     0.39910   0.68890   0.15910   0.01267  Uiso   1.00
H15    H     0.36250   0.73830   0.25810   0.01267  Uiso   1.00
H16    H     0.38960   0.59140   0.33270   0.01267  Uiso   1.00
H17    H     0.05960   0.77820   0.07250   0.01267  Uiso   1.00
H18    H     0.25670   0.96910   0.13160   0.01267  Uiso   1.00
H19    H     0.22180   0.17840   0.15930   0.01267  Uiso   1.00
H20    H     0.81770   0.02880   0.06580   0.01267  Uiso   1.00
H21    H     0.01110   0.36050   0.28240   0.01267  Uiso   1.00
H22    H     0.89910   0.68890   0.34090   0.01267  Uiso   1.00
H23    H     0.86250   0.73830   0.24190   0.01267  Uiso   1.00
H24    H     0.88960   0.59140   0.16730   0.01267  Uiso   1.00
H25    H     0.44040   0.22180   0.57250   0.01267  Uiso   1.00
H26    H     0.24330   0.03090   0.63160   0.01267  Uiso   1.00
H27    H     0.27820   0.82160   0.65930   0.01267  Uiso   1.00
H28    H     0.68230   0.97120   0.56580   0.01267  Uiso   1.00
H29    H     0.48890   0.63950   0.78240   0.01267  Uiso   1.00
H30    H     0.60090   0.31110   0.84090   0.01267  Uiso   1.00
H31    H     0.63750   0.26170   0.74190   0.01267  Uiso   1.00
H32    H     0.61040   0.40860   0.66730   0.01267  Uiso   1.00
C1     C     0.21960   0.24290   0.97289   0.01267  Uiso   1.00
C2     C     0.08480   0.11720   0.93639   0.01267  Uiso   1.00
C3     C     0.95140   0.13450   0.91678   0.01267  Uiso   1.00
C4     C     0.83500   0.02190   0.88140   0.01267  Uiso   1.00
C5     C     0.85620   0.89620   0.86550   0.01267  Uiso   1.00
C6     C     0.09470   0.98500   0.91989   0.01267  Uiso   1.00
C7     C     0.02090   0.56340   0.72563   0.01267  Uiso   1.00
C8     C     0.03990   0.48210   0.67793   0.01267  Uiso   1.00
C9     C     0.08600   0.36770   0.69000   0.01267  Uiso   1.00
C10    C     0.10930   0.33980   0.74880   0.01267  Uiso   1.00
C11    C     0.09100   0.42720   0.79340   0.01267  Uiso   1.00
C12    C     0.00780   0.52120   0.61627   0.01267  Uiso   1.00
C13    C     0.50810   0.00830   0.96564   0.01267  Uiso   1.00
C14    C     0.99680   0.51990   0.96700   0.01267  Uiso   1.00
C15    C     0.28040   0.75710   0.47289   0.01267  Uiso   1.00
C16    C     0.41520   0.88280   0.43639   0.01267  Uiso   1.00
C17    C     0.54860   0.86550   0.41678   0.01267  Uiso   1.00
C18    C     0.66500   0.97810   0.38140   0.01267  Uiso   1.00
C19    C     0.64380   0.10380   0.36550   0.01267  Uiso   1.00
C20    C     0.40530   0.01500   0.41989   0.01267  Uiso   1.00
C21    C     0.47910   0.43660   0.22563   0.01267  Uiso   1.00
C22    C     0.46010   0.51790   0.17793   0.01267  Uiso   1.00
C23    C     0.41400   0.63230   0.19000   0.01267  Uiso   1.00
C24    C     0.39070   0.66020   0.24880   0.01267  Uiso   1.00
C25    C     0.40900   0.57280   0.29340   0.01267  Uiso   1.00
C26    C     0.49220   0.47880   0.11627   0.01267  Uiso   1.00
C27    C     0.99190   0.99170   0.46564   0.01267  Uiso   1.00
C28    C     0.50320   0.48010   0.46700   0.01267  Uiso   1.00
C29    C     0.78040   0.75710   0.02711   0.01267  Uiso   1.00
C30    C     0.91520   0.88280   0.06361   0.01267  Uiso   1.00
C31    C     0.04860   0.86550   0.08322   0.01267  Uiso   1.00
C32    C     0.16500   0.97810   0.11860   0.01267  Uiso   1.00
C33    C     0.14380   0.10380   0.13450   0.01267  Uiso   1.00
C34    C     0.90530   0.01500   0.08011   0.01267  Uiso   1.00
C35    C     0.97910   0.43660   0.27437   0.01267  Uiso   1.00
C36    C     0.96010   0.51790   0.32207   0.01267  Uiso   1.00
C37    C     0.91400   0.63230   0.31000   0.01267  Uiso   1.00
C38    C     0.89070   0.66020   0.25120   0.01267  Uiso   1.00
C39    C     0.90900   0.57280   0.20660   0.01267  Uiso   1.00
C40    C     0.99220   0.47880   0.38373   0.01267  Uiso   1.00
C41    C     0.49190   0.99170   0.03436   0.01267  Uiso   1.00
C42    C     0.00320   0.48010   0.03300   0.01267  Uiso   1.00
C43    C     0.71960   0.24290   0.52711   0.01267  Uiso   1.00
C44    C     0.58480   0.11720   0.56361   0.01267  Uiso   1.00
C45    C     0.45140   0.13450   0.58322   0.01267  Uiso   1.00
C46    C     0.33500   0.02190   0.61860   0.01267  Uiso   1.00
C47    C     0.35620   0.89620   0.63450   0.01267  Uiso   1.00
C48    C     0.59470   0.98500   0.58011   0.01267  Uiso   1.00
C49    C     0.52090   0.56340   0.77437   0.01267  Uiso   1.00
C50    C     0.53990   0.48210   0.82207   0.01267  Uiso   1.00
C51    C     0.58600   0.36770   0.81000   0.01267  Uiso   1.00
C52    C     0.60930   0.33980   0.75120   0.01267  Uiso   1.00
C53    C     0.59100   0.42720   0.70660   0.01267  Uiso   1.00
C54    C     0.50780   0.52120   0.88373   0.01267  Uiso   1.00
C55    C     0.00810   0.00830   0.53436   0.01267  Uiso   1.00
C56    C     0.49680   0.51990   0.53300   0.01267  Uiso   1.00
N1     N     0.98380   0.87490   0.88403   0.01267  Uiso   1.00
N2     N     0.04620   0.53840   0.78277   0.01267  Uiso   1.00
N3     N     0.51620   0.12510   0.38403   0.01267  Uiso   1.00
N4     N     0.45380   0.46160   0.28277   0.01267  Uiso   1.00
N5     N     0.01620   0.12510   0.11597   0.01267  Uiso   1.00
N6     N     0.95380   0.46160   0.21723   0.01267  Uiso   1.00
N7     N     0.48380   0.87490   0.61597   0.01267  Uiso   1.00
N8     N     0.54620   0.53840   0.71723   0.01267  Uiso   1.00
O1     O     0.32390   0.21010   0.99723   0.01267  Uiso   1.00
O2     O     0.21760   0.37010   0.97428   0.01267  Uiso   1.00
O3     O     0.94530   0.61090   0.61078   0.01267  Uiso   1.00
O4     O     0.04580   0.46200   0.57249   0.01267  Uiso   1.00
O5     O     0.13170   0.61630   0.94393   0.01267  Uiso   1.00
O6     O     0.86170   0.45840   0.94084   0.01267  Uiso   1.00
O7     O     0.57850   0.14240   0.94433   0.01267  Uiso   1.00
O8     O     0.45010   0.88370   0.93618   0.01267  Uiso   1.00
O9     O     0.17610   0.78990   0.49723   0.01267  Uiso   1.00
O10    O     0.28240   0.62990   0.47428   0.01267  Uiso   1.00
O11    O     0.55470   0.38910   0.11078   0.01267  Uiso   1.00
O12    O     0.45420   0.53800   0.07249   0.01267  Uiso   1.00
O13    O     0.36830   0.38370   0.44393   0.01267  Uiso   1.00
O14    O     0.63830   0.54160   0.44084   0.01267  Uiso   1.00
O15    O     0.92150   0.85760   0.44433   0.01267  Uiso   1.00
O16    O     0.04990   0.11630   0.43618   0.01267  Uiso   1.00
O17    O     0.67610   0.78990   0.00277   0.01267  Uiso   1.00
O18    O     0.78240   0.62990   0.02572   0.01267  Uiso   1.00
O19    O     0.05470   0.38910   0.38922   0.01267  Uiso   1.00
O20    O     0.95420   0.53800   0.42751   0.01267  Uiso   1.00
O21    O     0.86830   0.38370   0.05607   0.01267  Uiso   1.00
O22    O     0.13830   0.54160   0.05916   0.01267  Uiso   1.00
O23    O     0.42150   0.85760   0.05567   0.01267  Uiso   1.00
O24    O     0.54990   0.11630   0.06382   0.01267  Uiso   1.00
O25    O     0.82390   0.21010   0.50277   0.01267  Uiso   1.00
O26    O     0.71760   0.37010   0.52572   0.01267  Uiso   1.00
O27    O     0.44530   0.61090   0.88922   0.01267  Uiso   1.00
O28    O     0.54580   0.46200   0.92751   0.01267  Uiso   1.00
O29    O     0.63170   0.61630   0.55607   0.01267  Uiso   1.00
O30    O     0.36170   0.45840   0.55916   0.01267  Uiso   1.00
O31    O     0.07850   0.14240   0.55567   0.01267  Uiso   1.00
O32    O     0.95010   0.88370   0.56382   0.01267  Uiso   1.00
