data_POXHOA_clean
_audit_creation_date              2014-07-02
_audit_creation_method            'Materials Studio'
_symmetry_space_group_name_H-M    'P1'
_symmetry_Int_Tables_number       1
_symmetry_cell_setting            triclinic
loop_
_symmetry_equiv_pos_as_xyz
  x,y,z
_cell_length_a                    9.1262
_cell_length_b                    9.6798
_cell_length_c                    22.2733
_cell_angle_alpha                 90.0000
_cell_angle_beta                  90.0000
_cell_angle_gamma                 117.8720
loop_
_atom_site_label
_atom_site_type_symbol
_atom_site_fract_x
_atom_site_fract_y
_atom_site_fract_z
_atom_site_U_iso_or_equiv
_atom_site_adp_type
_atom_site_occupancy
Dy1    Dy    0.61898   0.35499   0.00833   0.01267  Uiso   1.00
Dy2    Dy    0.88102   0.64501   0.50833   0.01267  Uiso   1.00
Dy3    Dy    0.38102   0.64501   0.99167   0.01267  Uiso   1.00
Dy4    Dy    0.11898   0.35499   0.49167   0.01267  Uiso   1.00
Ag1    Ag    0.01259   0.68019   0.85187   0.01267  Uiso   1.00
Ag2    Ag    0.48741   0.31981   0.35187   0.01267  Uiso   1.00
Ag3    Ag    0.98741   0.31981   0.14813   0.01267  Uiso   1.00
Ag4    Ag    0.51259   0.68019   0.64813   0.01267  Uiso   1.00
H1     H     0.94470   0.22650   0.92830   0.01267  Uiso   1.00
H2     H     0.74500   0.03670   0.86830   0.01267  Uiso   1.00
H3     H     0.77640   0.82360   0.84050   0.01267  Uiso   1.00
H4     H     0.18330   0.97210   0.93430   0.01267  Uiso   1.00
H5     H     0.98700   0.63940   0.71650   0.01267  Uiso   1.00
H6     H     0.10180   0.30970   0.66000   0.01267  Uiso   1.00
H7     H     0.13830   0.26330   0.75990   0.01267  Uiso   1.00
H8     H     0.10970   0.41290   0.83370   0.01267  Uiso   1.00
H9     H     0.55530   0.77350   0.42830   0.01267  Uiso   1.00
H10    H     0.75500   0.96330   0.36830   0.01267  Uiso   1.00
H11    H     0.72360   0.17640   0.34050   0.01267  Uiso   1.00
H12    H     0.31670   0.02790   0.43430   0.01267  Uiso   1.00
H13    H     0.51300   0.36060   0.21650   0.01267  Uiso   1.00
H14    H     0.39820   0.69030   0.16000   0.01267  Uiso   1.00
H15    H     0.36170   0.73670   0.25990   0.01267  Uiso   1.00
H16    H     0.39030   0.58710   0.33370   0.01267  Uiso   1.00
H17    H     0.05530   0.77350   0.07170   0.01267  Uiso   1.00
H18    H     0.25500   0.96330   0.13170   0.01267  Uiso   1.00
H19    H     0.22360   0.17640   0.15950   0.01267  Uiso   1.00
H20    H     0.81670   0.02790   0.06570   0.01267  Uiso   1.00
H21    H     0.01300   0.36060   0.28350   0.01267  Uiso   1.00
H22    H     0.89820   0.69030   0.34000   0.01267  Uiso   1.00
H23    H     0.86170   0.73670   0.24010   0.01267  Uiso   1.00
H24    H     0.89030   0.58710   0.16630   0.01267  Uiso   1.00
H25    H     0.44470   0.22650   0.57170   0.01267  Uiso   1.00
H26    H     0.24500   0.03670   0.63170   0.01267  Uiso   1.00
H27    H     0.27640   0.82360   0.65950   0.01267  Uiso   1.00
H28    H     0.68330   0.97210   0.56570   0.01267  Uiso   1.00
H29    H     0.48700   0.63940   0.78350   0.01267  Uiso   1.00
H30    H     0.60180   0.30970   0.84000   0.01267  Uiso   1.00
H31    H     0.63830   0.26330   0.74010   0.01267  Uiso   1.00
H32    H     0.60970   0.41290   0.66630   0.01267  Uiso   1.00
C1     C     0.22390   0.24520   0.97420   0.01267  Uiso   1.00
C2     C     0.08750   0.11930   0.93750   0.01267  Uiso   1.00
C3     C     0.95410   0.13820   0.91750   0.01267  Uiso   1.00
C4     C     0.83600   0.02630   0.88160   0.01267  Uiso   1.00
C5     C     0.85500   0.89830   0.86560   0.01267  Uiso   1.00
C6     C     0.09540   0.98660   0.92050   0.01267  Uiso   1.00
C7     C     0.01930   0.56350   0.72500   0.01267  Uiso   1.00
C8     C     0.03970   0.48110   0.67750   0.01267  Uiso   1.00
C9     C     0.08640   0.36710   0.69050   0.01267  Uiso   1.00
C10    C     0.10960   0.34080   0.74990   0.01267  Uiso   1.00
C11    C     0.09010   0.42950   0.79410   0.01267  Uiso   1.00
C12    C     0.00980   0.51710   0.61490   0.01267  Uiso   1.00
C13    C     0.50850   0.00820   0.96550   0.01267  Uiso   1.00
C14    C     0.99840   0.52090   0.96680   0.01267  Uiso   1.00
C15    C     0.27610   0.75480   0.47420   0.01267  Uiso   1.00
C16    C     0.41250   0.88070   0.43750   0.01267  Uiso   1.00
C17    C     0.54590   0.86180   0.41750   0.01267  Uiso   1.00
C18    C     0.66400   0.97370   0.38160   0.01267  Uiso   1.00
C19    C     0.64500   0.10170   0.36560   0.01267  Uiso   1.00
C20    C     0.40460   0.01340   0.42050   0.01267  Uiso   1.00
C21    C     0.48070   0.43650   0.22500   0.01267  Uiso   1.00
C22    C     0.46030   0.51890   0.17750   0.01267  Uiso   1.00
C23    C     0.41360   0.63290   0.19050   0.01267  Uiso   1.00
C24    C     0.39040   0.65920   0.24990   0.01267  Uiso   1.00
C25    C     0.40990   0.57050   0.29410   0.01267  Uiso   1.00
C26    C     0.49020   0.48290   0.11490   0.01267  Uiso   1.00
C27    C     0.99150   0.99180   0.46550   0.01267  Uiso   1.00
C28    C     0.50160   0.47910   0.46680   0.01267  Uiso   1.00
C29    C     0.77610   0.75480   0.02580   0.01267  Uiso   1.00
C30    C     0.91250   0.88070   0.06250   0.01267  Uiso   1.00
C31    C     0.04590   0.86180   0.08250   0.01267  Uiso   1.00
C32    C     0.16400   0.97370   0.11840   0.01267  Uiso   1.00
C33    C     0.14500   0.10170   0.13440   0.01267  Uiso   1.00
C34    C     0.90460   0.01340   0.07950   0.01267  Uiso   1.00
C35    C     0.98070   0.43650   0.27500   0.01267  Uiso   1.00
C36    C     0.96030   0.51890   0.32250   0.01267  Uiso   1.00
C37    C     0.91360   0.63290   0.30950   0.01267  Uiso   1.00
C38    C     0.89040   0.65920   0.25010   0.01267  Uiso   1.00
C39    C     0.90990   0.57050   0.20590   0.01267  Uiso   1.00
C40    C     0.99020   0.48290   0.38510   0.01267  Uiso   1.00
C41    C     0.49150   0.99180   0.03450   0.01267  Uiso   1.00
C42    C     0.00160   0.47910   0.03320   0.01267  Uiso   1.00
C43    C     0.72390   0.24520   0.52580   0.01267  Uiso   1.00
C44    C     0.58750   0.11930   0.56250   0.01267  Uiso   1.00
C45    C     0.45410   0.13820   0.58250   0.01267  Uiso   1.00
C46    C     0.33600   0.02630   0.61840   0.01267  Uiso   1.00
C47    C     0.35500   0.89830   0.63440   0.01267  Uiso   1.00
C48    C     0.59540   0.98660   0.57950   0.01267  Uiso   1.00
C49    C     0.51930   0.56350   0.77500   0.01267  Uiso   1.00
C50    C     0.53970   0.48110   0.82250   0.01267  Uiso   1.00
C51    C     0.58640   0.36710   0.80950   0.01267  Uiso   1.00
C52    C     0.60960   0.34080   0.75010   0.01267  Uiso   1.00
C53    C     0.59010   0.42950   0.70590   0.01267  Uiso   1.00
C54    C     0.50980   0.51710   0.88510   0.01267  Uiso   1.00
C55    C     0.00850   0.00820   0.53450   0.01267  Uiso   1.00
C56    C     0.49840   0.52090   0.53320   0.01267  Uiso   1.00
N1     N     0.98150   0.87650   0.88467   0.01267  Uiso   1.00
N2     N     0.04380   0.53940   0.78229   0.01267  Uiso   1.00
N3     N     0.51850   0.12350   0.38467   0.01267  Uiso   1.00
N4     N     0.45620   0.46060   0.28229   0.01267  Uiso   1.00
N5     N     0.01850   0.12350   0.11533   0.01267  Uiso   1.00
N6     N     0.95620   0.46060   0.21771   0.01267  Uiso   1.00
N7     N     0.48150   0.87650   0.61533   0.01267  Uiso   1.00
N8     N     0.54380   0.53940   0.71771   0.01267  Uiso   1.00
O1     O     0.32710   0.21200   0.99864   0.01267  Uiso   1.00
O2     O     0.22240   0.37310   0.97555   0.01267  Uiso   1.00
O3     O     0.94820   0.60790   0.60749   0.01267  Uiso   1.00
O4     O     0.04780   0.45370   0.57281   0.01267  Uiso   1.00
O5     O     0.13370   0.61560   0.94360   0.01267  Uiso   1.00
O6     O     0.86070   0.45750   0.94094   0.01267  Uiso   1.00
O7     O     0.57850   0.14350   0.94446   0.01267  Uiso   1.00
O8     O     0.45050   0.88270   0.93628   0.01267  Uiso   1.00
O9     O     0.17290   0.78800   0.49864   0.01267  Uiso   1.00
O10    O     0.27760   0.62690   0.47555   0.01267  Uiso   1.00
O11    O     0.55180   0.39210   0.10749   0.01267  Uiso   1.00
O12    O     0.45220   0.54630   0.07281   0.01267  Uiso   1.00
O13    O     0.36630   0.38440   0.44360   0.01267  Uiso   1.00
O14    O     0.63930   0.54250   0.44094   0.01267  Uiso   1.00
O15    O     0.92150   0.85650   0.44446   0.01267  Uiso   1.00
O16    O     0.04950   0.11730   0.43628   0.01267  Uiso   1.00
O17    O     0.67290   0.78800   0.00136   0.01267  Uiso   1.00
O18    O     0.77760   0.62690   0.02445   0.01267  Uiso   1.00
O19    O     0.05180   0.39210   0.39251   0.01267  Uiso   1.00
O20    O     0.95220   0.54630   0.42719   0.01267  Uiso   1.00
O21    O     0.86630   0.38440   0.05640   0.01267  Uiso   1.00
O22    O     0.13930   0.54250   0.05906   0.01267  Uiso   1.00
O23    O     0.42150   0.85650   0.05554   0.01267  Uiso   1.00
O24    O     0.54950   0.11730   0.06372   0.01267  Uiso   1.00
O25    O     0.82710   0.21200   0.50136   0.01267  Uiso   1.00
O26    O     0.72240   0.37310   0.52445   0.01267  Uiso   1.00
O27    O     0.44820   0.60790   0.89251   0.01267  Uiso   1.00
O28    O     0.54780   0.45370   0.92719   0.01267  Uiso   1.00
O29    O     0.63370   0.61560   0.55640   0.01267  Uiso   1.00
O30    O     0.36070   0.45750   0.55906   0.01267  Uiso   1.00
O31    O     0.07850   0.14350   0.55554   0.01267  Uiso   1.00
O32    O     0.95050   0.88270   0.56372   0.01267  Uiso   1.00
