data_POXHIU_clean
_audit_creation_date              2014-07-02
_audit_creation_method            'Materials Studio'
_symmetry_space_group_name_H-M    'P1'
_symmetry_Int_Tables_number       1
_symmetry_cell_setting            triclinic
loop_
_symmetry_equiv_pos_as_xyz
  x,y,z
_cell_length_a                    9.1137
_cell_length_b                    9.6639
_cell_length_c                    22.2590
_cell_angle_alpha                 90.0000
_cell_angle_beta                  90.0000
_cell_angle_gamma                 117.9600
loop_
_atom_site_label
_atom_site_type_symbol
_atom_site_fract_x
_atom_site_fract_y
_atom_site_fract_z
_atom_site_U_iso_or_equiv
_atom_site_adp_type
_atom_site_occupancy
Ho1    Ho    0.61922   0.35460   0.00827   0.01267  Uiso   1.00
Ho2    Ho    0.88078   0.64540   0.50827   0.01267  Uiso   1.00
Ho3    Ho    0.38078   0.64540   0.99173   0.01267  Uiso   1.00
Ho4    Ho    0.11922   0.35460   0.49173   0.01267  Uiso   1.00
Ag1    Ag    0.01177   0.67984   0.85168   0.01267  Uiso   1.00
Ag2    Ag    0.48823   0.32016   0.35168   0.01267  Uiso   1.00
Ag3    Ag    0.98823   0.32016   0.14832   0.01267  Uiso   1.00
Ag4    Ag    0.51177   0.67984   0.64832   0.01267  Uiso   1.00
H1     H     0.94520   0.22720   0.92890   0.01267  Uiso   1.00
H2     H     0.74600   0.03680   0.86780   0.01267  Uiso   1.00
H3     H     0.77530   0.82320   0.84110   0.01267  Uiso   1.00
H4     H     0.18250   0.97110   0.93500   0.01267  Uiso   1.00
H5     H     0.98510   0.63800   0.71590   0.01267  Uiso   1.00
H6     H     0.10180   0.30950   0.65990   0.01267  Uiso   1.00
H7     H     0.13870   0.26250   0.75980   0.01267  Uiso   1.00
H8     H     0.10840   0.41220   0.83340   0.01267  Uiso   1.00
H9     H     0.55480   0.77280   0.42890   0.01267  Uiso   1.00
H10    H     0.75400   0.96320   0.36780   0.01267  Uiso   1.00
H11    H     0.72470   0.17680   0.34110   0.01267  Uiso   1.00
H12    H     0.31750   0.02890   0.43500   0.01267  Uiso   1.00
H13    H     0.51490   0.36200   0.21590   0.01267  Uiso   1.00
H14    H     0.39820   0.69050   0.15990   0.01267  Uiso   1.00
H15    H     0.36130   0.73750   0.25980   0.01267  Uiso   1.00
H16    H     0.39160   0.58780   0.33340   0.01267  Uiso   1.00
H17    H     0.05480   0.77280   0.07110   0.01267  Uiso   1.00
H18    H     0.25400   0.96320   0.13220   0.01267  Uiso   1.00
H19    H     0.22470   0.17680   0.15890   0.01267  Uiso   1.00
H20    H     0.81750   0.02890   0.06500   0.01267  Uiso   1.00
H21    H     0.01490   0.36200   0.28410   0.01267  Uiso   1.00
H22    H     0.89820   0.69050   0.34010   0.01267  Uiso   1.00
H23    H     0.86130   0.73750   0.24020   0.01267  Uiso   1.00
H24    H     0.89160   0.58780   0.16660   0.01267  Uiso   1.00
H25    H     0.44520   0.22720   0.57110   0.01267  Uiso   1.00
H26    H     0.24600   0.03680   0.63220   0.01267  Uiso   1.00
H27    H     0.27530   0.82320   0.65890   0.01267  Uiso   1.00
H28    H     0.68250   0.97110   0.56500   0.01267  Uiso   1.00
H29    H     0.48510   0.63800   0.78410   0.01267  Uiso   1.00
H30    H     0.60180   0.30950   0.84010   0.01267  Uiso   1.00
H31    H     0.63870   0.26250   0.74020   0.01267  Uiso   1.00
H32    H     0.60840   0.41220   0.66660   0.01267  Uiso   1.00
C1     C     0.22440   0.24610   0.97436   0.01267  Uiso   1.00
C2     C     0.08810   0.11970   0.93770   0.01267  Uiso   1.00
C3     C     0.95490   0.13910   0.91787   0.01267  Uiso   1.00
C4     C     0.83650   0.02600   0.88140   0.01267  Uiso   1.00
C5     C     0.85480   0.89830   0.86590   0.01267  Uiso   1.00
C6     C     0.09500   0.98610   0.92080   0.01267  Uiso   1.00
C7     C     0.01840   0.56270   0.72449   0.01267  Uiso   1.00
C8     C     0.03940   0.48110   0.67720   0.01267  Uiso   1.00
C9     C     0.08630   0.36690   0.69050   0.01267  Uiso   1.00
C10    C     0.10970   0.33990   0.74980   0.01267  Uiso   1.00
C11    C     0.08940   0.42900   0.79370   0.01267  Uiso   1.00
C12    C     0.01080   0.51680   0.61420   0.01267  Uiso   1.00
C13    C     0.50810   0.00750   0.96559   0.01267  Uiso   1.00
C14    C     0.99780   0.52000   0.96683   0.01267  Uiso   1.00
C15    C     0.27560   0.75390   0.47436   0.01267  Uiso   1.00
C16    C     0.41190   0.88030   0.43770   0.01267  Uiso   1.00
C17    C     0.54510   0.86090   0.41787   0.01267  Uiso   1.00
C18    C     0.66350   0.97400   0.38140   0.01267  Uiso   1.00
C19    C     0.64520   0.10170   0.36590   0.01267  Uiso   1.00
C20    C     0.40500   0.01390   0.42080   0.01267  Uiso   1.00
C21    C     0.48160   0.43730   0.22449   0.01267  Uiso   1.00
C22    C     0.46060   0.51890   0.17720   0.01267  Uiso   1.00
C23    C     0.41370   0.63310   0.19050   0.01267  Uiso   1.00
C24    C     0.39030   0.66010   0.24980   0.01267  Uiso   1.00
C25    C     0.41060   0.57100   0.29370   0.01267  Uiso   1.00
C26    C     0.48920   0.48320   0.11420   0.01267  Uiso   1.00
C27    C     0.99190   0.99250   0.46559   0.01267  Uiso   1.00
C28    C     0.50220   0.48000   0.46683   0.01267  Uiso   1.00
C29    C     0.77560   0.75390   0.02564   0.01267  Uiso   1.00
C30    C     0.91190   0.88030   0.06230   0.01267  Uiso   1.00
C31    C     0.04510   0.86090   0.08213   0.01267  Uiso   1.00
C32    C     0.16350   0.97400   0.11860   0.01267  Uiso   1.00
C33    C     0.14520   0.10170   0.13410   0.01267  Uiso   1.00
C34    C     0.90500   0.01390   0.07920   0.01267  Uiso   1.00
C35    C     0.98160   0.43730   0.27551   0.01267  Uiso   1.00
C36    C     0.96060   0.51890   0.32280   0.01267  Uiso   1.00
C37    C     0.91370   0.63310   0.30950   0.01267  Uiso   1.00
C38    C     0.89030   0.66010   0.25020   0.01267  Uiso   1.00
C39    C     0.91060   0.57100   0.20630   0.01267  Uiso   1.00
C40    C     0.98920   0.48320   0.38580   0.01267  Uiso   1.00
C41    C     0.49190   0.99250   0.03441   0.01267  Uiso   1.00
C42    C     0.00220   0.48000   0.03317   0.01267  Uiso   1.00
C43    C     0.72440   0.24610   0.52564   0.01267  Uiso   1.00
C44    C     0.58810   0.11970   0.56230   0.01267  Uiso   1.00
C45    C     0.45490   0.13910   0.58213   0.01267  Uiso   1.00
C46    C     0.33650   0.02600   0.61860   0.01267  Uiso   1.00
C47    C     0.35480   0.89830   0.63410   0.01267  Uiso   1.00
C48    C     0.59500   0.98610   0.57920   0.01267  Uiso   1.00
C49    C     0.51840   0.56270   0.77551   0.01267  Uiso   1.00
C50    C     0.53940   0.48110   0.82280   0.01267  Uiso   1.00
C51    C     0.58630   0.36690   0.80950   0.01267  Uiso   1.00
C52    C     0.60970   0.33990   0.75020   0.01267  Uiso   1.00
C53    C     0.58940   0.42900   0.70630   0.01267  Uiso   1.00
C54    C     0.51080   0.51680   0.88580   0.01267  Uiso   1.00
C55    C     0.00810   0.00750   0.53441   0.01267  Uiso   1.00
C56    C     0.49780   0.52000   0.53317   0.01267  Uiso   1.00
N1     N     0.98190   0.87600   0.88476   0.01267  Uiso   1.00
N2     N     0.04330   0.53950   0.78198   0.01267  Uiso   1.00
N3     N     0.51810   0.12400   0.38476   0.01267  Uiso   1.00
N4     N     0.45670   0.46050   0.28198   0.01267  Uiso   1.00
N5     N     0.01810   0.12400   0.11524   0.01267  Uiso   1.00
N6     N     0.95670   0.46050   0.21802   0.01267  Uiso   1.00
N7     N     0.48190   0.87600   0.61524   0.01267  Uiso   1.00
N8     N     0.54330   0.53950   0.71802   0.01267  Uiso   1.00
O1     O     0.32800   0.21260   0.99912   0.01267  Uiso   1.00
O2     O     0.22350   0.37450   0.97613   0.01267  Uiso   1.00
O3     O     0.94920   0.60760   0.60668   0.01267  Uiso   1.00
O4     O     0.04820   0.45170   0.57264   0.01267  Uiso   1.00
O5     O     0.13400   0.61490   0.94346   0.01267  Uiso   1.00
O6     O     0.86050   0.45690   0.94095   0.01267  Uiso   1.00
O7     O     0.57810   0.14370   0.94439   0.01267  Uiso   1.00
O8     O     0.45070   0.88260   0.93619   0.01267  Uiso   1.00
O9     O     0.17200   0.78740   0.49912   0.01267  Uiso   1.00
O10    O     0.27650   0.62550   0.47613   0.01267  Uiso   1.00
O11    O     0.55080   0.39240   0.10668   0.01267  Uiso   1.00
O12    O     0.45180   0.54830   0.07264   0.01267  Uiso   1.00
O13    O     0.36600   0.38510   0.44346   0.01267  Uiso   1.00
O14    O     0.63950   0.54310   0.44095   0.01267  Uiso   1.00
O15    O     0.92190   0.85630   0.44439   0.01267  Uiso   1.00
O16    O     0.04930   0.11740   0.43619   0.01267  Uiso   1.00
O17    O     0.67200   0.78740   0.00088   0.01267  Uiso   1.00
O18    O     0.77650   0.62550   0.02387   0.01267  Uiso   1.00
O19    O     0.05080   0.39240   0.39332   0.01267  Uiso   1.00
O20    O     0.95180   0.54830   0.42736   0.01267  Uiso   1.00
O21    O     0.86600   0.38510   0.05654   0.01267  Uiso   1.00
O22    O     0.13950   0.54310   0.05905   0.01267  Uiso   1.00
O23    O     0.42190   0.85630   0.05561   0.01267  Uiso   1.00
O24    O     0.54930   0.11740   0.06381   0.01267  Uiso   1.00
O25    O     0.82800   0.21260   0.50088   0.01267  Uiso   1.00
O26    O     0.72350   0.37450   0.52387   0.01267  Uiso   1.00
O27    O     0.44920   0.60760   0.89332   0.01267  Uiso   1.00
O28    O     0.54820   0.45170   0.92736   0.01267  Uiso   1.00
O29    O     0.63400   0.61490   0.55654   0.01267  Uiso   1.00
O30    O     0.36050   0.45690   0.55905   0.01267  Uiso   1.00
O31    O     0.07810   0.14370   0.55561   0.01267  Uiso   1.00
O32    O     0.95070   0.88260   0.56381   0.01267  Uiso   1.00
