data_POZHUI_ion_b
_audit_creation_date              2014-07-02
_audit_creation_method            'Materials Studio'
_symmetry_space_group_name_H-M    'IM-3M'
_symmetry_Int_Tables_number       229
_symmetry_cell_setting            cubic
loop_
_symmetry_equiv_pos_as_xyz
  x,y,z
  -x,-y,z
  -x,y,-z
  x,-y,-z
  z,x,y
  z,-x,-y
  -z,-x,y
  -z,x,-y
  y,z,x
  -y,z,-x
  y,-z,-x
  -y,-z,x
  y,x,-z
  -y,-x,-z
  y,-x,z
  -y,x,z
  x,z,-y
  -x,z,y
  -x,-z,-y
  x,-z,y
  z,y,-x
  z,-y,x
  -z,y,x
  -z,-y,-x
  -x,-y,-z
  x,y,-z
  x,-y,z
  -x,y,z
  -z,-x,-y
  -z,x,y
  z,x,-y
  z,-x,y
  -y,-z,-x
  y,-z,x
  -y,z,x
  y,z,-x
  -y,-x,z
  y,x,z
  -y,x,-z
  y,-x,-z
  -x,-z,y
  x,-z,-y
  x,z,y
  -x,z,-y
  -z,-y,x
  -z,y,-x
  z,-y,-x
  z,y,x
  x+1/2,y+1/2,z+1/2
  -x+1/2,-y+1/2,z+1/2
  -x+1/2,y+1/2,-z+1/2
  x+1/2,-y+1/2,-z+1/2
  z+1/2,x+1/2,y+1/2
  z+1/2,-x+1/2,-y+1/2
  -z+1/2,-x+1/2,y+1/2
  -z+1/2,x+1/2,-y+1/2
  y+1/2,z+1/2,x+1/2
  -y+1/2,z+1/2,-x+1/2
  y+1/2,-z+1/2,-x+1/2
  -y+1/2,-z+1/2,x+1/2
  y+1/2,x+1/2,-z+1/2
  -y+1/2,-x+1/2,-z+1/2
  y+1/2,-x+1/2,z+1/2
  -y+1/2,x+1/2,z+1/2
  x+1/2,z+1/2,-y+1/2
  -x+1/2,z+1/2,y+1/2
  -x+1/2,-z+1/2,-y+1/2
  x+1/2,-z+1/2,y+1/2
  z+1/2,y+1/2,-x+1/2
  z+1/2,-y+1/2,x+1/2
  -z+1/2,y+1/2,x+1/2
  -z+1/2,-y+1/2,-x+1/2
  -x+1/2,-y+1/2,-z+1/2
  x+1/2,y+1/2,-z+1/2
  x+1/2,-y+1/2,z+1/2
  -x+1/2,y+1/2,z+1/2
  -z+1/2,-x+1/2,-y+1/2
  -z+1/2,x+1/2,y+1/2
  z+1/2,x+1/2,-y+1/2
  z+1/2,-x+1/2,y+1/2
  -y+1/2,-z+1/2,-x+1/2
  y+1/2,-z+1/2,x+1/2
  -y+1/2,z+1/2,x+1/2
  y+1/2,z+1/2,-x+1/2
  -y+1/2,-x+1/2,z+1/2
  y+1/2,x+1/2,z+1/2
  -y+1/2,x+1/2,-z+1/2
  y+1/2,-x+1/2,-z+1/2
  -x+1/2,-z+1/2,y+1/2
  x+1/2,-z+1/2,-y+1/2
  x+1/2,z+1/2,y+1/2
  -x+1/2,z+1/2,-y+1/2
  -z+1/2,-y+1/2,x+1/2
  -z+1/2,y+1/2,-x+1/2
  z+1/2,-y+1/2,-x+1/2
  z+1/2,y+1/2,x+1/2
_cell_length_a                    30.9840
_cell_length_b                    30.9840
_cell_length_c                    30.9840
_cell_angle_alpha                 90.0000
_cell_angle_beta                  90.0000
_cell_angle_gamma                 90.0000
loop_
_atom_site_label
_atom_site_type_symbol
_atom_site_fract_x
_atom_site_fract_y
_atom_site_fract_z
_atom_site_U_iso_or_equiv
_atom_site_adp_type
_atom_site_occupancy
N1     N     0.19313  -0.37107   0.13906   0.00000  Uiso   1.00
C2     C     0.17629  -0.32854   0.14532   0.00000  Uiso   1.00
C3     C     0.19082  -0.29213   0.11803   0.00000  Uiso   1.00
O4     O     0.20754  -0.29973   0.08140   0.00000  Uiso   1.00
O5     O     0.18816  -0.25339   0.13080   0.00000  Uiso   1.00
N6     N     0.23149  -0.46303   0.10417   0.00000  Uiso   1.00
C7     C     0.19351  -0.47717   0.08643   0.00000  Uiso   1.00
O8     O     0.16993  -0.41040   0.05869   0.00000  Uiso   1.00
O9     O     0.12374  -0.46185   0.05981   0.00000  Uiso   1.00
C10    C     0.16164  -0.44927   0.06791   0.00000  Uiso   1.00
H11    H     0.15206   1.07648   0.18766   0.00000  Uiso   1.00
H12    H     0.31552   0.52518   0.40123   0.00000  Uiso   1.00
H13    H     0.25255   0.52518   0.34913   0.00000  Uiso   1.00
In14   In    0.25000  -0.39494   0.10506   0.00000  Uiso   1.00
C15    C     0.16999  -0.39883   0.16999   0.00000  Uiso   1.00
H16    H     0.19328  -0.41296   0.19328   0.00000  Uiso   1.00
O17    O     0.18097  -0.06473   0.18097   0.00000  Uiso   1.00
C18    C     0.25304  -0.50000   0.11507   0.00000  Uiso   1.00
H19    H     0.28484  -0.50000   0.12936   0.00000  Uiso   1.00
Mg20   Mg    0.17470   0.00000   0.17470   0.00000  Uiso   1.00
O21    O     0.16891   0.00000   0.23967   0.00000  Uiso   1.00
O22    O     0.16820   0.00000   0.10976   0.00000  Uiso   1.00
loop_
_geom_bond_atom_site_label_1
_geom_bond_atom_site_label_2
_geom_bond_distance
_geom_bond_site_symmetry_2
_ccdc_geom_bond_type
N1     C2      1.430   .     S
N1     In14    2.182   .     S
N1     C15     1.474   .     S
C2     C3      1.480   .     S
C2     C2      1.357   48    S
C3     O4      1.270   .     D
C3     O5      1.267   .     S
N6     C7      1.371   .     S
N6     In14    2.186   .     S
N6     C18     1.368   .     D
C7     C10     1.432   .     S
C7     C7      1.415   27_545 S
O8     C10     1.264   .     D
O9     C10     1.262   .     S
H11    O17     0.989   22_565 S
H12    O22     0.989   51    S
H13    O21     0.990   72    D
In14   N1      2.182   66_545 S
In14   N6      2.186   66_545 S
C15    N1      1.474   48    S
C15    H16     1.110   .     S
O17    Mg20    2.024   .     S
O17    H11     0.989   22_565 S
O17    H11     0.989   27_565 S
C18    N6      1.368   27_545 D
C18    H19     1.080   .     S
Mg20   O17     2.024   22    S
Mg20   O21     2.021   .     S
Mg20   O21     2.021   22    S
Mg20   O22     2.022   .     S
Mg20   O22     2.022   22    S
O21    H13     0.990   72    D
O21    H13     0.990   94_545 D
O22    H12     0.989   51_545 S
O22    H12     0.989   73    S
