data_image0
_cell_length_a       8.7198
_cell_length_b       18.4218
_cell_length_c       9.2725
_cell_angle_alpha    90
_cell_angle_beta     108.248
_cell_angle_gamma    90

_symmetry_space_group_name_H-M    "P 1"
_symmetry_int_tables_number       1

loop_
  _symmetry_equiv_pos_as_xyz
  'x, y, z'

loop_
  _atom_site_label
  _atom_site_occupancy
  _atom_site_fract_x
  _atom_site_fract_y
  _atom_site_fract_z
  _atom_site_thermal_displace_type
  _atom_site_B_iso_or_equiv
  _atom_site_type_symbol
  C1       1.0000 0.72790  0.04550  0.44930  Biso   1.000  C
  C2       1.0000 0.56440  0.08200  0.40850  Biso   1.000  C
  C3       1.0000 0.48590  0.08540  0.12080  Biso   1.000  C
  C4       1.0000 0.30490  0.06470  0.07400  Biso   1.000  C
  C5       1.0000 0.80720  0.18210  0.83010  Biso   1.000  C
  C6       1.0000 0.85010  0.12160  0.95050  Biso   1.000  C
  N1       1.0000 0.53270  0.12810  0.26680  Biso   1.000  N
  O1       1.0000 0.77010  0.01080  0.57590  Biso   1.000  O
  O2       1.0000 0.81620  0.05240  0.36420  Biso   1.000  O
  O3       1.0000 0.25560  0.03200  0.94790  Biso   1.000  O
  O4       1.0000 0.23230  0.07900  0.16330  Biso   1.000  O
  O5       1.0000 0.91950  0.06460  0.91880  Biso   1.000  O
  O6       1.0000 0.82150  0.13220  0.07760  Biso   1.000  O
  Pr1      1.0000 0.00890  0.97600  0.78210  Biso   1.000  Pr
  C7       1.0000 0.27210  0.54550  0.55070  Biso   1.000  C
  C8       1.0000 0.43560  0.58200  0.59150  Biso   1.000  C
  C9       1.0000 0.51410  0.58540  0.87920  Biso   1.000  C
  C10      1.0000 0.69510  0.56470  0.92600  Biso   1.000  C
  C11      1.0000 0.19280  0.68210  0.16990  Biso   1.000  C
  C12      1.0000 0.14990  0.62160  0.04950  Biso   1.000  C
  N2       1.0000 0.46730  0.62810  0.73320  Biso   1.000  N
  O7       1.0000 0.22990  0.51080  0.42410  Biso   1.000  O
  O8       1.0000 0.18380  0.55240  0.63580  Biso   1.000  O
  O9       1.0000 0.74440  0.53200  0.05210  Biso   1.000  O
  O10      1.0000 0.76770  0.57900  0.83670  Biso   1.000  O
  O11      1.0000 0.08050  0.56460  0.08120  Biso   1.000  O
  O12      1.0000 0.17850  0.63220  0.92240  Biso   1.000  O
  Pr2      1.0000 0.99110  0.47600  0.21790  Biso   1.000  Pr
  C13      1.0000 0.27210  0.95450  0.55070  Biso   1.000  C
  C14      1.0000 0.43560  0.91800  0.59150  Biso   1.000  C
  C15      1.0000 0.51410  0.91460  0.87920  Biso   1.000  C
  C16      1.0000 0.69510  0.93530  0.92600  Biso   1.000  C
  C17      1.0000 0.19280  0.81790  0.16990  Biso   1.000  C
  C18      1.0000 0.14990  0.87840  0.04950  Biso   1.000  C
  N3       1.0000 0.46730  0.87190  0.73320  Biso   1.000  N
  O13      1.0000 0.22990  0.98920  0.42410  Biso   1.000  O
  O14      1.0000 0.18380  0.94760  0.63580  Biso   1.000  O
  O15      1.0000 0.74440  0.96800  0.05210  Biso   1.000  O
  O16      1.0000 0.76770  0.92100  0.83670  Biso   1.000  O
  O17      1.0000 0.08050  0.93540  0.08120  Biso   1.000  O
  O18      1.0000 0.17850  0.86780  0.92240  Biso   1.000  O
  Pr3      1.0000 0.99110  0.02400  0.21790  Biso   1.000  Pr
  C19      1.0000 0.72790  0.45450  0.44930  Biso   1.000  C
  C20      1.0000 0.56440  0.41800  0.40850  Biso   1.000  C
  C21      1.0000 0.48590  0.41460  0.12080  Biso   1.000  C
  C22      1.0000 0.30490  0.43530  0.07400  Biso   1.000  C
  C23      1.0000 0.80720  0.31790  0.83010  Biso   1.000  C
  C24      1.0000 0.85010  0.37840  0.95050  Biso   1.000  C
  N4       1.0000 0.53270  0.37190  0.26680  Biso   1.000  N
  O19      1.0000 0.77010  0.48920  0.57590  Biso   1.000  O
  O20      1.0000 0.81620  0.44760  0.36420  Biso   1.000  O
  O21      1.0000 0.25560  0.46800  0.94790  Biso   1.000  O
  O22      1.0000 0.23230  0.42100  0.16330  Biso   1.000  O
  O23      1.0000 0.91950  0.43540  0.91880  Biso   1.000  O
  O24      1.0000 0.82150  0.36780  0.07760  Biso   1.000  O
  Pr4      1.0000 0.00890  0.52400  0.78210  Biso   1.000  Pr
  N5       1.0000 0.78040  0.25000  0.91560  Biso   1.000  N
  N6       1.0000 0.21960  0.75000  0.08440  Biso   1.000  N
