data_PUDSIR01_clean
_audit_creation_date              2014-07-02
_audit_creation_method            'Materials Studio'
_symmetry_space_group_name_H-M    'P1'
_symmetry_Int_Tables_number       1
_symmetry_cell_setting            triclinic
loop_
_symmetry_equiv_pos_as_xyz
  x,y,z
_cell_length_a                    14.9178
_cell_length_b                    19.0421
_cell_length_c                    30.1429
_cell_angle_alpha                 97.7116
_cell_angle_beta                  90.0000
_cell_angle_gamma                 113.0610
loop_
_atom_site_label
_atom_site_type_symbol
_atom_site_fract_x
_atom_site_fract_y
_atom_site_fract_z
_atom_site_U_iso_or_equiv
_atom_site_adp_type
_atom_site_occupancy
Eu1    Eu    0.36189   0.58224   0.64272   0.01267  Uiso   1.00
Eu2    Eu    0.44582   0.82817   0.65698   0.01267  Uiso   1.00
Eu3    Eu    0.22035   0.58224   0.14272   0.01267  Uiso   1.00
Eu4    Eu    0.38235   0.82817   0.15698   0.01267  Uiso   1.00
H1     H     0.40250   0.81140   0.81080   0.01267  Uiso   1.00
H2     H     0.42650   0.60760   0.78040   0.01267  Uiso   1.00
H3     H     0.42030   0.59200   0.85510   0.01267  Uiso   1.00
H4     H     0.39390   0.58640   0.93650   0.01267  Uiso   1.00
H5     H     0.33960   0.80040   0.00500   0.01267  Uiso   1.00
H6     H     0.35760   0.59700   0.01090   0.01267  Uiso   1.00
H7     H     0.76200   0.84960   0.65470   0.01267  Uiso   1.00
H8     H     0.65370   0.61960   0.64800   0.01267  Uiso   1.00
H9     H     0.91710   0.85640   0.65570   0.01267  Uiso   1.00
H10    H     0.07560   0.83800   0.65110   0.01267  Uiso   1.00
H11    H     0.20690   0.80120   0.64790   0.01267  Uiso   1.00
H12    H     0.02740   0.57900   0.64160   0.01267  Uiso   1.00
H13    H     0.07840   0.33620   0.60130   0.01267  Uiso   1.00
H14    H     0.12240   0.40400   0.73410   0.01267  Uiso   1.00
H15    H     0.98320   0.29980   0.74660   0.01267  Uiso   1.00
H16    H     0.83130   0.17920   0.74710   0.01267  Uiso   1.00
H17    H     0.72010   0.05160   0.60230   0.01267  Uiso   1.00
H18    H     0.69320   0.06680   0.73590   0.01267  Uiso   1.00
H19    H     0.40890   0.81140   0.31080   0.01267  Uiso   1.00
H20    H     0.18110   0.60760   0.28040   0.01267  Uiso   1.00
H21    H     0.17170   0.59200   0.35510   0.01267  Uiso   1.00
H22    H     0.19250   0.58640   0.43650   0.01267  Uiso   1.00
H23    H     0.46080   0.80040   0.50500   0.01267  Uiso   1.00
H24    H     0.23940   0.59700   0.51090   0.01267  Uiso   1.00
H25    H     0.08760   0.84960   0.15470   0.01267  Uiso   1.00
H26    H     0.96590   0.61960   0.14800   0.01267  Uiso   1.00
H27    H     0.93930   0.85640   0.15570   0.01267  Uiso   1.00
H28    H     0.76240   0.83800   0.15110   0.01267  Uiso   1.00
H29    H     0.59430   0.80120   0.14790   0.01267  Uiso   1.00
H30    H     0.55160   0.57900   0.14160   0.01267  Uiso   1.00
H31    H     0.25780   0.33620   0.10130   0.01267  Uiso   1.00
H32    H     0.28160   0.40400   0.23410   0.01267  Uiso   1.00
H33    H     0.31660   0.29980   0.24660   0.01267  Uiso   1.00
H34    H     0.34790   0.17920   0.24710   0.01267  Uiso   1.00
H35    H     0.33150   0.05160   0.10230   0.01267  Uiso   1.00
H36    H     0.37360   0.06680   0.23590   0.01267  Uiso   1.00
C1     C     0.41911   0.71822   0.73880   0.01267  Uiso   1.00
C2     C     0.41502   0.71024   0.78787   0.01267  Uiso   1.00
C3     C     0.40450   0.76680   0.81927   0.01267  Uiso   1.00
C4     C     0.41976   0.64512   0.80163   0.01267  Uiso   1.00
C5     C     0.39723   0.75426   0.86312   0.01267  Uiso   1.00
C6     C     0.41460   0.63500   0.84622   0.01267  Uiso   1.00
C7     C     0.40117   0.68894   0.87725   0.01267  Uiso   1.00
C8     C     0.38554   0.68708   0.92558   0.01267  Uiso   1.00
C9     C     0.36980   0.74980   0.94684   0.01267  Uiso   1.00
C10    C     0.38204   0.62868   0.94989   0.01267  Uiso   1.00
C11    C     0.34887   0.75714   0.99134   0.01267  Uiso   1.00
C12    C     0.36029   0.63538   0.99432   0.01267  Uiso   1.00
C13    C     0.34218   0.69776   0.01496   0.01267  Uiso   1.00
C14    C     0.31215   0.69850   0.06296   0.01267  Uiso   1.00
C15    C     0.59118   0.73456   0.65098   0.01267  Uiso   1.00
C16    C     0.69245   0.73510   0.65161   0.01267  Uiso   1.00
C17    C     0.77246   0.80432   0.65340   0.01267  Uiso   1.00
C18    C     0.70633   0.66686   0.64948   0.01267  Uiso   1.00
C19    C     0.86478   0.80896   0.65360   0.01267  Uiso   1.00
C20    C     0.80015   0.67170   0.64959   0.01267  Uiso   1.00
C21    C     0.88000   0.74000   0.65042   0.01267  Uiso   1.00
C22    C     0.97432   0.73064   0.64857   0.01267  Uiso   1.00
C23    C     0.06567   0.78634   0.64940   0.01267  Uiso   1.00
C24    C     0.96086   0.65372   0.64617   0.01267  Uiso   1.00
C25    C     0.14397   0.76374   0.64770   0.01267  Uiso   1.00
C26    C     0.03796   0.63092   0.64404   0.01267  Uiso   1.00
C27    C     0.13107   0.68694   0.64559   0.01267  Uiso   1.00
C28    C     0.21894   0.66708   0.64662   0.01267  Uiso   1.00
C29    C     0.20621   0.44722   0.65951   0.01267  Uiso   1.00
C30    C     0.11500   0.37980   0.66678   0.01267  Uiso   1.00
C31    C     0.06017   0.32914   0.63036   0.01267  Uiso   1.00
C32    C     0.08544   0.36888   0.70986   0.01267  Uiso   1.00
C33    C     0.97680   0.26720   0.63864   0.01267  Uiso   1.00
C34    C     0.00191   0.30662   0.71753   0.01267  Uiso   1.00
C35    C     0.94729   0.25498   0.68157   0.01267  Uiso   1.00
C36    C     0.85819   0.18378   0.68158   0.01267  Uiso   1.00
C37    C     0.82320   0.14400   0.63915   0.01267  Uiso   1.00
C38    C     0.80891   0.15382   0.71815   0.01267  Uiso   1.00
C39    C     0.74200   0.07660   0.63130   0.01267  Uiso   1.00
C40    C     0.72702   0.08644   0.71137   0.01267  Uiso   1.00
C41    C     0.69356   0.04692   0.66819   0.01267  Uiso   1.00
C42    C     0.60478   0.97256   0.66191   0.01267  Uiso   1.00
C43    C     0.29911   0.71822   0.23880   0.01267  Uiso   1.00
C44    C     0.29522   0.71024   0.28787   0.01267  Uiso   1.00
C45    C     0.36230   0.76680   0.31927   0.01267  Uiso   1.00
C46    C     0.22536   0.64512   0.30163   0.01267  Uiso   1.00
C47    C     0.35703   0.75426   0.36312   0.01267  Uiso   1.00
C48    C     0.22040   0.63500   0.34622   0.01267  Uiso   1.00
C49    C     0.28777   0.68894   0.37725   0.01267  Uiso   1.00
C50    C     0.30154   0.68708   0.42558   0.01267  Uiso   1.00
C51    C     0.38000   0.74980   0.44684   0.01267  Uiso   1.00
C52    C     0.24664   0.62868   0.44989   0.01267  Uiso   1.00
C53    C     0.40827   0.75714   0.49134   0.01267  Uiso   1.00
C54    C     0.27509   0.63538   0.49432   0.01267  Uiso   1.00
C55    C     0.35558   0.69776   0.51496   0.01267  Uiso   1.00
C56    C     0.38635   0.69850   0.56296   0.01267  Uiso   1.00
C57    C     0.14338   0.73456   0.15098   0.01267  Uiso   1.00
C58    C     0.04265   0.73510   0.15161   0.01267  Uiso   1.00
C59    C     0.03186   0.80432   0.15340   0.01267  Uiso   1.00
C60    C     0.96053   0.66686   0.14948   0.01267  Uiso   1.00
C61    C     0.94418   0.80896   0.15360   0.01267  Uiso   1.00
C62    C     0.87155   0.67170   0.14959   0.01267  Uiso   1.00
C63    C     0.86000   0.74000   0.15042   0.01267  Uiso   1.00
C64    C     0.75632   0.73064   0.14857   0.01267  Uiso   1.00
C65    C     0.72067   0.78634   0.14940   0.01267  Uiso   1.00
C66    C     0.69286   0.65372   0.14617   0.01267  Uiso   1.00
C67    C     0.61977   0.76374   0.14770   0.01267  Uiso   1.00
C68    C     0.59296   0.63092   0.14404   0.01267  Uiso   1.00
C69    C     0.55587   0.68694   0.14559   0.01267  Uiso   1.00
C70    C     0.44814   0.66708   0.14662   0.01267  Uiso   1.00
C71    C     0.24101   0.44722   0.15951   0.01267  Uiso   1.00
C72    C     0.26480   0.37980   0.16678   0.01267  Uiso   1.00
C73    C     0.26897   0.32914   0.13036   0.01267  Uiso   1.00
C74    C     0.28344   0.36888   0.20986   0.01267  Uiso   1.00
C75    C     0.29040   0.26720   0.13864   0.01267  Uiso   1.00
C76    C     0.30471   0.30662   0.21753   0.01267  Uiso   1.00
C77    C     0.30769   0.25498   0.18157   0.01267  Uiso   1.00
C78    C     0.32559   0.18378   0.18158   0.01267  Uiso   1.00
C79    C     0.32080   0.14400   0.13915   0.01267  Uiso   1.00
C80    C     0.34491   0.15382   0.21815   0.01267  Uiso   1.00
C81    C     0.33460   0.07660   0.13130   0.01267  Uiso   1.00
C82    C     0.35942   0.08644   0.21137   0.01267  Uiso   1.00
C83    C     0.35336   0.04692   0.16819   0.01267  Uiso   1.00
C84    C     0.36778   0.97256   0.16191   0.01267  Uiso   1.00
S1     S     0.37365   0.81290   0.90846   0.01267  Uiso   1.00
S2     S     0.83744   0.59418   0.64874   0.01267  Uiso   1.00
S3     S     0.89708   0.19336   0.59795   0.01267  Uiso   1.00
S4     S     0.43925   0.81290   0.40846   0.01267  Uiso   1.00
S5     S     0.75674   0.59418   0.14874   0.01267  Uiso   1.00
S6     S     0.29628   0.19336   0.09795   0.01267  Uiso   1.00
O1     O     0.43858   0.78376   0.72834   0.01267  Uiso   1.00
O2     O     0.40029   0.65778   0.71240   0.01267  Uiso   1.00
O3     O     0.45434   0.88648   0.91905   0.01267  Uiso   1.00
O4     O     0.27911   0.81382   0.90183   0.01267  Uiso   1.00
O5     O     0.32127   0.76254   0.08409   0.01267  Uiso   1.00
O6     O     0.28282   0.63584   0.07732   0.01267  Uiso   1.00
O7     O     0.58286   0.79714   0.66208   0.01267  Uiso   1.00
O8     O     0.52275   0.67118   0.63923   0.01267  Uiso   1.00
O9     O     0.82131   0.56382   0.69113   0.01267  Uiso   1.00
O10    O     0.80058   0.54076   0.60893   0.01267  Uiso   1.00
O11    O     0.30159   0.72094   0.65009   0.01267  Uiso   1.00
O12    O     0.20556   0.59760   0.64373   0.01267  Uiso   1.00
O13    O     0.23261   0.45442   0.62039   0.01267  Uiso   1.00
O14    O     0.25111   0.49582   0.69262   0.01267  Uiso   1.00
O15    O     0.94600   0.14880   0.57555   0.01267  Uiso   1.00
O16    O     0.84539   0.22218   0.57025   0.01267  Uiso   1.00
O17    O     0.58032   0.93344   0.62380   0.01267  Uiso   1.00
O18    O     0.55842   0.95124   0.69570   0.01267  Uiso   1.00
O19    O     0.34518   0.78376   0.22834   0.01267  Uiso   1.00
O20    O     0.25749   0.65778   0.21240   0.01267  Uiso   1.00
O21    O     0.43214   0.88648   0.41905   0.01267  Uiso   1.00
O22    O     0.53471   0.81382   0.40183   0.01267  Uiso   1.00
O23    O     0.44127   0.76254   0.58409   0.01267  Uiso   1.00
O24    O     0.35302   0.63584   0.57732   0.01267  Uiso   1.00
O25    O     0.21428   0.79714   0.16208   0.01267  Uiso   1.00
O26    O     0.14843   0.67118   0.13923   0.01267  Uiso   1.00
O27    O     0.74251   0.56382   0.19113   0.01267  Uiso   1.00
O28    O     0.74018   0.54076   0.10893   0.01267  Uiso   1.00
O29    O     0.41935   0.72094   0.15009   0.01267  Uiso   1.00
O30    O     0.39204   0.59760   0.14373   0.01267  Uiso   1.00
O31    O     0.22181   0.45442   0.12039   0.01267  Uiso   1.00
O32    O     0.24471   0.49582   0.19262   0.01267  Uiso   1.00
O33    O     0.20280   0.14880   0.07555   0.01267  Uiso   1.00
O34    O     0.37679   0.22218   0.07025   0.01267  Uiso   1.00
O35    O     0.35312   0.93344   0.12380   0.01267  Uiso   1.00
O36    O     0.39282   0.95124   0.19570   0.01267  Uiso   1.00
Eu5    Eu    0.77965   0.41776   0.85728   0.01267  Uiso   1.00
Eu6    Eu    0.61765   0.17183   0.84302   0.01267  Uiso   1.00
Eu7    Eu    0.63811   0.41776   0.35728   0.01267  Uiso   1.00
Eu8    Eu    0.55418   0.17183   0.34302   0.01267  Uiso   1.00
H37    H     0.59110   0.18860   0.68920   0.01267  Uiso   1.00
H38    H     0.81890   0.39240   0.71960   0.01267  Uiso   1.00
H39    H     0.82830   0.40800   0.64490   0.01267  Uiso   1.00
H40    H     0.80750   0.41360   0.56350   0.01267  Uiso   1.00
H41    H     0.53920   0.19960   0.49500   0.01267  Uiso   1.00
H42    H     0.76060   0.40300   0.48910   0.01267  Uiso   1.00
H43    H     0.91240   0.15040   0.84530   0.01267  Uiso   1.00
H44    H     0.03410   0.38040   0.85200   0.01267  Uiso   1.00
H45    H     0.06070   0.14360   0.84430   0.01267  Uiso   1.00
H46    H     0.23760   0.16200   0.84890   0.01267  Uiso   1.00
H47    H     0.40570   0.19880   0.85210   0.01267  Uiso   1.00
H48    H     0.44840   0.42100   0.85840   0.01267  Uiso   1.00
H49    H     0.74220   0.66380   0.89870   0.01267  Uiso   1.00
H50    H     0.71840   0.59600   0.76590   0.01267  Uiso   1.00
H51    H     0.68340   0.70020   0.75340   0.01267  Uiso   1.00
H52    H     0.65210   0.82080   0.75290   0.01267  Uiso   1.00
H53    H     0.66850   0.94840   0.89770   0.01267  Uiso   1.00
H54    H     0.62640   0.93320   0.76410   0.01267  Uiso   1.00
H55    H     0.59750   0.18860   0.18920   0.01267  Uiso   1.00
H56    H     0.57350   0.39240   0.21960   0.01267  Uiso   1.00
H57    H     0.57970   0.40800   0.14490   0.01267  Uiso   1.00
H58    H     0.60610   0.41360   0.06350   0.01267  Uiso   1.00
H59    H     0.66040   0.19960   0.99500   0.01267  Uiso   1.00
H60    H     0.64240   0.40300   0.98910   0.01267  Uiso   1.00
H61    H     0.23800   0.15040   0.34530   0.01267  Uiso   1.00
H62    H     0.34630   0.38040   0.35200   0.01267  Uiso   1.00
H63    H     0.08290   0.14360   0.34430   0.01267  Uiso   1.00
H64    H     0.92440   0.16200   0.34890   0.01267  Uiso   1.00
H65    H     0.79310   0.19880   0.35210   0.01267  Uiso   1.00
H66    H     0.97260   0.42100   0.35840   0.01267  Uiso   1.00
H67    H     0.92160   0.66380   0.39870   0.01267  Uiso   1.00
H68    H     0.87760   0.59600   0.26590   0.01267  Uiso   1.00
H69    H     0.01680   0.70020   0.25340   0.01267  Uiso   1.00
H70    H     0.16870   0.82080   0.25290   0.01267  Uiso   1.00
H71    H     0.27990   0.94840   0.39770   0.01267  Uiso   1.00
H72    H     0.30680   0.93320   0.26410   0.01267  Uiso   1.00
C85    C     0.70089   0.28178   0.76120   0.01267  Uiso   1.00
C86    C     0.70478   0.28976   0.71213   0.01267  Uiso   1.00
C87    C     0.63770   0.23320   0.68073   0.01267  Uiso   1.00
C88    C     0.77464   0.35488   0.69837   0.01267  Uiso   1.00
C89    C     0.64297   0.24574   0.63688   0.01267  Uiso   1.00
C90    C     0.77960   0.36500   0.65378   0.01267  Uiso   1.00
C91    C     0.71223   0.31106   0.62275   0.01267  Uiso   1.00
C92    C     0.69846   0.31292   0.57442   0.01267  Uiso   1.00
C93    C     0.62000   0.25020   0.55316   0.01267  Uiso   1.00
C94    C     0.75336   0.37132   0.55011   0.01267  Uiso   1.00
C95    C     0.59173   0.24286   0.50866   0.01267  Uiso   1.00
C96    C     0.72491   0.36462   0.50568   0.01267  Uiso   1.00
C97    C     0.64442   0.30224   0.48504   0.01267  Uiso   1.00
C98    C     0.61365   0.30150   0.43704   0.01267  Uiso   1.00
C99    C     0.85662   0.26544   0.84902   0.01267  Uiso   1.00
C100   C     0.95735   0.26490   0.84839   0.01267  Uiso   1.00
C101   C     0.96814   0.19568   0.84660   0.01267  Uiso   1.00
C102   C     0.03947   0.33314   0.85052   0.01267  Uiso   1.00
C103   C     0.05582   0.19104   0.84640   0.01267  Uiso   1.00
C104   C     0.12845   0.32830   0.85041   0.01267  Uiso   1.00
C105   C     0.14000   0.26000   0.84958   0.01267  Uiso   1.00
C106   C     0.24368   0.26936   0.85143   0.01267  Uiso   1.00
C107   C     0.27933   0.21366   0.85060   0.01267  Uiso   1.00
C108   C     0.30714   0.34628   0.85383   0.01267  Uiso   1.00
C109   C     0.38023   0.23626   0.85230   0.01267  Uiso   1.00
C110   C     0.40704   0.36908   0.85596   0.01267  Uiso   1.00
C111   C     0.44413   0.31306   0.85441   0.01267  Uiso   1.00
C112   C     0.55186   0.33292   0.85338   0.01267  Uiso   1.00
C113   C     0.75899   0.55278   0.84049   0.01267  Uiso   1.00
C114   C     0.73520   0.62020   0.83322   0.01267  Uiso   1.00
C115   C     0.73103   0.67086   0.86964   0.01267  Uiso   1.00
C116   C     0.71656   0.63112   0.79014   0.01267  Uiso   1.00
C117   C     0.70960   0.73280   0.86136   0.01267  Uiso   1.00
C118   C     0.69529   0.69338   0.78247   0.01267  Uiso   1.00
C119   C     0.69231   0.74502   0.81843   0.01267  Uiso   1.00
C120   C     0.67441   0.81622   0.81842   0.01267  Uiso   1.00
C121   C     0.67920   0.85600   0.86085   0.01267  Uiso   1.00
C122   C     0.65509   0.84618   0.78185   0.01267  Uiso   1.00
C123   C     0.66540   0.92340   0.86870   0.01267  Uiso   1.00
C124   C     0.64058   0.91356   0.78863   0.01267  Uiso   1.00
C125   C     0.64664   0.95308   0.83181   0.01267  Uiso   1.00
C126   C     0.63222   0.02744   0.83809   0.01267  Uiso   1.00
C127   C     0.58089   0.28178   0.26120   0.01267  Uiso   1.00
C128   C     0.58498   0.28976   0.21213   0.01267  Uiso   1.00
C129   C     0.59550   0.23320   0.18073   0.01267  Uiso   1.00
C130   C     0.58024   0.35488   0.19837   0.01267  Uiso   1.00
C131   C     0.60277   0.24574   0.13688   0.01267  Uiso   1.00
C132   C     0.58540   0.36500   0.15378   0.01267  Uiso   1.00
C133   C     0.59883   0.31106   0.12275   0.01267  Uiso   1.00
C134   C     0.61446   0.31292   0.07442   0.01267  Uiso   1.00
C135   C     0.63020   0.25020   0.05316   0.01267  Uiso   1.00
C136   C     0.61796   0.37132   0.05011   0.01267  Uiso   1.00
C137   C     0.65113   0.24286   0.00866   0.01267  Uiso   1.00
C138   C     0.63971   0.36462   0.00568   0.01267  Uiso   1.00
C139   C     0.65782   0.30224   0.98504   0.01267  Uiso   1.00
C140   C     0.68785   0.30150   0.93704   0.01267  Uiso   1.00
C141   C     0.40882   0.26544   0.34902   0.01267  Uiso   1.00
C142   C     0.30755   0.26490   0.34839   0.01267  Uiso   1.00
C143   C     0.22754   0.19568   0.34660   0.01267  Uiso   1.00
C144   C     0.29367   0.33314   0.35052   0.01267  Uiso   1.00
C145   C     0.13522   0.19104   0.34640   0.01267  Uiso   1.00
C146   C     0.19985   0.32830   0.35041   0.01267  Uiso   1.00
C147   C     0.12000   0.26000   0.34958   0.01267  Uiso   1.00
C148   C     0.02568   0.26936   0.35143   0.01267  Uiso   1.00
C149   C     0.93433   0.21366   0.35060   0.01267  Uiso   1.00
C150   C     0.03914   0.34628   0.35383   0.01267  Uiso   1.00
C151   C     0.85603   0.23626   0.35230   0.01267  Uiso   1.00
C152   C     0.96204   0.36908   0.35596   0.01267  Uiso   1.00
C153   C     0.86893   0.31306   0.35441   0.01267  Uiso   1.00
C154   C     0.78106   0.33292   0.35338   0.01267  Uiso   1.00
C155   C     0.79379   0.55278   0.34049   0.01267  Uiso   1.00
C156   C     0.88500   0.62020   0.33322   0.01267  Uiso   1.00
C157   C     0.93983   0.67086   0.36964   0.01267  Uiso   1.00
C158   C     0.91456   0.63112   0.29014   0.01267  Uiso   1.00
C159   C     0.02320   0.73280   0.36136   0.01267  Uiso   1.00
C160   C     0.99809   0.69338   0.28247   0.01267  Uiso   1.00
C161   C     0.05271   0.74502   0.31843   0.01267  Uiso   1.00
C162   C     0.14181   0.81622   0.31842   0.01267  Uiso   1.00
C163   C     0.17680   0.85600   0.36085   0.01267  Uiso   1.00
C164   C     0.19109   0.84618   0.28185   0.01267  Uiso   1.00
C165   C     0.25800   0.92340   0.36870   0.01267  Uiso   1.00
C166   C     0.27298   0.91356   0.28863   0.01267  Uiso   1.00
C167   C     0.30644   0.95308   0.33181   0.01267  Uiso   1.00
C168   C     0.39522   0.02744   0.33809   0.01267  Uiso   1.00
S7     S     0.56075   0.18710   0.59154   0.01267  Uiso   1.00
S8     S     0.24326   0.40582   0.85126   0.01267  Uiso   1.00
S9     S     0.70372   0.80664   0.90205   0.01267  Uiso   1.00
S10    S     0.62635   0.18710   0.09154   0.01267  Uiso   1.00
S11    S     0.16256   0.40582   0.35126   0.01267  Uiso   1.00
S12    S     0.10292   0.80664   0.40205   0.01267  Uiso   1.00
O37    O     0.65482   0.21624   0.77166   0.01267  Uiso   1.00
O38    O     0.74251   0.34222   0.78760   0.01267  Uiso   1.00
O39    O     0.56786   0.11352   0.58095   0.01267  Uiso   1.00
O40    O     0.46529   0.18618   0.59817   0.01267  Uiso   1.00
O41    O     0.55873   0.23746   0.41591   0.01267  Uiso   1.00
O42    O     0.64698   0.36416   0.42268   0.01267  Uiso   1.00
O43    O     0.78572   0.20286   0.83792   0.01267  Uiso   1.00
O44    O     0.85157   0.32882   0.86077   0.01267  Uiso   1.00
O45    O     0.25749   0.43618   0.80887   0.01267  Uiso   1.00
O46    O     0.25982   0.45924   0.89107   0.01267  Uiso   1.00
O47    O     0.58065   0.27906   0.84991   0.01267  Uiso   1.00
O48    O     0.60796   0.40240   0.85627   0.01267  Uiso   1.00
O49    O     0.77819   0.54558   0.87961   0.01267  Uiso   1.00
O50    O     0.75529   0.50418   0.80738   0.01267  Uiso   1.00
O51    O     0.79720   0.85120   0.92445   0.01267  Uiso   1.00
O52    O     0.62321   0.77782   0.92975   0.01267  Uiso   1.00
O53    O     0.64688   0.06656   0.87620   0.01267  Uiso   1.00
O54    O     0.60718   0.04876   0.80430   0.01267  Uiso   1.00
O55    O     0.56142   0.21624   0.27166   0.01267  Uiso   1.00
O56    O     0.59971   0.34222   0.28760   0.01267  Uiso   1.00
O57    O     0.54566   0.11352   0.08095   0.01267  Uiso   1.00
O58    O     0.72089   0.18618   0.09817   0.01267  Uiso   1.00
O59    O     0.67873   0.23746   0.91591   0.01267  Uiso   1.00
O60    O     0.71718   0.36416   0.92268   0.01267  Uiso   1.00
O61    O     0.41714   0.20286   0.33792   0.01267  Uiso   1.00
O62    O     0.47725   0.32882   0.36077   0.01267  Uiso   1.00
O63    O     0.17869   0.43618   0.30887   0.01267  Uiso   1.00
O64    O     0.19942   0.45924   0.39107   0.01267  Uiso   1.00
O65    O     0.69841   0.27906   0.34991   0.01267  Uiso   1.00
O66    O     0.79444   0.40240   0.35627   0.01267  Uiso   1.00
O67    O     0.76739   0.54558   0.37961   0.01267  Uiso   1.00
O68    O     0.74889   0.50418   0.30738   0.01267  Uiso   1.00
O69    O     0.05400   0.85120   0.42445   0.01267  Uiso   1.00
O70    O     0.15461   0.77782   0.42975   0.01267  Uiso   1.00
O71    O     0.41968   0.06656   0.37620   0.01267  Uiso   1.00
O72    O     0.44158   0.04876   0.30430   0.01267  Uiso   1.00
