data_image0
_cell_length_a       17.897
_cell_length_b       14.731
_cell_length_c       17.381
_cell_angle_alpha    90
_cell_angle_beta     116.61
_cell_angle_gamma    90

_symmetry_space_group_name_H-M    "P 1"
_symmetry_int_tables_number       1

loop_
  _symmetry_equiv_pos_as_xyz
  'x, y, z'

loop_
  _atom_site_label
  _atom_site_occupancy
  _atom_site_fract_x
  _atom_site_fract_y
  _atom_site_fract_z
  _atom_site_thermal_displace_type
  _atom_site_B_iso_or_equiv
  _atom_site_type_symbol
  O1       1.0000 0.24320  0.06100  0.10140  Biso   1.000  O
  O2       1.0000 0.36230  0.02740  0.21620  Biso   1.000  O
  C1       1.0000 0.31910  0.07310  0.15400  Biso   1.000  C
  C2       1.0000 0.35330  0.15770  0.12870  Biso   1.000  C
  N1       1.0000 0.43830  0.19080  0.19240  Biso   1.000  N
  C3       1.0000 0.44030  0.21390  0.27670  Biso   1.000  C
  C4       1.0000 0.52740  0.24580  0.33930  Biso   1.000  C
  C5       1.0000 0.45590  0.27610  0.15610  Biso   1.000  C
  C6       1.0000 0.53570  0.32060  0.21900  Biso   1.000  C
  C7       1.0000 0.50630  0.12470  0.20660  Biso   1.000  C
  C8       1.0000 0.59140  0.16720  0.26070  Biso   1.000  C
  N2       1.0000 0.58120  0.25870  0.29390  Biso   1.000  N
  C9       1.0000 0.66290  0.30010  0.35730  Biso   1.000  C
  C10      1.0000 0.72650  0.32340  0.32380  Biso   1.000  C
  O3       1.0000 0.78650  0.36720  0.37770  Biso   1.000  O
  O4       1.0000 0.71610  0.29820  0.25150  Biso   1.000  O
  O5       1.0000 0.07240  0.13720  0.05320  Biso   1.000  O
  O6       1.0000 0.96190  0.13220  0.92370  Biso   1.000  O
  C11      1.0000 0.02250  0.17060  0.98290  Biso   1.000  C
  C12      1.0000 0.03880  0.27010  0.97310  Biso   1.000  C
  N3       1.0000 0.99550  0.30850  0.88290  Biso   1.000  N
  C13      1.0000 0.03120  0.40220  0.88630  Biso   1.000  C
  C14      1.0000 0.97840  0.45130  0.80180  Biso   1.000  C
  C15      1.0000 0.90310  0.31620  0.85010  Biso   1.000  C
  C16      1.0000 0.86340  0.34350  0.75510  Biso   1.000  C
  C17      1.0000 0.01250  0.25280  0.81940  Biso   1.000  C
  C18      1.0000 0.98880  0.30660  0.73740  Biso   1.000  C
  N4       1.0000 0.92980  0.38270  0.73340  Biso   1.000  N
  C19      1.0000 0.88780  0.42400  0.64470  Biso   1.000  C
  C20      1.0000 0.94600  0.46020  0.60960  Biso   1.000  C
  O7       1.0000 0.90880  0.47570  0.52990  Biso   1.000  O
  O8       1.0000 0.02070  0.47290  0.65780  Biso   1.000  O
  Gd1      1.0000 0.12937  0.99388  0.11575  Biso   1.000  Gd
  H1       1.0000 0.35770  0.14160  0.07730  Biso   1.000  H
  H2       1.0000 0.31420  0.20660  0.11640  Biso   1.000  H
  H3       1.0000 0.40370  0.26430  0.26950  Biso   1.000  H
  H4       1.0000 0.42200  0.16230  0.29740  Biso   1.000  H
  H5       1.0000 0.52600  0.29940  0.37000  Biso   1.000  H
  H6       1.0000 0.55180  0.19680  0.37930  Biso   1.000  H
  H7       1.0000 0.46560  0.25680  0.10860  Biso   1.000  H
  H8       1.0000 0.40920  0.31700  0.13590  Biso   1.000  H
  H9       1.0000 0.51980  0.37420  0.23930  Biso   1.000  H
  H10      1.0000 0.57180  0.33700  0.19370  Biso   1.000  H
  H11      1.0000 0.50030  0.07370  0.23780  Biso   1.000  H
  H12      1.0000 0.50230  0.10440  0.15240  Biso   1.000  H
  H13      1.0000 0.61880  0.17530  0.22460  Biso   1.000  H
  H14      1.0000 0.62490  0.12890  0.30840  Biso   1.000  H
  H15      1.0000 0.64970  0.35480  0.37870  Biso   1.000  H
  H16      1.0000 0.68950  0.25790  0.40380  Biso   1.000  H
  H17      1.0000 0.09780  0.27770  0.99320  Biso   1.000  H
  H18      1.0000 0.02090  0.30470  0.00860  Biso   1.000  H
  H19      1.0000 0.08810  0.39810  0.89550  Biso   1.000  H
  H20      1.0000 0.02890  0.43600  0.93250  Biso   1.000  H
  H21      1.0000 0.01470  0.48410  0.78440  Biso   1.000  H
  H22      1.0000 0.94080  0.49300  0.80910  Biso   1.000  H
  H23      1.0000 0.88060  0.25880  0.85560  Biso   1.000  H
  H24      1.0000 0.89110  0.36110  0.88310  Biso   1.000  H
  H25      1.0000 0.82130  0.38850  0.74510  Biso   1.000  H
  H26      1.0000 0.83860  0.29160  0.71940  Biso   1.000  H
  H27      1.0000 0.07070  0.23720  0.84450  Biso   1.000  H
  H28      1.0000 0.97960  0.19840  0.80590  Biso   1.000  H
  H29      1.0000 0.03850  0.33200  0.73810  Biso   1.000  H
  H30      1.0000 0.96220  0.26740  0.68850  Biso   1.000  H
  H31      1.0000 0.85300  0.37810  0.60610  Biso   1.000  H
  H32      1.0000 0.85370  0.47340  0.64650  Biso   1.000  H
  O9       1.0000 0.75680  0.56100  0.39860  Biso   1.000  O
  O10      1.0000 0.63770  0.52740  0.28380  Biso   1.000  O
  C21      1.0000 0.68090  0.57310  0.34600  Biso   1.000  C
  C22      1.0000 0.64670  0.65770  0.37130  Biso   1.000  C
  N5       1.0000 0.56170  0.69080  0.30760  Biso   1.000  N
  C23      1.0000 0.55970  0.71390  0.22330  Biso   1.000  C
  C24      1.0000 0.47260  0.74580  0.16070  Biso   1.000  C
  C25      1.0000 0.54410  0.77610  0.34390  Biso   1.000  C
  C26      1.0000 0.46430  0.82060  0.28100  Biso   1.000  C
  C27      1.0000 0.49370  0.62470  0.29340  Biso   1.000  C
  C28      1.0000 0.40860  0.66720  0.23930  Biso   1.000  C
  N6       1.0000 0.41880  0.75870  0.20610  Biso   1.000  N
  C29      1.0000 0.33710  0.80010  0.14270  Biso   1.000  C
  C30      1.0000 0.27350  0.82340  0.17620  Biso   1.000  C
  O11      1.0000 0.21350  0.86720  0.12230  Biso   1.000  O
  O12      1.0000 0.28390  0.79820  0.24850  Biso   1.000  O
  O13      1.0000 0.92760  0.63720  0.44680  Biso   1.000  O
  O14      1.0000 0.03810  0.63220  0.57630  Biso   1.000  O
  C31      1.0000 0.97750  0.67060  0.51710  Biso   1.000  C
  C32      1.0000 0.96120  0.77010  0.52690  Biso   1.000  C
  N7       1.0000 0.00450  0.80850  0.61710  Biso   1.000  N
  C33      1.0000 0.96880  0.90220  0.61370  Biso   1.000  C
  C34      1.0000 0.02160  0.95130  0.69820  Biso   1.000  C
  C35      1.0000 0.09690  0.81620  0.64990  Biso   1.000  C
  C36      1.0000 0.13660  0.84350  0.74490  Biso   1.000  C
  C37      1.0000 0.98750  0.75280  0.68060  Biso   1.000  C
  C38      1.0000 0.01120  0.80660  0.76260  Biso   1.000  C
  N8       1.0000 0.07020  0.88270  0.76660  Biso   1.000  N
  C39      1.0000 0.11220  0.92400  0.85530  Biso   1.000  C
  C40      1.0000 0.05400  0.96020  0.89040  Biso   1.000  C
  O15      1.0000 0.09120  0.97570  0.97010  Biso   1.000  O
  O16      1.0000 0.97930  0.97290  0.84220  Biso   1.000  O
  Gd2      1.0000 0.87063  0.49388  0.38425  Biso   1.000  Gd
  H33      1.0000 0.64230  0.64160  0.42270  Biso   1.000  H
  H34      1.0000 0.68580  0.70660  0.38360  Biso   1.000  H
  H35      1.0000 0.59630  0.76430  0.23050  Biso   1.000  H
  H36      1.0000 0.57800  0.66230  0.20260  Biso   1.000  H
  H37      1.0000 0.47400  0.79940  0.13000  Biso   1.000  H
  H38      1.0000 0.44820  0.69680  0.12070  Biso   1.000  H
  H39      1.0000 0.53440  0.75680  0.39140  Biso   1.000  H
  H40      1.0000 0.59080  0.81700  0.36410  Biso   1.000  H
  H41      1.0000 0.48020  0.87420  0.26070  Biso   1.000  H
  H42      1.0000 0.42820  0.83700  0.30630  Biso   1.000  H
  H43      1.0000 0.49970  0.57370  0.26220  Biso   1.000  H
  H44      1.0000 0.49770  0.60440  0.34760  Biso   1.000  H
  H45      1.0000 0.38120  0.67530  0.27540  Biso   1.000  H
  H46      1.0000 0.37510  0.62890  0.19160  Biso   1.000  H
  H47      1.0000 0.35030  0.85480  0.12130  Biso   1.000  H
  H48      1.0000 0.31050  0.75790  0.09620  Biso   1.000  H
  H49      1.0000 0.90220  0.77770  0.50680  Biso   1.000  H
  H50      1.0000 0.97910  0.80470  0.49140  Biso   1.000  H
  H51      1.0000 0.91190  0.89810  0.60450  Biso   1.000  H
  H52      1.0000 0.97110  0.93600  0.56750  Biso   1.000  H
  H53      1.0000 0.98530  0.98410  0.71560  Biso   1.000  H
  H54      1.0000 0.05920  0.99300  0.69090  Biso   1.000  H
  H55      1.0000 0.11940  0.75880  0.64440  Biso   1.000  H
  H56      1.0000 0.10890  0.86110  0.61690  Biso   1.000  H
  H57      1.0000 0.17870  0.88850  0.75490  Biso   1.000  H
  H58      1.0000 0.16140  0.79160  0.78060  Biso   1.000  H
  H59      1.0000 0.92930  0.73720  0.65550  Biso   1.000  H
  H60      1.0000 0.02040  0.69840  0.69410  Biso   1.000  H
  H61      1.0000 0.96150  0.83200  0.76190  Biso   1.000  H
  H62      1.0000 0.03780  0.76740  0.81150  Biso   1.000  H
  H63      1.0000 0.14700  0.87810  0.89390  Biso   1.000  H
  H64      1.0000 0.14630  0.97340  0.85350  Biso   1.000  H
  O17      1.0000 0.75680  0.93900  0.89860  Biso   1.000  O
  O18      1.0000 0.63770  0.97260  0.78380  Biso   1.000  O
  C41      1.0000 0.68090  0.92690  0.84600  Biso   1.000  C
  C42      1.0000 0.64670  0.84230  0.87130  Biso   1.000  C
  N9       1.0000 0.56170  0.80920  0.80760  Biso   1.000  N
  C43      1.0000 0.55970  0.78610  0.72330  Biso   1.000  C
  C44      1.0000 0.47260  0.75420  0.66070  Biso   1.000  C
  C45      1.0000 0.54410  0.72390  0.84390  Biso   1.000  C
  C46      1.0000 0.46430  0.67940  0.78100  Biso   1.000  C
  C47      1.0000 0.49370  0.87530  0.79340  Biso   1.000  C
  C48      1.0000 0.40860  0.83280  0.73930  Biso   1.000  C
  N10      1.0000 0.41880  0.74130  0.70610  Biso   1.000  N
  C49      1.0000 0.33710  0.69990  0.64270  Biso   1.000  C
  C50      1.0000 0.27350  0.67660  0.67620  Biso   1.000  C
  O19      1.0000 0.21350  0.63280  0.62230  Biso   1.000  O
  O20      1.0000 0.28390  0.70180  0.74850  Biso   1.000  O
  O21      1.0000 0.92760  0.86280  0.94680  Biso   1.000  O
  O22      1.0000 0.03810  0.86780  0.07630  Biso   1.000  O
  C51      1.0000 0.97750  0.82940  0.01710  Biso   1.000  C
  C52      1.0000 0.96120  0.72990  0.02690  Biso   1.000  C
  N11      1.0000 0.00450  0.69150  0.11710  Biso   1.000  N
  C53      1.0000 0.96880  0.59780  0.11370  Biso   1.000  C
  C54      1.0000 0.02160  0.54870  0.19820  Biso   1.000  C
  C55      1.0000 0.09690  0.68380  0.14990  Biso   1.000  C
  C56      1.0000 0.13660  0.65650  0.24490  Biso   1.000  C
  C57      1.0000 0.98750  0.74720  0.18060  Biso   1.000  C
  C58      1.0000 0.01120  0.69340  0.26260  Biso   1.000  C
  N12      1.0000 0.07020  0.61730  0.26660  Biso   1.000  N
  C59      1.0000 0.11220  0.57600  0.35530  Biso   1.000  C
  C60      1.0000 0.05400  0.53980  0.39040  Biso   1.000  C
  O23      1.0000 0.09120  0.52430  0.47010  Biso   1.000  O
  O24      1.0000 0.97930  0.52710  0.34220  Biso   1.000  O
  Gd3      1.0000 0.87063  0.00612  0.88425  Biso   1.000  Gd
  H65      1.0000 0.64230  0.85840  0.92270  Biso   1.000  H
  H66      1.0000 0.68580  0.79340  0.88360  Biso   1.000  H
  H67      1.0000 0.59630  0.73570  0.73050  Biso   1.000  H
  H68      1.0000 0.57800  0.83770  0.70260  Biso   1.000  H
  H69      1.0000 0.47400  0.70060  0.63000  Biso   1.000  H
  H70      1.0000 0.44820  0.80320  0.62070  Biso   1.000  H
  H71      1.0000 0.53440  0.74320  0.89140  Biso   1.000  H
  H72      1.0000 0.59080  0.68300  0.86410  Biso   1.000  H
  H73      1.0000 0.48020  0.62580  0.76070  Biso   1.000  H
  H74      1.0000 0.42820  0.66300  0.80630  Biso   1.000  H
  H75      1.0000 0.49970  0.92630  0.76220  Biso   1.000  H
  H76      1.0000 0.49770  0.89560  0.84760  Biso   1.000  H
  H77      1.0000 0.38120  0.82470  0.77540  Biso   1.000  H
  H78      1.0000 0.37510  0.87110  0.69160  Biso   1.000  H
  H79      1.0000 0.35030  0.64520  0.62130  Biso   1.000  H
  H80      1.0000 0.31050  0.74210  0.59620  Biso   1.000  H
  H81      1.0000 0.90220  0.72230  0.00680  Biso   1.000  H
  H82      1.0000 0.97910  0.69530  0.99140  Biso   1.000  H
  H83      1.0000 0.91190  0.60190  0.10450  Biso   1.000  H
  H84      1.0000 0.97110  0.56400  0.06750  Biso   1.000  H
  H85      1.0000 0.98530  0.51590  0.21560  Biso   1.000  H
  H86      1.0000 0.05920  0.50700  0.19090  Biso   1.000  H
  H87      1.0000 0.11940  0.74120  0.14440  Biso   1.000  H
  H88      1.0000 0.10890  0.63890  0.11690  Biso   1.000  H
  H89      1.0000 0.17870  0.61150  0.25490  Biso   1.000  H
  H90      1.0000 0.16140  0.70840  0.28060  Biso   1.000  H
  H91      1.0000 0.92930  0.76280  0.15550  Biso   1.000  H
  H92      1.0000 0.02040  0.80160  0.19410  Biso   1.000  H
  H93      1.0000 0.96150  0.66800  0.26190  Biso   1.000  H
  H94      1.0000 0.03780  0.73260  0.31150  Biso   1.000  H
  H95      1.0000 0.14700  0.62190  0.39390  Biso   1.000  H
  H96      1.0000 0.14630  0.52660  0.35350  Biso   1.000  H
  O25      1.0000 0.24320  0.43900  0.60140  Biso   1.000  O
  O26      1.0000 0.36230  0.47260  0.71620  Biso   1.000  O
  C61      1.0000 0.31910  0.42690  0.65400  Biso   1.000  C
  C62      1.0000 0.35330  0.34230  0.62870  Biso   1.000  C
  N13      1.0000 0.43830  0.30920  0.69240  Biso   1.000  N
  C63      1.0000 0.44030  0.28610  0.77670  Biso   1.000  C
  C64      1.0000 0.52740  0.25420  0.83930  Biso   1.000  C
  C65      1.0000 0.45590  0.22390  0.65610  Biso   1.000  C
  C66      1.0000 0.53570  0.17940  0.71900  Biso   1.000  C
  C67      1.0000 0.50630  0.37530  0.70660  Biso   1.000  C
  C68      1.0000 0.59140  0.33280  0.76070  Biso   1.000  C
  N14      1.0000 0.58120  0.24130  0.79390  Biso   1.000  N
  C69      1.0000 0.66290  0.19990  0.85730  Biso   1.000  C
  C70      1.0000 0.72650  0.17660  0.82380  Biso   1.000  C
  O27      1.0000 0.78650  0.13280  0.87770  Biso   1.000  O
  O28      1.0000 0.71610  0.20180  0.75150  Biso   1.000  O
  O29      1.0000 0.07240  0.36280  0.55320  Biso   1.000  O
  O30      1.0000 0.96190  0.36780  0.42370  Biso   1.000  O
  C71      1.0000 0.02250  0.32940  0.48290  Biso   1.000  C
  C72      1.0000 0.03880  0.22990  0.47310  Biso   1.000  C
  N15      1.0000 0.99550  0.19150  0.38290  Biso   1.000  N
  C73      1.0000 0.03120  0.09780  0.38630  Biso   1.000  C
  C74      1.0000 0.97840  0.04870  0.30180  Biso   1.000  C
  C75      1.0000 0.90310  0.18380  0.35010  Biso   1.000  C
  C76      1.0000 0.86340  0.15650  0.25510  Biso   1.000  C
  C77      1.0000 0.01250  0.24720  0.31940  Biso   1.000  C
  C78      1.0000 0.98880  0.19340  0.23740  Biso   1.000  C
  N16      1.0000 0.92980  0.11730  0.23340  Biso   1.000  N
  C79      1.0000 0.88780  0.07600  0.14470  Biso   1.000  C
  C80      1.0000 0.94600  0.03980  0.10960  Biso   1.000  C
  O31      1.0000 0.90880  0.02430  0.02990  Biso   1.000  O
  O32      1.0000 0.02070  0.02710  0.15780  Biso   1.000  O
  Gd4      1.0000 0.12937  0.50612  0.61575  Biso   1.000  Gd
  H97      1.0000 0.35770  0.35840  0.57730  Biso   1.000  H
  H98      1.0000 0.31420  0.29340  0.61640  Biso   1.000  H
  H99      1.0000 0.40370  0.23570  0.76950  Biso   1.000  H
  H100     1.0000 0.42200  0.33770  0.79740  Biso   1.000  H
  H101     1.0000 0.52600  0.20060  0.87000  Biso   1.000  H
  H102     1.0000 0.55180  0.30320  0.87930  Biso   1.000  H
  H103     1.0000 0.46560  0.24320  0.60860  Biso   1.000  H
  H104     1.0000 0.40920  0.18300  0.63590  Biso   1.000  H
  H105     1.0000 0.51980  0.12580  0.73930  Biso   1.000  H
  H106     1.0000 0.57180  0.16300  0.69370  Biso   1.000  H
  H107     1.0000 0.50030  0.42630  0.73780  Biso   1.000  H
  H108     1.0000 0.50230  0.39560  0.65240  Biso   1.000  H
  H109     1.0000 0.61880  0.32470  0.72460  Biso   1.000  H
  H110     1.0000 0.62490  0.37110  0.80840  Biso   1.000  H
  H111     1.0000 0.64970  0.14520  0.87870  Biso   1.000  H
  H112     1.0000 0.68950  0.24210  0.90380  Biso   1.000  H
  H113     1.0000 0.09780  0.22230  0.49320  Biso   1.000  H
  H114     1.0000 0.02090  0.19530  0.50860  Biso   1.000  H
  H115     1.0000 0.08810  0.10190  0.39550  Biso   1.000  H
  H116     1.0000 0.02890  0.06400  0.43250  Biso   1.000  H
  H117     1.0000 0.01470  0.01590  0.28440  Biso   1.000  H
  H118     1.0000 0.94080  0.00700  0.30910  Biso   1.000  H
  H119     1.0000 0.88060  0.24120  0.35560  Biso   1.000  H
  H120     1.0000 0.89110  0.13890  0.38310  Biso   1.000  H
  H121     1.0000 0.82130  0.11150  0.24510  Biso   1.000  H
  H122     1.0000 0.83860  0.20840  0.21940  Biso   1.000  H
  H123     1.0000 0.07070  0.26280  0.34450  Biso   1.000  H
  H124     1.0000 0.97960  0.30160  0.30590  Biso   1.000  H
  H125     1.0000 0.03850  0.16800  0.23810  Biso   1.000  H
  H126     1.0000 0.96220  0.23260  0.18850  Biso   1.000  H
  H127     1.0000 0.85300  0.12190  0.10610  Biso   1.000  H
  H128     1.0000 0.85370  0.02660  0.14650  Biso   1.000  H
