data_image0
_cell_length_a       10.2515
_cell_length_b       12.3845
_cell_length_c       16.6038
_cell_angle_alpha    90
_cell_angle_beta     94.922
_cell_angle_gamma    90

_symmetry_space_group_name_H-M    "P 1"
_symmetry_int_tables_number       1

loop_
  _symmetry_equiv_pos_as_xyz
  'x, y, z'

loop_
  _atom_site_label
  _atom_site_occupancy
  _atom_site_fract_x
  _atom_site_fract_y
  _atom_site_fract_z
  _atom_site_thermal_displace_type
  _atom_site_B_iso_or_equiv
  _atom_site_type_symbol
  C1       1.0000 0.23340  0.63450  0.06050  Biso   1.000  C
  C2       1.0000 0.11050  0.58470  0.08920  Biso   1.000  C
  C3       1.0000 0.11980  0.49480  0.13950  Biso   1.000  C
  H1       1.0000 0.20130  0.46240  0.15400  Biso   1.000  H
  C4       1.0000 0.00720  0.45420  0.16750  Biso   1.000  C
  C5       1.0000 0.88490  0.49700  0.14460  Biso   1.000  C
  H2       1.0000 0.80910  0.46630  0.16300  Biso   1.000  H
  C6       1.0000 0.87670  0.58630  0.09370  Biso   1.000  C
  C7       1.0000 0.98950  0.63130  0.06740  Biso   1.000  C
  H3       1.0000 0.98390  0.69340  0.03470  Biso   1.000  H
  C8       1.0000 0.74460  0.63550  0.06850  Biso   1.000  C
  C9       1.0000 0.03780  0.21350  0.12510  Biso   1.000  C
  H4       1.0000 0.05530  0.13660  0.12840  Biso   1.000  H
  H5       1.0000 0.10790  0.24930  0.09980  Biso   1.000  H
  H6       1.0000 0.95540  0.22580  0.09310  Biso   1.000  H
  C10      1.0000 0.02970  0.25770  0.20760  Biso   1.000  C
  C11      1.0000 0.00680  0.37060  0.30550  Biso   1.000  C
  C12      1.0000 0.99400  0.47150  0.35110  Biso   1.000  C
  C13      1.0000 0.88870  0.48650  0.39710  Biso   1.000  C
  H7       1.0000 0.82130  0.43490  0.39640  Biso   1.000  H
  C14      1.0000 0.88440  0.57840  0.44410  Biso   1.000  C
  H8       1.0000 0.81200  0.58860  0.47440  Biso   1.000  H
  C15      1.0000 0.07770  0.63990  0.40220  Biso   1.000  C
  H9       1.0000 0.14300  0.69330  0.40340  Biso   1.000  H
  C16      1.0000 0.08930  0.55160  0.35270  Biso   1.000  C
  H10      1.0000 0.16020  0.54560  0.32070  Biso   1.000  H
  Cd1      1.0000 0.48499  0.70055  0.03395  Biso   1.000  Cd
  N1       1.0000 0.01630  0.36540  0.22430  Biso   1.000  N
  N2       1.0000 0.02800  0.20110  0.27400  Biso   1.000  N
  N3       1.0000 0.01330  0.27400  0.33640  Biso   1.000  N
  N4       1.0000 0.97880  0.65370  0.44840  Biso   1.000  N
  O1       1.0000 0.33430  0.57640  0.06680  Biso   1.000  O
  O2       1.0000 0.23160  0.72670  0.03410  Biso   1.000  O
  O3       1.0000 0.73750  0.71970  0.02880  Biso   1.000  O
  O4       1.0000 0.64570  0.58740  0.09030  Biso   1.000  O
  C17      1.0000 0.26660  0.13450  0.43950  Biso   1.000  C
  C18      1.0000 0.38950  0.08470  0.41080  Biso   1.000  C
  C19      1.0000 0.38020  0.99480  0.36050  Biso   1.000  C
  H11      1.0000 0.29870  0.96240  0.34600  Biso   1.000  H
  C20      1.0000 0.49280  0.95420  0.33250  Biso   1.000  C
  C21      1.0000 0.61510  0.99700  0.35540  Biso   1.000  C
  H12      1.0000 0.69090  0.96630  0.33700  Biso   1.000  H
  C22      1.0000 0.62330  0.08630  0.40630  Biso   1.000  C
  C23      1.0000 0.51050  0.13130  0.43260  Biso   1.000  C
  H13      1.0000 0.51610  0.19340  0.46530  Biso   1.000  H
  C24      1.0000 0.75540  0.13550  0.43150  Biso   1.000  C
  C25      1.0000 0.46220  0.71350  0.37490  Biso   1.000  C
  H14      1.0000 0.44470  0.63660  0.37160  Biso   1.000  H
  H15      1.0000 0.39210  0.74930  0.40020  Biso   1.000  H
  H16      1.0000 0.54460  0.72580  0.40690  Biso   1.000  H
  C26      1.0000 0.47030  0.75770  0.29240  Biso   1.000  C
  C27      1.0000 0.49320  0.87060  0.19450  Biso   1.000  C
  C28      1.0000 0.50600  0.97150  0.14890  Biso   1.000  C
  C29      1.0000 0.61130  0.98650  0.10290  Biso   1.000  C
  H17      1.0000 0.67870  0.93490  0.10360  Biso   1.000  H
  C30      1.0000 0.61560  0.07840  0.05590  Biso   1.000  C
  H18      1.0000 0.68800  0.08860  0.02560  Biso   1.000  H
  C31      1.0000 0.42230  0.13990  0.09780  Biso   1.000  C
  H19      1.0000 0.35700  0.19330  0.09660  Biso   1.000  H
  C32      1.0000 0.41070  0.05160  0.14730  Biso   1.000  C
  H20      1.0000 0.33980  0.04560  0.17930  Biso   1.000  H
  Cd2      1.0000 0.01501  0.20055  0.46605  Biso   1.000  Cd
  N5       1.0000 0.48370  0.86540  0.27570  Biso   1.000  N
  N6       1.0000 0.47200  0.70110  0.22600  Biso   1.000  N
  N7       1.0000 0.48670  0.77400  0.16360  Biso   1.000  N
  N8       1.0000 0.52120  0.15370  0.05160  Biso   1.000  N
  O5       1.0000 0.16570  0.07640  0.43320  Biso   1.000  O
  O6       1.0000 0.26840  0.22670  0.46590  Biso   1.000  O
  O7       1.0000 0.76250  0.21970  0.47120  Biso   1.000  O
  O8       1.0000 0.85430  0.08740  0.40970  Biso   1.000  O
  C33      1.0000 0.76660  0.36550  0.93950  Biso   1.000  C
  C34      1.0000 0.88950  0.41530  0.91080  Biso   1.000  C
  C35      1.0000 0.88020  0.50520  0.86050  Biso   1.000  C
  H21      1.0000 0.79870  0.53760  0.84600  Biso   1.000  H
  C36      1.0000 0.99280  0.54580  0.83250  Biso   1.000  C
  C37      1.0000 0.11510  0.50300  0.85540  Biso   1.000  C
  H22      1.0000 0.19090  0.53370  0.83700  Biso   1.000  H
  C38      1.0000 0.12330  0.41370  0.90630  Biso   1.000  C
  C39      1.0000 0.01050  0.36870  0.93260  Biso   1.000  C
  H23      1.0000 0.01610  0.30660  0.96530  Biso   1.000  H
  C40      1.0000 0.25540  0.36450  0.93150  Biso   1.000  C
  C41      1.0000 0.96220  0.78650  0.87490  Biso   1.000  C
  H24      1.0000 0.94470  0.86340  0.87160  Biso   1.000  H
  H25      1.0000 0.89210  0.75070  0.90020  Biso   1.000  H
  H26      1.0000 0.04460  0.77420  0.90690  Biso   1.000  H
  C42      1.0000 0.97030  0.74230  0.79240  Biso   1.000  C
  C43      1.0000 0.99320  0.62940  0.69450  Biso   1.000  C
  C44      1.0000 0.00600  0.52850  0.64890  Biso   1.000  C
  C45      1.0000 0.11130  0.51350  0.60290  Biso   1.000  C
  H27      1.0000 0.17870  0.56510  0.60360  Biso   1.000  H
  C46      1.0000 0.11560  0.42160  0.55590  Biso   1.000  C
  H28      1.0000 0.18800  0.41140  0.52560  Biso   1.000  H
  C47      1.0000 0.92230  0.36010  0.59780  Biso   1.000  C
  H29      1.0000 0.85700  0.30670  0.59660  Biso   1.000  H
  C48      1.0000 0.91070  0.44840  0.64730  Biso   1.000  C
  H30      1.0000 0.83980  0.45440  0.67930  Biso   1.000  H
  Cd3      1.0000 0.51501  0.29945  0.96605  Biso   1.000  Cd
  N9       1.0000 0.98370  0.63460  0.77570  Biso   1.000  N
  N10      1.0000 0.97200  0.79890  0.72600  Biso   1.000  N
  N11      1.0000 0.98670  0.72600  0.66360  Biso   1.000  N
  N12      1.0000 0.02120  0.34630  0.55160  Biso   1.000  N
  O9       1.0000 0.66570  0.42360  0.93320  Biso   1.000  O
  O10      1.0000 0.76840  0.27330  0.96590  Biso   1.000  O
  O11      1.0000 0.26250  0.28030  0.97120  Biso   1.000  O
  O12      1.0000 0.35430  0.41260  0.90970  Biso   1.000  O
  C49      1.0000 0.73340  0.86550  0.56050  Biso   1.000  C
  C50      1.0000 0.61050  0.91530  0.58920  Biso   1.000  C
  C51      1.0000 0.61980  0.00520  0.63950  Biso   1.000  C
  H31      1.0000 0.70130  0.03760  0.65400  Biso   1.000  H
  C52      1.0000 0.50720  0.04580  0.66750  Biso   1.000  C
  C53      1.0000 0.38490  0.00300  0.64460  Biso   1.000  C
  H32      1.0000 0.30910  0.03370  0.66300  Biso   1.000  H
  C54      1.0000 0.37670  0.91370  0.59370  Biso   1.000  C
  C55      1.0000 0.48950  0.86870  0.56740  Biso   1.000  C
  H33      1.0000 0.48390  0.80660  0.53470  Biso   1.000  H
  C56      1.0000 0.24460  0.86450  0.56850  Biso   1.000  C
  C57      1.0000 0.53780  0.28650  0.62510  Biso   1.000  C
  H34      1.0000 0.55530  0.36340  0.62840  Biso   1.000  H
  H35      1.0000 0.60790  0.25070  0.59980  Biso   1.000  H
  H36      1.0000 0.45540  0.27420  0.59310  Biso   1.000  H
  C58      1.0000 0.52970  0.24230  0.70760  Biso   1.000  C
  C59      1.0000 0.50680  0.12940  0.80550  Biso   1.000  C
  C60      1.0000 0.49400  0.02850  0.85110  Biso   1.000  C
  C61      1.0000 0.38870  0.01350  0.89710  Biso   1.000  C
  H37      1.0000 0.32130  0.06510  0.89640  Biso   1.000  H
  C62      1.0000 0.38440  0.92160  0.94410  Biso   1.000  C
  H38      1.0000 0.31200  0.91140  0.97440  Biso   1.000  H
  C63      1.0000 0.57770  0.86010  0.90220  Biso   1.000  C
  H39      1.0000 0.64300  0.80670  0.90340  Biso   1.000  H
  C64      1.0000 0.58930  0.94840  0.85270  Biso   1.000  C
  H40      1.0000 0.66020  0.95440  0.82070  Biso   1.000  H
  Cd4      1.0000 0.98499  0.79945  0.53395  Biso   1.000  Cd
  N13      1.0000 0.51630  0.13460  0.72430  Biso   1.000  N
  N14      1.0000 0.52800  0.29890  0.77400  Biso   1.000  N
  N15      1.0000 0.51330  0.22600  0.83640  Biso   1.000  N
  N16      1.0000 0.47880  0.84630  0.94840  Biso   1.000  N
  O13      1.0000 0.83430  0.92360  0.56680  Biso   1.000  O
  O14      1.0000 0.73160  0.77330  0.53410  Biso   1.000  O
  O15      1.0000 0.23750  0.78030  0.52880  Biso   1.000  O
  O16      1.0000 0.14570  0.91260  0.59030  Biso   1.000  O
