data_image0
_cell_length_a       16.7094
_cell_length_b       20.2857
_cell_length_c       17.1936
_cell_angle_alpha    90
_cell_angle_beta     99.178
_cell_angle_gamma    90

_symmetry_space_group_name_H-M    "P 1"
_symmetry_int_tables_number       1

loop_
  _symmetry_equiv_pos_as_xyz
  'x, y, z'

loop_
  _atom_site_label
  _atom_site_occupancy
  _atom_site_fract_x
  _atom_site_fract_y
  _atom_site_fract_z
  _atom_site_thermal_displace_type
  _atom_site_B_iso_or_equiv
  _atom_site_type_symbol
  Mn1      1.0000 0.96912  0.83354  0.24752  Biso   1.000  Mn
  Mn2      1.0000 0.86416  0.87503  0.05289  Biso   1.000  Mn
  Mn3      1.0000 0.08766  0.85221  0.44303  Biso   1.000  Mn
  S1       1.0000 0.45205  0.72510  0.22902  Biso   1.000  S
  S2       1.0000 0.10693  0.51409  0.95779  Biso   1.000  S
  S3       1.0000 0.04270  0.43195  0.34433  Biso   1.000  S
  O1       1.0000 0.01490  0.75680  0.32530  Biso   1.000  O
  O2       1.0000 0.56840  0.41770  0.32400  Biso   1.000  O
  O3       1.0000 0.98680  0.76861  0.15340  Biso   1.000  O
  O4       1.0000 0.40950  0.36850  0.25430  Biso   1.000  O
  O5       1.0000 0.84290  0.80712  0.24341  Biso   1.000  O
  O6       1.0000 0.46260  0.61077  0.85970  Biso   1.000  O
  O7       1.0000 0.79890  0.81290  0.11450  Biso   1.000  O
  O8       1.0000 0.94760  0.80423  0.03020  Biso   1.000  O
  O9       1.0000 0.55110  0.45600  0.43920  Biso   1.000  O
  O10      1.0000 0.34140  0.38620  0.13410  Biso   1.000  O
  O11      1.0000 0.08120  0.75110  0.44570  Biso   1.000  O
  O12      1.0000 0.49290  0.60000  0.98730  Biso   1.000  O
  O13      1.0000 0.42640  0.76500  0.28950  Biso   1.000  O
  O14      1.0000 0.40330  0.72184  0.15320  Biso   1.000  O
  O15      1.0000 0.06190  0.50031  0.88230  Biso   1.000  O
  O16      1.0000 0.11010  0.46704  0.01980  Biso   1.000  O
  O17      1.0000 0.05030  0.40166  0.41980  Biso   1.000  O
  O18      1.0000 0.97590  0.41598  0.28480  Biso   1.000  O
  C1       1.0000 0.78880  0.80330  0.18420  Biso   1.000  C
  C2       1.0000 0.70550  0.78410  0.19690  Biso   1.000  C
  C3       1.0000 0.68550  0.77680  0.27200  Biso   1.000  C
  H1       1.0000 0.72510  0.78330  0.31590  Biso   1.000  H
  C4       1.0000 0.60800  0.75990  0.28220  Biso   1.000  C
  H2       1.0000 0.59460  0.75570  0.33250  Biso   1.000  H
  C5       1.0000 0.55060  0.74940  0.21640  Biso   1.000  C
  C6       1.0000 0.56900  0.75700  0.14130  Biso   1.000  C
  H3       1.0000 0.52950  0.75000  0.09750  Biso   1.000  H
  C7       1.0000 0.64590  0.77490  0.13210  Biso   1.000  C
  H4       1.0000 0.65820  0.78110  0.08170  Biso   1.000  H
  C8       1.0000 0.46720  0.64480  0.26650  Biso   1.000  C
  C9       1.0000 0.47020  0.63470  0.34700  Biso   1.000  C
  H5       1.0000 0.45910  0.66900  0.37960  Biso   1.000  H
  C10      1.0000 0.48980  0.57320  0.37710  Biso   1.000  C
  H6       1.0000 0.49100  0.56530  0.43060  Biso   1.000  H
  C11      1.0000 0.50780  0.52290  0.32860  Biso   1.000  C
  C12      1.0000 0.50130  0.53290  0.24790  Biso   1.000  C
  H7       1.0000 0.51080  0.49830  0.21530  Biso   1.000  H
  C13      1.0000 0.48060  0.59400  0.21630  Biso   1.000  C
  H8       1.0000 0.47580  0.60100  0.16230  Biso   1.000  H
  C14      1.0000 0.54210  0.46110  0.36550  Biso   1.000  C
  C15      1.0000 0.98070  0.76370  0.07990  Biso   1.000  C
  C16      1.0000 0.01460  0.70210  0.04840  Biso   1.000  C
  C17      1.0000 0.00390  0.69070  0.96860  Biso   1.000  C
  H9       1.0000 0.97700  0.72160  0.93400  Biso   1.000  H
  C18      1.0000 0.03290  0.63330  0.93940  Biso   1.000  C
  H10      1.0000 0.02610  0.62530  0.88550  Biso   1.000  H
  C19      1.0000 0.07220  0.58830  0.99250  Biso   1.000  C
  C20      1.0000 0.08260  0.59990  0.07220  Biso   1.000  C
  H11      1.0000 0.10920  0.56890  0.10710  Biso   1.000  H
  C21      1.0000 0.05400  0.65700  0.10040  Biso   1.000  C
  H12      1.0000 0.06130  0.66510  0.15430  Biso   1.000  H
  C22      1.0000 0.20690  0.53270  0.94520  Biso   1.000  C
  C23      1.0000 0.22140  0.56090  0.87610  Biso   1.000  C
  H13      1.0000 0.17890  0.56750  0.83490  Biso   1.000  H
  C24      1.0000 0.29900  0.57960  0.86810  Biso   1.000  C
  H14      1.0000 0.30930  0.59830  0.82130  Biso   1.000  H
  C25      1.0000 0.36070  0.57010  0.92990  Biso   1.000  C
  C26      1.0000 0.34560  0.54010  0.99870  Biso   1.000  C
  H15      1.0000 0.38810  0.53270  0.03980  Biso   1.000  H
  C27      1.0000 0.26870  0.52120  0.00650  Biso   1.000  C
  H16      1.0000 0.25840  0.50100  0.05240  Biso   1.000  H
  C28      1.0000 0.44370  0.59490  0.92450  Biso   1.000  C
  C29      1.0000 0.04710  0.72520  0.38250  Biso   1.000  C
  C30      1.0000 0.04690  0.65220  0.37540  Biso   1.000  C
  C31      1.0000 0.01730  0.62420  0.30320  Biso   1.000  C
  H17      1.0000 0.99780  0.65110  0.26070  Biso   1.000  H
  C32      1.0000 0.01650  0.55740  0.29380  Biso   1.000  C
  H18      1.0000 0.99700  0.53870  0.24500  Biso   1.000  H
  C33      1.0000 0.04470  0.51820  0.35730  Biso   1.000  C
  C34      1.0000 0.07250  0.54450  0.42880  Biso   1.000  C
  H19      1.0000 0.09010  0.51720  0.47160  Biso   1.000  H
  C35      1.0000 0.07440  0.61210  0.43760  Biso   1.000  C
  H20      1.0000 0.09450  0.63050  0.48630  Biso   1.000  H
  C36      1.0000 0.13130  0.41640  0.30400  Biso   1.000  C
  C37      1.0000 0.13080  0.42550  0.22440  Biso   1.000  C
  H21      1.0000 0.08390  0.43930  0.19200  Biso   1.000  H
  C38      1.0000 0.20100  0.41370  0.19340  Biso   1.000  C
  H22      1.0000 0.20110  0.41870  0.13960  Biso   1.000  H
  C39      1.0000 0.27080  0.39480  0.24200  Biso   1.000  C
  C40      1.0000 0.27000  0.38520  0.32150  Biso   1.000  C
  H23      1.0000 0.31690  0.37140  0.35400  Biso   1.000  H
  C41      1.0000 0.19990  0.39590  0.35290  Biso   1.000  C
  H24      1.0000 0.19930  0.38930  0.40630  Biso   1.000  H
  C42      1.0000 0.34720  0.38230  0.20760  Biso   1.000  C
  Mn4      1.0000 0.53088  0.33354  0.25248  Biso   1.000  Mn
  Mn5      1.0000 0.63584  0.37503  0.44711  Biso   1.000  Mn
  Mn6      1.0000 0.41234  0.35221  0.05697  Biso   1.000  Mn
  S4       1.0000 0.04795  0.22510  0.27098  Biso   1.000  S
  S5       1.0000 0.39307  0.01409  0.54221  Biso   1.000  S
  S6       1.0000 0.45730  0.93195  0.15567  Biso   1.000  S
  O19      1.0000 0.48510  0.25680  0.17470  Biso   1.000  O
  O20      1.0000 0.93160  0.91770  0.17600  Biso   1.000  O
  O21      1.0000 0.51320  0.26861  0.34660  Biso   1.000  O
  O22      1.0000 0.09050  0.86850  0.24570  Biso   1.000  O
  O23      1.0000 0.65710  0.30712  0.25659  Biso   1.000  O
  O24      1.0000 0.03740  0.11077  0.64030  Biso   1.000  O
  O25      1.0000 0.70110  0.31290  0.38550  Biso   1.000  O
  O26      1.0000 0.55240  0.30423  0.46980  Biso   1.000  O
  O27      1.0000 0.94890  0.95600  0.06080  Biso   1.000  O
  O28      1.0000 0.15860  0.88620  0.36590  Biso   1.000  O
  O29      1.0000 0.41880  0.25110  0.05430  Biso   1.000  O
  O30      1.0000 0.00710  0.10000  0.51270  Biso   1.000  O
  O31      1.0000 0.07360  0.26500  0.21050  Biso   1.000  O
  O32      1.0000 0.09670  0.22184  0.34680  Biso   1.000  O
  O33      1.0000 0.43810  0.00031  0.61770  Biso   1.000  O
  O34      1.0000 0.38990  0.96704  0.48020  Biso   1.000  O
  O35      1.0000 0.44970  0.90166  0.08020  Biso   1.000  O
  O36      1.0000 0.52410  0.91598  0.21520  Biso   1.000  O
  C43      1.0000 0.71120  0.30330  0.31580  Biso   1.000  C
  C44      1.0000 0.79450  0.28410  0.30310  Biso   1.000  C
  C45      1.0000 0.81450  0.27680  0.22800  Biso   1.000  C
  H25      1.0000 0.77490  0.28330  0.18410  Biso   1.000  H
  C46      1.0000 0.89200  0.25990  0.21780  Biso   1.000  C
  H26      1.0000 0.90540  0.25570  0.16750  Biso   1.000  H
  C47      1.0000 0.94940  0.24940  0.28360  Biso   1.000  C
  C48      1.0000 0.93100  0.25700  0.35870  Biso   1.000  C
  H27      1.0000 0.97050  0.25000  0.40250  Biso   1.000  H
  C49      1.0000 0.85410  0.27490  0.36790  Biso   1.000  C
  H28      1.0000 0.84180  0.28110  0.41830  Biso   1.000  H
  C50      1.0000 0.03280  0.14480  0.23350  Biso   1.000  C
  C51      1.0000 0.02980  0.13470  0.15300  Biso   1.000  C
  H29      1.0000 0.04090  0.16900  0.12040  Biso   1.000  H
  C52      1.0000 0.01020  0.07320  0.12290  Biso   1.000  C
  H30      1.0000 0.00900  0.06530  0.06940  Biso   1.000  H
  C53      1.0000 0.99220  0.02290  0.17140  Biso   1.000  C
  C54      1.0000 0.99870  0.03290  0.25210  Biso   1.000  C
  H31      1.0000 0.98920  0.99830  0.28470  Biso   1.000  H
  C55      1.0000 0.01940  0.09400  0.28370  Biso   1.000  C
  H32      1.0000 0.02420  0.10100  0.33770  Biso   1.000  H
  C56      1.0000 0.95790  0.96110  0.13450  Biso   1.000  C
  C57      1.0000 0.51930  0.26370  0.42010  Biso   1.000  C
  C58      1.0000 0.48540  0.20210  0.45160  Biso   1.000  C
  C59      1.0000 0.49610  0.19070  0.53140  Biso   1.000  C
  H33      1.0000 0.52300  0.22160  0.56600  Biso   1.000  H
  C60      1.0000 0.46710  0.13330  0.56060  Biso   1.000  C
  H34      1.0000 0.47390  0.12530  0.61450  Biso   1.000  H
  C61      1.0000 0.42780  0.08830  0.50750  Biso   1.000  C
  C62      1.0000 0.41740  0.09990  0.42780  Biso   1.000  C
  H35      1.0000 0.39080  0.06890  0.39290  Biso   1.000  H
  C63      1.0000 0.44600  0.15700  0.39960  Biso   1.000  C
  H36      1.0000 0.43870  0.16510  0.34570  Biso   1.000  H
  C64      1.0000 0.29310  0.03270  0.55480  Biso   1.000  C
  C65      1.0000 0.27860  0.06090  0.62390  Biso   1.000  C
  H37      1.0000 0.32110  0.06750  0.66510  Biso   1.000  H
  C66      1.0000 0.20100  0.07960  0.63190  Biso   1.000  C
  H38      1.0000 0.19070  0.09830  0.67870  Biso   1.000  H
  C67      1.0000 0.13930  0.07010  0.57010  Biso   1.000  C
  C68      1.0000 0.15440  0.04010  0.50130  Biso   1.000  C
  H39      1.0000 0.11190  0.03270  0.46020  Biso   1.000  H
  C69      1.0000 0.23130  0.02120  0.49350  Biso   1.000  C
  H40      1.0000 0.24160  0.00100  0.44760  Biso   1.000  H
  C70      1.0000 0.05630  0.09490  0.57550  Biso   1.000  C
  C71      1.0000 0.45290  0.22520  0.11750  Biso   1.000  C
  C72      1.0000 0.45310  0.15220  0.12460  Biso   1.000  C
  C73      1.0000 0.48270  0.12420  0.19680  Biso   1.000  C
  H41      1.0000 0.50220  0.15110  0.23930  Biso   1.000  H
  C74      1.0000 0.48350  0.05740  0.20620  Biso   1.000  C
  H42      1.0000 0.50300  0.03870  0.25500  Biso   1.000  H
  C75      1.0000 0.45530  0.01820  0.14270  Biso   1.000  C
  C76      1.0000 0.42750  0.04450  0.07120  Biso   1.000  C
  H43      1.0000 0.40990  0.01720  0.02840  Biso   1.000  H
  C77      1.0000 0.42560  0.11210  0.06240  Biso   1.000  C
  H44      1.0000 0.40550  0.13050  0.01370  Biso   1.000  H
  C78      1.0000 0.36870  0.91640  0.19600  Biso   1.000  C
  C79      1.0000 0.36920  0.92550  0.27560  Biso   1.000  C
  H45      1.0000 0.41610  0.93930  0.30800  Biso   1.000  H
  C80      1.0000 0.29900  0.91370  0.30660  Biso   1.000  C
  H46      1.0000 0.29890  0.91870  0.36040  Biso   1.000  H
  C81      1.0000 0.22920  0.89480  0.25800  Biso   1.000  C
  C82      1.0000 0.23000  0.88520  0.17850  Biso   1.000  C
  H47      1.0000 0.18310  0.87140  0.14600  Biso   1.000  H
  C83      1.0000 0.30010  0.89590  0.14710  Biso   1.000  C
  H48      1.0000 0.30070  0.88930  0.09370  Biso   1.000  H
  C84      1.0000 0.15280  0.88230  0.29240  Biso   1.000  C
  Mn7      1.0000 0.03088  0.16646  0.75248  Biso   1.000  Mn
  Mn8      1.0000 0.13584  0.12497  0.94711  Biso   1.000  Mn
  Mn9      1.0000 0.91234  0.14779  0.55697  Biso   1.000  Mn
  S7       1.0000 0.54795  0.27490  0.77098  Biso   1.000  S
  S8       1.0000 0.89307  0.48591  0.04221  Biso   1.000  S
  S9       1.0000 0.95730  0.56805  0.65567  Biso   1.000  S
  O37      1.0000 0.98510  0.24320  0.67470  Biso   1.000  O
  O38      1.0000 0.43160  0.58230  0.67600  Biso   1.000  O
  O39      1.0000 0.01320  0.23139  0.84660  Biso   1.000  O
  O40      1.0000 0.59050  0.63150  0.74570  Biso   1.000  O
  O41      1.0000 0.15710  0.19288  0.75659  Biso   1.000  O
  O42      1.0000 0.53740  0.38923  0.14030  Biso   1.000  O
  O43      1.0000 0.20110  0.18710  0.88550  Biso   1.000  O
  O44      1.0000 0.05240  0.19577  0.96980  Biso   1.000  O
  O45      1.0000 0.44890  0.54400  0.56080  Biso   1.000  O
  O46      1.0000 0.65860  0.61380  0.86590  Biso   1.000  O
  O47      1.0000 0.91880  0.24890  0.55430  Biso   1.000  O
  O48      1.0000 0.50710  0.40000  0.01270  Biso   1.000  O
  O49      1.0000 0.57360  0.23500  0.71050  Biso   1.000  O
  O50      1.0000 0.59670  0.27816  0.84680  Biso   1.000  O
  O51      1.0000 0.93810  0.49969  0.11770  Biso   1.000  O
  O52      1.0000 0.88990  0.53296  0.98020  Biso   1.000  O
  O53      1.0000 0.94970  0.59834  0.58020  Biso   1.000  O
  O54      1.0000 0.02410  0.58402  0.71520  Biso   1.000  O
  C85      1.0000 0.21120  0.19670  0.81580  Biso   1.000  C
  C86      1.0000 0.29450  0.21590  0.80310  Biso   1.000  C
  C87      1.0000 0.31450  0.22320  0.72800  Biso   1.000  C
  H49      1.0000 0.27490  0.21670  0.68410  Biso   1.000  H
  C88      1.0000 0.39200  0.24010  0.71780  Biso   1.000  C
  H50      1.0000 0.40540  0.24430  0.66750  Biso   1.000  H
  C89      1.0000 0.44940  0.25060  0.78360  Biso   1.000  C
  C90      1.0000 0.43100  0.24300  0.85870  Biso   1.000  C
  H51      1.0000 0.47050  0.25000  0.90250  Biso   1.000  H
  C91      1.0000 0.35410  0.22510  0.86790  Biso   1.000  C
  H52      1.0000 0.34180  0.21890  0.91830  Biso   1.000  H
  C92      1.0000 0.53280  0.35520  0.73350  Biso   1.000  C
  C93      1.0000 0.52980  0.36530  0.65300  Biso   1.000  C
  H53      1.0000 0.54090  0.33100  0.62040  Biso   1.000  H
  C94      1.0000 0.51020  0.42680  0.62290  Biso   1.000  C
  H54      1.0000 0.50900  0.43470  0.56940  Biso   1.000  H
  C95      1.0000 0.49220  0.47710  0.67140  Biso   1.000  C
  C96      1.0000 0.49870  0.46710  0.75210  Biso   1.000  C
  H55      1.0000 0.48920  0.50170  0.78470  Biso   1.000  H
  C97      1.0000 0.51940  0.40600  0.78370  Biso   1.000  C
  H56      1.0000 0.52420  0.39900  0.83770  Biso   1.000  H
  C98      1.0000 0.45790  0.53890  0.63450  Biso   1.000  C
  C99      1.0000 0.01930  0.23630  0.92010  Biso   1.000  C
  C100     1.0000 0.98540  0.29790  0.95160  Biso   1.000  C
  C101     1.0000 0.99610  0.30930  0.03140  Biso   1.000  C
  H57      1.0000 0.02300  0.27840  0.06600  Biso   1.000  H
  C102     1.0000 0.96710  0.36670  0.06060  Biso   1.000  C
  H58      1.0000 0.97390  0.37470  0.11450  Biso   1.000  H
  C103     1.0000 0.92780  0.41170  0.00750  Biso   1.000  C
  C104     1.0000 0.91740  0.40010  0.92780  Biso   1.000  C
  H59      1.0000 0.89080  0.43110  0.89290  Biso   1.000  H
  C105     1.0000 0.94600  0.34300  0.89960  Biso   1.000  C
  H60      1.0000 0.93870  0.33490  0.84570  Biso   1.000  H
  C106     1.0000 0.79310  0.46730  0.05480  Biso   1.000  C
  C107     1.0000 0.77860  0.43910  0.12390  Biso   1.000  C
  H61      1.0000 0.82110  0.43250  0.16510  Biso   1.000  H
  C108     1.0000 0.70100  0.42040  0.13190  Biso   1.000  C
  H62      1.0000 0.69070  0.40170  0.17870  Biso   1.000  H
  C109     1.0000 0.63930  0.42990  0.07010  Biso   1.000  C
  C110     1.0000 0.65440  0.45990  0.00130  Biso   1.000  C
  H63      1.0000 0.61190  0.46730  0.96020  Biso   1.000  H
  C111     1.0000 0.73130  0.47880  0.99350  Biso   1.000  C
  H64      1.0000 0.74160  0.49900  0.94760  Biso   1.000  H
  C112     1.0000 0.55630  0.40510  0.07550  Biso   1.000  C
  C113     1.0000 0.95290  0.27480  0.61750  Biso   1.000  C
  C114     1.0000 0.95310  0.34780  0.62460  Biso   1.000  C
  C115     1.0000 0.98270  0.37580  0.69680  Biso   1.000  C
  H65      1.0000 0.00220  0.34890  0.73930  Biso   1.000  H
  C116     1.0000 0.98350  0.44260  0.70620  Biso   1.000  C
  H66      1.0000 0.00300  0.46130  0.75500  Biso   1.000  H
  C117     1.0000 0.95530  0.48180  0.64270  Biso   1.000  C
  C118     1.0000 0.92750  0.45550  0.57120  Biso   1.000  C
  H67      1.0000 0.90990  0.48280  0.52840  Biso   1.000  H
  C119     1.0000 0.92560  0.38790  0.56240  Biso   1.000  C
  H68      1.0000 0.90550  0.36950  0.51370  Biso   1.000  H
  C120     1.0000 0.86870  0.58360  0.69600  Biso   1.000  C
  C121     1.0000 0.86920  0.57450  0.77560  Biso   1.000  C
  H69      1.0000 0.91610  0.56070  0.80800  Biso   1.000  H
  C122     1.0000 0.79900  0.58630  0.80660  Biso   1.000  C
  H70      1.0000 0.79890  0.58130  0.86040  Biso   1.000  H
  C123     1.0000 0.72920  0.60520  0.75800  Biso   1.000  C
  C124     1.0000 0.73000  0.61480  0.67850  Biso   1.000  C
  H71      1.0000 0.68310  0.62860  0.64600  Biso   1.000  H
  C125     1.0000 0.80010  0.60410  0.64710  Biso   1.000  C
  H72      1.0000 0.80070  0.61070  0.59370  Biso   1.000  H
  C126     1.0000 0.65280  0.61770  0.79240  Biso   1.000  C
  Mn10     1.0000 0.46912  0.66646  0.74752  Biso   1.000  Mn
  Mn11     1.0000 0.36416  0.62497  0.55289  Biso   1.000  Mn
  Mn12     1.0000 0.58766  0.64779  0.94303  Biso   1.000  Mn
  S10      1.0000 0.95205  0.77490  0.72902  Biso   1.000  S
  S11      1.0000 0.60693  0.98591  0.45779  Biso   1.000  S
  S12      1.0000 0.54270  0.06805  0.84433  Biso   1.000  S
  O55      1.0000 0.51490  0.74320  0.82530  Biso   1.000  O
  O56      1.0000 0.06840  0.08230  0.82400  Biso   1.000  O
  O57      1.0000 0.48680  0.73139  0.65340  Biso   1.000  O
  O58      1.0000 0.90950  0.13150  0.75430  Biso   1.000  O
  O59      1.0000 0.34290  0.69288  0.74341  Biso   1.000  O
  O60      1.0000 0.96260  0.88923  0.35970  Biso   1.000  O
  O61      1.0000 0.29890  0.68710  0.61450  Biso   1.000  O
  O62      1.0000 0.44760  0.69577  0.53020  Biso   1.000  O
  O63      1.0000 0.05110  0.04400  0.93920  Biso   1.000  O
  O64      1.0000 0.84140  0.11380  0.63410  Biso   1.000  O
  O65      1.0000 0.58120  0.74890  0.94570  Biso   1.000  O
  O66      1.0000 0.99290  0.90000  0.48730  Biso   1.000  O
  O67      1.0000 0.92640  0.73500  0.78950  Biso   1.000  O
  O68      1.0000 0.90330  0.77816  0.65320  Biso   1.000  O
  O69      1.0000 0.56190  0.99969  0.38230  Biso   1.000  O
  O70      1.0000 0.61010  0.03296  0.51980  Biso   1.000  O
  O71      1.0000 0.55030  0.09834  0.91980  Biso   1.000  O
  O72      1.0000 0.47590  0.08402  0.78480  Biso   1.000  O
  C127     1.0000 0.28880  0.69670  0.68420  Biso   1.000  C
  C128     1.0000 0.20550  0.71590  0.69690  Biso   1.000  C
  C129     1.0000 0.18550  0.72320  0.77200  Biso   1.000  C
  H73      1.0000 0.22510  0.71670  0.81590  Biso   1.000  H
  C130     1.0000 0.10800  0.74010  0.78220  Biso   1.000  C
  H74      1.0000 0.09460  0.74430  0.83250  Biso   1.000  H
  C131     1.0000 0.05060  0.75060  0.71640  Biso   1.000  C
  C132     1.0000 0.06900  0.74300  0.64130  Biso   1.000  C
  H75      1.0000 0.02950  0.75000  0.59750  Biso   1.000  H
  C133     1.0000 0.14590  0.72510  0.63210  Biso   1.000  C
  H76      1.0000 0.15820  0.71890  0.58170  Biso   1.000  H
  C134     1.0000 0.96720  0.85520  0.76650  Biso   1.000  C
  C135     1.0000 0.97020  0.86530  0.84700  Biso   1.000  C
  H77      1.0000 0.95910  0.83100  0.87960  Biso   1.000  H
  C136     1.0000 0.98980  0.92680  0.87710  Biso   1.000  C
  H78      1.0000 0.99100  0.93470  0.93060  Biso   1.000  H
  C137     1.0000 0.00780  0.97710  0.82860  Biso   1.000  C
  C138     1.0000 0.00130  0.96710  0.74790  Biso   1.000  C
  H79      1.0000 0.01080  0.00170  0.71530  Biso   1.000  H
  C139     1.0000 0.98060  0.90600  0.71630  Biso   1.000  C
  H80      1.0000 0.97580  0.89900  0.66230  Biso   1.000  H
  C140     1.0000 0.04210  0.03890  0.86550  Biso   1.000  C
  C141     1.0000 0.48070  0.73630  0.57990  Biso   1.000  C
  C142     1.0000 0.51460  0.79790  0.54840  Biso   1.000  C
  C143     1.0000 0.50390  0.80930  0.46860  Biso   1.000  C
  H81      1.0000 0.47700  0.77840  0.43400  Biso   1.000  H
  C144     1.0000 0.53290  0.86670  0.43940  Biso   1.000  C
  H82      1.0000 0.52610  0.87470  0.38550  Biso   1.000  H
  C145     1.0000 0.57220  0.91170  0.49250  Biso   1.000  C
  C146     1.0000 0.58260  0.90010  0.57220  Biso   1.000  C
  H83      1.0000 0.60920  0.93110  0.60710  Biso   1.000  H
  C147     1.0000 0.55400  0.84300  0.60040  Biso   1.000  C
  H84      1.0000 0.56130  0.83490  0.65430  Biso   1.000  H
  C148     1.0000 0.70690  0.96730  0.44520  Biso   1.000  C
  C149     1.0000 0.72140  0.93910  0.37610  Biso   1.000  C
  H85      1.0000 0.67890  0.93250  0.33490  Biso   1.000  H
  C150     1.0000 0.79900  0.92040  0.36810  Biso   1.000  C
  H86      1.0000 0.80930  0.90170  0.32130  Biso   1.000  H
  C151     1.0000 0.86070  0.92990  0.42990  Biso   1.000  C
  C152     1.0000 0.84560  0.95990  0.49870  Biso   1.000  C
  H87      1.0000 0.88810  0.96730  0.53980  Biso   1.000  H
  C153     1.0000 0.76870  0.97880  0.50650  Biso   1.000  C
  H88      1.0000 0.75840  0.99900  0.55240  Biso   1.000  H
  C154     1.0000 0.94370  0.90510  0.42450  Biso   1.000  C
  C155     1.0000 0.54710  0.77480  0.88250  Biso   1.000  C
  C156     1.0000 0.54690  0.84780  0.87540  Biso   1.000  C
  C157     1.0000 0.51730  0.87580  0.80320  Biso   1.000  C
  H89      1.0000 0.49780  0.84890  0.76070  Biso   1.000  H
  C158     1.0000 0.51650  0.94260  0.79380  Biso   1.000  C
  H90      1.0000 0.49700  0.96130  0.74500  Biso   1.000  H
  C159     1.0000 0.54470  0.98180  0.85730  Biso   1.000  C
  C160     1.0000 0.57250  0.95550  0.92880  Biso   1.000  C
  H91      1.0000 0.59010  0.98280  0.97160  Biso   1.000  H
  C161     1.0000 0.57440  0.88790  0.93760  Biso   1.000  C
  H92      1.0000 0.59450  0.86950  0.98630  Biso   1.000  H
  C162     1.0000 0.63130  0.08360  0.80400  Biso   1.000  C
  C163     1.0000 0.63080  0.07450  0.72440  Biso   1.000  C
  H93      1.0000 0.58390  0.06070  0.69200  Biso   1.000  H
  C164     1.0000 0.70100  0.08630  0.69340  Biso   1.000  C
  H94      1.0000 0.70110  0.08130  0.63960  Biso   1.000  H
  C165     1.0000 0.77080  0.10520  0.74200  Biso   1.000  C
  C166     1.0000 0.77000  0.11480  0.82150  Biso   1.000  C
  H95      1.0000 0.81690  0.12860  0.85400  Biso   1.000  H
  C167     1.0000 0.69990  0.10410  0.85290  Biso   1.000  C
  H96      1.0000 0.69930  0.11070  0.90630  Biso   1.000  H
  C168     1.0000 0.84720  0.11770  0.70760  Biso   1.000  C
