data_image0
_cell_length_a       16.7094
_cell_length_b       20.2857
_cell_length_c       17.1936
_cell_angle_alpha    90
_cell_angle_beta     99.178
_cell_angle_gamma    90

_symmetry_space_group_name_H-M    "P 1"
_symmetry_int_tables_number       1

loop_
  _symmetry_equiv_pos_as_xyz
  'x, y, z'

loop_
  _atom_site_label
  _atom_site_occupancy
  _atom_site_fract_x
  _atom_site_fract_y
  _atom_site_fract_z
  _atom_site_thermal_displace_type
  _atom_site_B_iso_or_equiv
  _atom_site_type_symbol
  Co1      1.0000 0.58645  0.85163  0.44140  Biso   1.000  Co
  Mn1      1.0000 0.46300  0.83233  0.24579  Biso   1.000  Mn
  Mn2      1.0000 0.35591  0.87452  0.05371  Biso   1.000  Mn
  S1       1.0000 0.54878  0.42926  0.33489  Biso   1.000  S
  S2       1.0000 0.60562  0.51411  0.95883  Biso   1.000  S
  S3       1.0000 0.94767  0.72467  0.23391  Biso   1.000  S
  O1       1.0000 0.84610  0.38870  0.13130  Biso   1.000  O
  O2       1.0000 0.98820  0.60570  0.97100  Biso   1.000  O
  O3       1.0000 0.58720  0.75120  0.44090  Biso   1.000  O
  O4       1.0000 0.48040  0.76310  0.15760  Biso   1.000  O
  O5       1.0000 0.49980  0.75780  0.33190  Biso   1.000  O
  O6       1.0000 0.91260  0.36230  0.24860  Biso   1.000  O
  O7       1.0000 0.06990  0.41550  0.33070  Biso   1.000  O
  O8       1.0000 0.33640  0.80623  0.23780  Biso   1.000  O
  O9       1.0000 0.94990  0.60350  0.84410  Biso   1.000  O
  O10      1.0000 0.28550  0.81510  0.11130  Biso   1.000  O
  O11      1.0000 0.43950  0.80140  0.03710  Biso   1.000  O
  O12      1.0000 0.05770  0.45560  0.44470  Biso   1.000  O
  O13      1.0000 0.55770  0.39810  0.40950  Biso   1.000  O
  O14      1.0000 0.48070  0.41380  0.27590  Biso   1.000  O
  O15      1.0000 0.61340  0.46554  0.01910  Biso   1.000  O
  O16      1.0000 0.55730  0.49980  0.88500  Biso   1.000  O
  O17      1.0000 0.89590  0.72060  0.16010  Biso   1.000  O
  O18      1.0000 0.92620  0.76638  0.29350  Biso   1.000  O
  C1       1.0000 0.54450  0.72550  0.38190  Biso   1.000  C
  C2       1.0000 0.54820  0.65170  0.37200  Biso   1.000  C
  C3       1.0000 0.58870  0.61070  0.42950  Biso   1.000  C
  H1       1.0000 0.61610  0.62880  0.47590  Biso   1.000  H
  C4       1.0000 0.58910  0.54310  0.41900  Biso   1.000  C
  H2       1.0000 0.61590  0.51590  0.45830  Biso   1.000  H
  C5       1.0000 0.54950  0.51640  0.34970  Biso   1.000  C
  C6       1.0000 0.51220  0.55630  0.29000  Biso   1.000  C
  H3       1.0000 0.48770  0.53810  0.24250  Biso   1.000  H
  C7       1.0000 0.51180  0.62430  0.30170  Biso   1.000  C
  H4       1.0000 0.48650  0.65150  0.26160  Biso   1.000  H
  C8       1.0000 0.63720  0.41500  0.29630  Biso   1.000  C
  C9       1.0000 0.70570  0.39180  0.34390  Biso   1.000  C
  H5       1.0000 0.70440  0.38300  0.39680  Biso   1.000  H
  C10      1.0000 0.77540  0.38180  0.31350  Biso   1.000  C
  H6       1.0000 0.82200  0.36680  0.34560  Biso   1.000  H
  C11      1.0000 0.77590  0.39410  0.23610  Biso   1.000  C
  C12      1.0000 0.70570  0.41540  0.18840  Biso   1.000  C
  H7       1.0000 0.70600  0.42190  0.13490  Biso   1.000  H
  C13      1.0000 0.63710  0.42670  0.21840  Biso   1.000  C
  H8       1.0000 0.59080  0.44210  0.18650  Biso   1.000  H
  C14      1.0000 0.85170  0.38070  0.20400  Biso   1.000  C
  C15      1.0000 0.47470  0.75990  0.08540  Biso   1.000  C
  C16      1.0000 0.50950  0.70030  0.05260  Biso   1.000  C
  C17      1.0000 0.55150  0.65340  0.10270  Biso   1.000  C
  H9       1.0000 0.55900  0.66040  0.15680  Biso   1.000  H
  C18      1.0000 0.58180  0.59720  0.07390  Biso   1.000  C
  H10      1.0000 0.60960  0.56620  0.10790  Biso   1.000  H
  C19      1.0000 0.57050  0.58780  0.99460  Biso   1.000  C
  C20      1.0000 0.52960  0.63420  0.94360  Biso   1.000  C
  H11      1.0000 0.52290  0.62750  0.88950  Biso   1.000  H
  C21      1.0000 0.49870  0.69060  0.97360  Biso   1.000  C
  H12      1.0000 0.47060  0.72150  0.93970  Biso   1.000  H
  C22      1.0000 0.70410  0.53440  0.94360  Biso   1.000  C
  C23      1.0000 0.76830  0.52460  0.00300  Biso   1.000  C
  H13      1.0000 0.76050  0.50500  0.05010  Biso   1.000  H
  C24      1.0000 0.84430  0.54440  0.99160  Biso   1.000  C
  H14      1.0000 0.88840  0.53880  0.03160  Biso   1.000  H
  C25      1.0000 0.85520  0.57200  0.92230  Biso   1.000  C
  C26      1.0000 0.78940  0.58010  0.86270  Biso   1.000  C
  H15      1.0000 0.79730  0.59830  0.81480  Biso   1.000  H
  C27      1.0000 0.71300  0.56170  0.87340  Biso   1.000  C
  H16      1.0000 0.66870  0.56770  0.83380  Biso   1.000  H
  C28      1.0000 0.93650  0.59490  0.91090  Biso   1.000  C
  C29      1.0000 0.27990  0.80280  0.18010  Biso   1.000  C
  C30      1.0000 0.19770  0.78260  0.19420  Biso   1.000  C
  C31      1.0000 0.13550  0.77350  0.13210  Biso   1.000  C
  H17      1.0000 0.14570  0.77990  0.08100  Biso   1.000  H
  C32      1.0000 0.05950  0.75550  0.14340  Biso   1.000  C
  H18      1.0000 0.01850  0.74870  0.10070  Biso   1.000  H
  C33      1.0000 0.04520  0.74770  0.21870  Biso   1.000  C
  C34      1.0000 0.10600  0.75710  0.28150  Biso   1.000  C
  H19      1.0000 0.09510  0.75210  0.33250  Biso   1.000  H
  C35      1.0000 0.18280  0.77380  0.26990  Biso   1.000  C
  H20      1.0000 0.22420  0.77910  0.31260  Biso   1.000  H
  C36      1.0000 0.96300  0.64400  0.27230  Biso   1.000  C
  C37      1.0000 0.96900  0.63450  0.35100  Biso   1.000  C
  H21      1.0000 0.95950  0.66900  0.38400  Biso   1.000  H
  C38      1.0000 0.98940  0.57270  0.38120  Biso   1.000  C
  H22      1.0000 0.99100  0.56550  0.43490  Biso   1.000  H
  C39      1.0000 0.00740  0.52100  0.33450  Biso   1.000  C
  C40      1.0000 0.99820  0.53020  0.25560  Biso   1.000  C
  H23      1.0000 0.00720  0.49540  0.22280  Biso   1.000  H
  C41      1.0000 0.97530  0.59180  0.22340  Biso   1.000  C
  H24      1.0000 0.96820  0.59790  0.16920  Biso   1.000  H
  C42      1.0000 0.04420  0.45970  0.37210  Biso   1.000  C
  Co2      1.0000 0.91355  0.35163  0.05860  Biso   1.000  Co
  Mn3      1.0000 0.03700  0.33233  0.25421  Biso   1.000  Mn
  Mn4      1.0000 0.14409  0.37452  0.44629  Biso   1.000  Mn
  S4       1.0000 0.95122  0.92926  0.16511  Biso   1.000  S
  S5       1.0000 0.89438  0.01411  0.54117  Biso   1.000  S
  S6       1.0000 0.55233  0.22467  0.26609  Biso   1.000  S
  O19      1.0000 0.65390  0.88870  0.36870  Biso   1.000  O
  O20      1.0000 0.51180  0.10570  0.52900  Biso   1.000  O
  O21      1.0000 0.91280  0.25120  0.05910  Biso   1.000  O
  O22      1.0000 0.01960  0.26310  0.34240  Biso   1.000  O
  O23      1.0000 0.00020  0.25780  0.16810  Biso   1.000  O
  O24      1.0000 0.58740  0.86230  0.25140  Biso   1.000  O
  O25      1.0000 0.43010  0.91550  0.16930  Biso   1.000  O
  O26      1.0000 0.16360  0.30623  0.26220  Biso   1.000  O
  O27      1.0000 0.55010  0.10350  0.65590  Biso   1.000  O
  O28      1.0000 0.21450  0.31510  0.38870  Biso   1.000  O
  O29      1.0000 0.06050  0.30140  0.46290  Biso   1.000  O
  O30      1.0000 0.44230  0.95560  0.05530  Biso   1.000  O
  O31      1.0000 0.94230  0.89810  0.09050  Biso   1.000  O
  O32      1.0000 0.01930  0.91380  0.22410  Biso   1.000  O
  O33      1.0000 0.88660  0.96554  0.48090  Biso   1.000  O
  O34      1.0000 0.94270  0.99980  0.61500  Biso   1.000  O
  O35      1.0000 0.60410  0.22060  0.33990  Biso   1.000  O
  O36      1.0000 0.57380  0.26638  0.20650  Biso   1.000  O
  C43      1.0000 0.95550  0.22550  0.11810  Biso   1.000  C
  C44      1.0000 0.95180  0.15170  0.12800  Biso   1.000  C
  C45      1.0000 0.91130  0.11070  0.07050  Biso   1.000  C
  H25      1.0000 0.88390  0.12880  0.02410  Biso   1.000  H
  C46      1.0000 0.91090  0.04310  0.08100  Biso   1.000  C
  H26      1.0000 0.88410  0.01590  0.04170  Biso   1.000  H
  C47      1.0000 0.95050  0.01640  0.15030  Biso   1.000  C
  C48      1.0000 0.98780  0.05630  0.21000  Biso   1.000  C
  H27      1.0000 0.01230  0.03810  0.25750  Biso   1.000  H
  C49      1.0000 0.98820  0.12430  0.19830  Biso   1.000  C
  H28      1.0000 0.01350  0.15150  0.23840  Biso   1.000  H
  C50      1.0000 0.86280  0.91500  0.20370  Biso   1.000  C
  C51      1.0000 0.79430  0.89180  0.15610  Biso   1.000  C
  H29      1.0000 0.79560  0.88300  0.10320  Biso   1.000  H
  C52      1.0000 0.72460  0.88180  0.18650  Biso   1.000  C
  H30      1.0000 0.67800  0.86680  0.15440  Biso   1.000  H
  C53      1.0000 0.72410  0.89410  0.26390  Biso   1.000  C
  C54      1.0000 0.79430  0.91540  0.31160  Biso   1.000  C
  H31      1.0000 0.79400  0.92190  0.36510  Biso   1.000  H
  C55      1.0000 0.86290  0.92670  0.28160  Biso   1.000  C
  H32      1.0000 0.90920  0.94210  0.31350  Biso   1.000  H
  C56      1.0000 0.64830  0.88070  0.29600  Biso   1.000  C
  C57      1.0000 0.02530  0.25990  0.41460  Biso   1.000  C
  C58      1.0000 0.99050  0.20030  0.44740  Biso   1.000  C
  C59      1.0000 0.94850  0.15340  0.39730  Biso   1.000  C
  H33      1.0000 0.94100  0.16040  0.34320  Biso   1.000  H
  C60      1.0000 0.91820  0.09720  0.42610  Biso   1.000  C
  H34      1.0000 0.89040  0.06620  0.39210  Biso   1.000  H
  C61      1.0000 0.92950  0.08780  0.50540  Biso   1.000  C
  C62      1.0000 0.97040  0.13420  0.55640  Biso   1.000  C
  H35      1.0000 0.97710  0.12750  0.61050  Biso   1.000  H
  C63      1.0000 0.00130  0.19060  0.52640  Biso   1.000  C
  H36      1.0000 0.02940  0.22150  0.56030  Biso   1.000  H
  C64      1.0000 0.79590  0.03440  0.55640  Biso   1.000  C
  C65      1.0000 0.73170  0.02460  0.49700  Biso   1.000  C
  H37      1.0000 0.73950  0.00500  0.44990  Biso   1.000  H
  C66      1.0000 0.65570  0.04440  0.50840  Biso   1.000  C
  H38      1.0000 0.61160  0.03880  0.46840  Biso   1.000  H
  C67      1.0000 0.64480  0.07200  0.57770  Biso   1.000  C
  C68      1.0000 0.71060  0.08010  0.63730  Biso   1.000  C
  H39      1.0000 0.70270  0.09830  0.68520  Biso   1.000  H
  C69      1.0000 0.78700  0.06170  0.62660  Biso   1.000  C
  H40      1.0000 0.83130  0.06770  0.66620  Biso   1.000  H
  C70      1.0000 0.56350  0.09490  0.58910  Biso   1.000  C
  C71      1.0000 0.22010  0.30280  0.31990  Biso   1.000  C
  C72      1.0000 0.30230  0.28260  0.30580  Biso   1.000  C
  C73      1.0000 0.36450  0.27350  0.36790  Biso   1.000  C
  H41      1.0000 0.35430  0.27990  0.41900  Biso   1.000  H
  C74      1.0000 0.44050  0.25550  0.35660  Biso   1.000  C
  H42      1.0000 0.48150  0.24870  0.39930  Biso   1.000  H
  C75      1.0000 0.45480  0.24770  0.28130  Biso   1.000  C
  C76      1.0000 0.39400  0.25710  0.21850  Biso   1.000  C
  H43      1.0000 0.40490  0.25210  0.16750  Biso   1.000  H
  C77      1.0000 0.31720  0.27380  0.23010  Biso   1.000  C
  H44      1.0000 0.27580  0.27910  0.18740  Biso   1.000  H
  C78      1.0000 0.53700  0.14400  0.22770  Biso   1.000  C
  C79      1.0000 0.53100  0.13450  0.14900  Biso   1.000  C
  H45      1.0000 0.54050  0.16900  0.11600  Biso   1.000  H
  C80      1.0000 0.51060  0.07270  0.11880  Biso   1.000  C
  H46      1.0000 0.50900  0.06550  0.06510  Biso   1.000  H
  C81      1.0000 0.49260  0.02100  0.16550  Biso   1.000  C
  C82      1.0000 0.50180  0.03020  0.24440  Biso   1.000  C
  H47      1.0000 0.49280  0.99540  0.27720  Biso   1.000  H
  C83      1.0000 0.52470  0.09180  0.27660  Biso   1.000  C
  H48      1.0000 0.53180  0.09790  0.33080  Biso   1.000  H
  C84      1.0000 0.45580  0.95970  0.12790  Biso   1.000  C
  Co3      1.0000 0.41355  0.14837  0.55860  Biso   1.000  Co
  Mn5      1.0000 0.53700  0.16767  0.75421  Biso   1.000  Mn
  Mn6      1.0000 0.64409  0.12548  0.94629  Biso   1.000  Mn
  S7       1.0000 0.45122  0.57074  0.66511  Biso   1.000  S
  S8       1.0000 0.39438  0.48589  0.04117  Biso   1.000  S
  S9       1.0000 0.05233  0.27533  0.76609  Biso   1.000  S
  O37      1.0000 0.15390  0.61130  0.86870  Biso   1.000  O
  O38      1.0000 0.01180  0.39430  0.02900  Biso   1.000  O
  O39      1.0000 0.41280  0.24880  0.55910  Biso   1.000  O
  O40      1.0000 0.51960  0.23690  0.84240  Biso   1.000  O
  O41      1.0000 0.50020  0.24220  0.66810  Biso   1.000  O
  O42      1.0000 0.08740  0.63770  0.75140  Biso   1.000  O
  O43      1.0000 0.93010  0.58450  0.66930  Biso   1.000  O
  O44      1.0000 0.66360  0.19377  0.76220  Biso   1.000  O
  O45      1.0000 0.05010  0.39650  0.15590  Biso   1.000  O
  O46      1.0000 0.71450  0.18490  0.88870  Biso   1.000  O
  O47      1.0000 0.56050  0.19860  0.96290  Biso   1.000  O
  O48      1.0000 0.94230  0.54440  0.55530  Biso   1.000  O
  O49      1.0000 0.44230  0.60190  0.59050  Biso   1.000  O
  O50      1.0000 0.51930  0.58620  0.72410  Biso   1.000  O
  O51      1.0000 0.38660  0.53446  0.98090  Biso   1.000  O
  O52      1.0000 0.44270  0.50020  0.11500  Biso   1.000  O
  O53      1.0000 0.10410  0.27940  0.83990  Biso   1.000  O
  O54      1.0000 0.07380  0.23362  0.70650  Biso   1.000  O
  C85      1.0000 0.45550  0.27450  0.61810  Biso   1.000  C
  C86      1.0000 0.45180  0.34830  0.62800  Biso   1.000  C
  C87      1.0000 0.41130  0.38930  0.57050  Biso   1.000  C
  H49      1.0000 0.38390  0.37120  0.52410  Biso   1.000  H
  C88      1.0000 0.41090  0.45690  0.58100  Biso   1.000  C
  H50      1.0000 0.38410  0.48410  0.54170  Biso   1.000  H
  C89      1.0000 0.45050  0.48360  0.65030  Biso   1.000  C
  C90      1.0000 0.48780  0.44370  0.71000  Biso   1.000  C
  H51      1.0000 0.51230  0.46190  0.75750  Biso   1.000  H
  C91      1.0000 0.48820  0.37570  0.69830  Biso   1.000  C
  H52      1.0000 0.51350  0.34850  0.73840  Biso   1.000  H
  C92      1.0000 0.36280  0.58500  0.70370  Biso   1.000  C
  C93      1.0000 0.29430  0.60820  0.65610  Biso   1.000  C
  H53      1.0000 0.29560  0.61700  0.60320  Biso   1.000  H
  C94      1.0000 0.22460  0.61820  0.68650  Biso   1.000  C
  H54      1.0000 0.17800  0.63320  0.65440  Biso   1.000  H
  C95      1.0000 0.22410  0.60590  0.76390  Biso   1.000  C
  C96      1.0000 0.29430  0.58460  0.81160  Biso   1.000  C
  H55      1.0000 0.29400  0.57810  0.86510  Biso   1.000  H
  C97      1.0000 0.36290  0.57330  0.78160  Biso   1.000  C
  H56      1.0000 0.40920  0.55790  0.81350  Biso   1.000  H
  C98      1.0000 0.14830  0.61930  0.79600  Biso   1.000  C
  C99      1.0000 0.52530  0.24010  0.91460  Biso   1.000  C
  C100     1.0000 0.49050  0.29970  0.94740  Biso   1.000  C
  C101     1.0000 0.44850  0.34660  0.89730  Biso   1.000  C
  H57      1.0000 0.44100  0.33960  0.84320  Biso   1.000  H
  C102     1.0000 0.41820  0.40280  0.92610  Biso   1.000  C
  H58      1.0000 0.39040  0.43380  0.89210  Biso   1.000  H
  C103     1.0000 0.42950  0.41220  0.00540  Biso   1.000  C
  C104     1.0000 0.47040  0.36580  0.05640  Biso   1.000  C
  H59      1.0000 0.47710  0.37250  0.11050  Biso   1.000  H
  C105     1.0000 0.50130  0.30940  0.02640  Biso   1.000  C
  H60      1.0000 0.52940  0.27850  0.06030  Biso   1.000  H
  C106     1.0000 0.29590  0.46560  0.05640  Biso   1.000  C
  C107     1.0000 0.23170  0.47540  0.99700  Biso   1.000  C
  H61      1.0000 0.23950  0.49500  0.94990  Biso   1.000  H
  C108     1.0000 0.15570  0.45560  0.00840  Biso   1.000  C
  H62      1.0000 0.11160  0.46120  0.96840  Biso   1.000  H
  C109     1.0000 0.14480  0.42800  0.07770  Biso   1.000  C
  C110     1.0000 0.21060  0.41990  0.13730  Biso   1.000  C
  H63      1.0000 0.20270  0.40170  0.18520  Biso   1.000  H
  C111     1.0000 0.28700  0.43830  0.12660  Biso   1.000  C
  H64      1.0000 0.33130  0.43230  0.16620  Biso   1.000  H
  C112     1.0000 0.06350  0.40510  0.08910  Biso   1.000  C
  C113     1.0000 0.72010  0.19720  0.81990  Biso   1.000  C
  C114     1.0000 0.80230  0.21740  0.80580  Biso   1.000  C
  C115     1.0000 0.86450  0.22650  0.86790  Biso   1.000  C
  H65      1.0000 0.85430  0.22010  0.91900  Biso   1.000  H
  C116     1.0000 0.94050  0.24450  0.85660  Biso   1.000  C
  H66      1.0000 0.98150  0.25130  0.89930  Biso   1.000  H
  C117     1.0000 0.95480  0.25230  0.78130  Biso   1.000  C
  C118     1.0000 0.89400  0.24290  0.71850  Biso   1.000  C
  H67      1.0000 0.90490  0.24790  0.66750  Biso   1.000  H
  C119     1.0000 0.81720  0.22620  0.73010  Biso   1.000  C
  H68      1.0000 0.77580  0.22090  0.68740  Biso   1.000  H
  C120     1.0000 0.03700  0.35600  0.72770  Biso   1.000  C
  C121     1.0000 0.03100  0.36550  0.64900  Biso   1.000  C
  H69      1.0000 0.04050  0.33100  0.61600  Biso   1.000  H
  C122     1.0000 0.01060  0.42730  0.61880  Biso   1.000  C
  H70      1.0000 0.00900  0.43450  0.56510  Biso   1.000  H
  C123     1.0000 0.99260  0.47900  0.66550  Biso   1.000  C
  C124     1.0000 0.00180  0.46980  0.74440  Biso   1.000  C
  H71      1.0000 0.99280  0.50460  0.77720  Biso   1.000  H
  C125     1.0000 0.02470  0.40820  0.77660  Biso   1.000  C
  H72      1.0000 0.03180  0.40210  0.83080  Biso   1.000  H
  C126     1.0000 0.95580  0.54030  0.62790  Biso   1.000  C
  Co4      1.0000 0.08645  0.64837  0.94140  Biso   1.000  Co
  Mn7      1.0000 0.96300  0.66767  0.74579  Biso   1.000  Mn
  Mn8      1.0000 0.85591  0.62548  0.55371  Biso   1.000  Mn
  S10      1.0000 0.04878  0.07074  0.83489  Biso   1.000  S
  S11      1.0000 0.10562  0.98589  0.45883  Biso   1.000  S
  S12      1.0000 0.44767  0.77533  0.73391  Biso   1.000  S
  O55      1.0000 0.34610  0.11130  0.63130  Biso   1.000  O
  O56      1.0000 0.48820  0.89430  0.47100  Biso   1.000  O
  O57      1.0000 0.08720  0.74880  0.94090  Biso   1.000  O
  O58      1.0000 0.98040  0.73690  0.65760  Biso   1.000  O
  O59      1.0000 0.99980  0.74220  0.83190  Biso   1.000  O
  O60      1.0000 0.41260  0.13770  0.74860  Biso   1.000  O
  O61      1.0000 0.56990  0.08450  0.83070  Biso   1.000  O
  O62      1.0000 0.83640  0.69377  0.73780  Biso   1.000  O
  O63      1.0000 0.44990  0.89650  0.34410  Biso   1.000  O
  O64      1.0000 0.78550  0.68490  0.61130  Biso   1.000  O
  O65      1.0000 0.93950  0.69860  0.53710  Biso   1.000  O
  O66      1.0000 0.55770  0.04440  0.94470  Biso   1.000  O
  O67      1.0000 0.05770  0.10190  0.90950  Biso   1.000  O
  O68      1.0000 0.98070  0.08620  0.77590  Biso   1.000  O
  O69      1.0000 0.11340  0.03446  0.51910  Biso   1.000  O
  O70      1.0000 0.05730  0.00020  0.38500  Biso   1.000  O
  O71      1.0000 0.39590  0.77940  0.66010  Biso   1.000  O
  O72      1.0000 0.42620  0.73362  0.79350  Biso   1.000  O
  C127     1.0000 0.04450  0.77450  0.88190  Biso   1.000  C
  C128     1.0000 0.04820  0.84830  0.87200  Biso   1.000  C
  C129     1.0000 0.08870  0.88930  0.92950  Biso   1.000  C
  H73      1.0000 0.11610  0.87120  0.97590  Biso   1.000  H
  C130     1.0000 0.08910  0.95690  0.91900  Biso   1.000  C
  H74      1.0000 0.11590  0.98410  0.95830  Biso   1.000  H
  C131     1.0000 0.04950  0.98360  0.84970  Biso   1.000  C
  C132     1.0000 0.01220  0.94370  0.79000  Biso   1.000  C
  H75      1.0000 0.98770  0.96190  0.74250  Biso   1.000  H
  C133     1.0000 0.01180  0.87570  0.80170  Biso   1.000  C
  H76      1.0000 0.98650  0.84850  0.76160  Biso   1.000  H
  C134     1.0000 0.13720  0.08500  0.79630  Biso   1.000  C
  C135     1.0000 0.20570  0.10820  0.84390  Biso   1.000  C
  H77      1.0000 0.20440  0.11700  0.89680  Biso   1.000  H
  C136     1.0000 0.27540  0.11820  0.81350  Biso   1.000  C
  H78      1.0000 0.32200  0.13320  0.84560  Biso   1.000  H
  C137     1.0000 0.27590  0.10590  0.73610  Biso   1.000  C
  C138     1.0000 0.20570  0.08460  0.68840  Biso   1.000  C
  H79      1.0000 0.20600  0.07810  0.63490  Biso   1.000  H
  C139     1.0000 0.13710  0.07330  0.71840  Biso   1.000  C
  H80      1.0000 0.09080  0.05790  0.68650  Biso   1.000  H
  C140     1.0000 0.35170  0.11930  0.70400  Biso   1.000  C
  C141     1.0000 0.97470  0.74010  0.58540  Biso   1.000  C
  C142     1.0000 0.00950  0.79970  0.55260  Biso   1.000  C
  C143     1.0000 0.05150  0.84660  0.60270  Biso   1.000  C
  H81      1.0000 0.05900  0.83960  0.65680  Biso   1.000  H
  C144     1.0000 0.08180  0.90280  0.57390  Biso   1.000  C
  H82      1.0000 0.10960  0.93380  0.60790  Biso   1.000  H
  C145     1.0000 0.07050  0.91220  0.49460  Biso   1.000  C
  C146     1.0000 0.02960  0.86580  0.44360  Biso   1.000  C
  H83      1.0000 0.02290  0.87250  0.38950  Biso   1.000  H
  C147     1.0000 0.99870  0.80940  0.47360  Biso   1.000  C
  H84      1.0000 0.97060  0.77850  0.43970  Biso   1.000  H
  C148     1.0000 0.20410  0.96560  0.44360  Biso   1.000  C
  C149     1.0000 0.26830  0.97540  0.50300  Biso   1.000  C
  H85      1.0000 0.26050  0.99500  0.55010  Biso   1.000  H
  C150     1.0000 0.34430  0.95560  0.49160  Biso   1.000  C
  H86      1.0000 0.38840  0.96120  0.53160  Biso   1.000  H
  C151     1.0000 0.35520  0.92800  0.42230  Biso   1.000  C
  C152     1.0000 0.28940  0.91990  0.36270  Biso   1.000  C
  H87      1.0000 0.29730  0.90170  0.31480  Biso   1.000  H
  C153     1.0000 0.21300  0.93830  0.37340  Biso   1.000  C
  H88      1.0000 0.16870  0.93230  0.33380  Biso   1.000  H
  C154     1.0000 0.43650  0.90510  0.41090  Biso   1.000  C
  C155     1.0000 0.77990  0.69720  0.68010  Biso   1.000  C
  C156     1.0000 0.69770  0.71740  0.69420  Biso   1.000  C
  C157     1.0000 0.63550  0.72650  0.63210  Biso   1.000  C
  H89      1.0000 0.64570  0.72010  0.58100  Biso   1.000  H
  C158     1.0000 0.55950  0.74450  0.64340  Biso   1.000  C
  H90      1.0000 0.51850  0.75130  0.60070  Biso   1.000  H
  C159     1.0000 0.54520  0.75230  0.71870  Biso   1.000  C
  C160     1.0000 0.60600  0.74290  0.78150  Biso   1.000  C
  H91      1.0000 0.59510  0.74790  0.83250  Biso   1.000  H
  C161     1.0000 0.68280  0.72620  0.76990  Biso   1.000  C
  H92      1.0000 0.72420  0.72090  0.81260  Biso   1.000  H
  C162     1.0000 0.46300  0.85600  0.77230  Biso   1.000  C
  C163     1.0000 0.46900  0.86550  0.85100  Biso   1.000  C
  H93      1.0000 0.45950  0.83100  0.88400  Biso   1.000  H
  C164     1.0000 0.48940  0.92730  0.88120  Biso   1.000  C
  H94      1.0000 0.49100  0.93450  0.93490  Biso   1.000  H
  C165     1.0000 0.50740  0.97900  0.83450  Biso   1.000  C
  C166     1.0000 0.49820  0.96980  0.75560  Biso   1.000  C
  H95      1.0000 0.50720  0.00460  0.72280  Biso   1.000  H
  C167     1.0000 0.47530  0.90820  0.72340  Biso   1.000  C
  H96      1.0000 0.46820  0.90210  0.66920  Biso   1.000  H
  C168     1.0000 0.54420  0.04030  0.87210  Biso   1.000  C
