data_image0
_cell_length_a       11.6384
_cell_length_b       21.052
_cell_length_c       24.247
_cell_angle_alpha    114.959
_cell_angle_beta     102.95
_cell_angle_gamma    92.406

_symmetry_space_group_name_H-M    "P 1"
_symmetry_int_tables_number       1

loop_
  _symmetry_equiv_pos_as_xyz
  'x, y, z'

loop_
  _atom_site_label
  _atom_site_occupancy
  _atom_site_fract_x
  _atom_site_fract_y
  _atom_site_fract_z
  _atom_site_thermal_displace_type
  _atom_site_B_iso_or_equiv
  _atom_site_type_symbol
  Mn1      1.0000 0.42036  0.17038  0.34079  Biso   1.000  Mn
  Mn2      1.0000 0.66444  0.23569  0.29297  Biso   1.000  Mn
  Mn3      1.0000 0.12852  0.05723  0.29299  Biso   1.000  Mn
  Mn4      1.0000 0.87264  0.12270  0.24541  Biso   1.000  Mn
  S1       1.0000 0.84310  0.46766  0.70245  Biso   1.000  S
  S2       1.0000 0.34519  0.78946  0.08094  Biso   1.000  S
  S3       1.0000 0.64070  0.76506  0.29748  Biso   1.000  S
  S4       1.0000 0.23579  0.29147  0.08100  Biso   1.000  S
  O1       1.0000 0.58220  0.21120  0.41290  Biso   1.000  O
  O2       1.0000 0.66910  0.79850  0.58690  Biso   1.000  O
  O3       1.0000 0.42800  0.06620  0.33573  Biso   1.000  O
  O4       1.0000 0.59200  0.73050  0.66402  Biso   1.000  O
  O5       1.0000 0.24400  0.12251  0.26355  Biso   1.000  O
  O6       1.0000 0.51870  0.14077  0.26379  Biso   1.000  O
  O7       1.0000 0.71310  0.27110  0.39004  Biso   1.000  O
  O8       1.0000 0.46010  0.69530  0.70373  Biso   1.000  O
  O9       1.0000 0.34220  0.78390  0.80114  Biso   1.000  O
  O10      1.0000 0.69380  0.10920  0.25592  Biso   1.000  O
  O11      1.0000 0.82290  0.88170  0.61014  Biso   1.000  O
  O12      1.0000 0.25600  0.99080  0.29612  Biso   1.000  O
  O13      1.0000 0.95820  0.01760  0.80130  Biso   1.000  O
  O14      1.0000 0.06230  0.14680  0.25585  Biso   1.000  O
  O15      1.0000 0.19000  0.84040  0.82249  Biso   1.000  O
  O16      1.0000 0.13200  0.98140  0.82238  Biso   1.000  O
  O17      1.0000 0.96960  0.49580  0.71610  Biso   1.000  O
  O18      1.0000 0.80500  0.43870  0.74000  Biso   1.000  O
  O19      1.0000 0.43050  0.74280  0.08515  Biso   1.000  O
  O20      1.0000 0.23040  0.77910  0.09180  Biso   1.000  O
  O21      1.0000 0.75240  0.77870  0.28370  Biso   1.000  O
  O22      1.0000 0.56580  0.69810  0.25920  Biso   1.000  O
  O23      1.0000 0.36090  0.31240  0.09177  Biso   1.000  O
  O24      1.0000 0.15450  0.34230  0.08512  Biso   1.000  O
  C1       1.0000 0.66740  0.26050  0.42750  Biso   1.000  C
  C2       1.0000 0.71800  0.30710  0.49670  Biso   1.000  C
  C3       1.0000 0.81060  0.36250  0.51690  Biso   1.000  C
  H1       1.0000 0.84560  0.36810  0.48800  Biso   1.000  H
  C4       1.0000 0.85020  0.40940  0.58050  Biso   1.000  C
  H2       1.0000 0.91210  0.44630  0.59370  Biso   1.000  H
  C5       1.0000 0.80120  0.40290  0.62390  Biso   1.000  C
  C6       1.0000 0.71040  0.34700  0.60400  Biso   1.000  C
  H3       1.0000 0.67680  0.34130  0.63330  Biso   1.000  H
  C7       1.0000 0.66950  0.29970  0.54080  Biso   1.000  C
  H4       1.0000 0.60850  0.26240  0.52790  Biso   1.000  H
  C8       1.0000 0.75640  0.53360  0.70090  Biso   1.000  C
  C9       1.0000 0.80480  0.58590  0.68420  Biso   1.000  C
  H5       1.0000 0.88050  0.58630  0.67760  Biso   1.000  H
  C10      1.0000 0.73540  0.63360  0.67860  Biso   1.000  C
  H6       1.0000 0.76330  0.66630  0.66640  Biso   1.000  H
  C11      1.0000 0.62600  0.63590  0.69020  Biso   1.000  C
  C12      1.0000 0.58510  0.58780  0.70660  Biso   1.000  C
  H7       1.0000 0.51120  0.58950  0.71550  Biso   1.000  H
  C13      1.0000 0.65170  0.53490  0.71090  Biso   1.000  C
  H8       1.0000 0.62050  0.50100  0.72090  Biso   1.000  H
  C14      1.0000 0.55390  0.69090  0.68470  Biso   1.000  C
  C15      1.0000 0.58230  0.09250  0.24300  Biso   1.000  C
  C16      1.0000 0.52230  0.01680  0.20540  Biso   1.000  C
  C17      1.0000 0.40170  0.00050  0.18750  Biso   1.000  C
  H9       1.0000 0.35540  0.03640  0.19920  Biso   1.000  H
  C18      1.0000 0.34710  0.93050  0.15190  Biso   1.000  C
  H10      1.0000 0.26450  0.91940  0.14140  Biso   1.000  H
  C19      1.0000 0.41480  0.87740  0.13190  Biso   1.000  C
  C20      1.0000 0.53990  0.89450  0.14940  Biso   1.000  C
  H11      1.0000 0.58650  0.85880  0.13670  Biso   1.000  H
  C21      1.0000 0.59210  0.96280  0.18470  Biso   1.000  C
  H12      1.0000 0.67460  0.97420  0.19540  Biso   1.000  H
  C22      1.0000 0.32150  0.78790  0.00540  Biso   1.000  C
  C23      1.0000 0.22690  0.82100  0.98740  Biso   1.000  C
  H13      1.0000 0.17560  0.83930  0.01280  Biso   1.000  H
  C24      1.0000 0.21280  0.82540  0.93240  Biso   1.000  C
  H14      1.0000 0.14970  0.84610  0.91960  Biso   1.000  H
  C25      1.0000 0.28980  0.80000  0.89410  Biso   1.000  C
  C26      1.0000 0.38070  0.76650  0.91220  Biso   1.000  C
  H15      1.0000 0.43100  0.74730  0.88650  Biso   1.000  H
  C27      1.0000 0.39620  0.76160  0.96830  Biso   1.000  C
  H16      1.0000 0.45840  0.74020  0.98090  Biso   1.000  H
  C28      1.0000 0.27280  0.80750  0.83360  Biso   1.000  C
  C29      1.0000 0.36830  0.00630  0.31500  Biso   1.000  C
  C30      1.0000 0.43540  0.94560  0.30920  Biso   1.000  C
  C31      1.0000 0.37850  0.88200  0.29470  Biso   1.000  C
  H17      1.0000 0.29620  0.87540  0.28820  Biso   1.000  H
  C32      1.0000 0.44060  0.82450  0.28890  Biso   1.000  C
  H18      1.0000 0.39890  0.78030  0.27760  Biso   1.000  H
  C33      1.0000 0.55570  0.83300  0.29930  Biso   1.000  C
  C34      1.0000 0.62000  0.90100  0.31520  Biso   1.000  C
  H19      1.0000 0.70230  0.90790  0.32140  Biso   1.000  H
  C35      1.0000 0.55670  0.95400  0.32070  Biso   1.000  C
  H20      1.0000 0.59740  0.99880  0.33290  Biso   1.000  H
  C36      1.0000 0.67680  0.77940  0.37710  Biso   1.000  C
  C37      1.0000 0.60670  0.74270  0.39640  Biso   1.000  C
  H21      1.0000 0.54460  0.70730  0.36680  Biso   1.000  H
  C38      1.0000 0.62780  0.75810  0.45830  Biso   1.000  C
  H22      1.0000 0.57940  0.73350  0.47080  Biso   1.000  H
  C39      1.0000 0.72120  0.81020  0.50310  Biso   1.000  C
  C40      1.0000 0.79370  0.84570  0.48270  Biso   1.000  C
  H23      1.0000 0.85720  0.88050  0.51170  Biso   1.000  H
  C41      1.0000 0.77080  0.82900  0.42030  Biso   1.000  C
  H24      1.0000 0.82030  0.85190  0.40680  Biso   1.000  H
  C42      1.0000 0.74040  0.83350  0.57290  Biso   1.000  C
  C43      1.0000 0.16140  0.15150  0.24370  Biso   1.000  C
  C44      1.0000 0.18360  0.18830  0.20470  Biso   1.000  C
  C45      1.0000 0.09270  0.22170  0.18440  Biso   1.000  C
  H25      1.0000 0.02070  0.22070  0.19490  Biso   1.000  H
  C46      1.0000 0.11070  0.25530  0.14950  Biso   1.000  C
  H26      1.0000 0.05200  0.27870  0.13690  Biso   1.000  H
  C47      1.0000 0.21690  0.25480  0.13240  Biso   1.000  C
  C48      1.0000 0.30350  0.22130  0.15210  Biso   1.000  C
  H27      1.0000 0.37540  0.22160  0.14140  Biso   1.000  H
  C49      1.0000 0.28570  0.18740  0.18740  Biso   1.000  C
  H28      1.0000 0.34440  0.16370  0.19950  Biso   1.000  H
  C50      1.0000 0.18430  0.21740  0.00560  Biso   1.000  C
  C51      1.0000 0.07090  0.20650  0.96850  Biso   1.000  C
  H29      1.0000 0.02080  0.24010  0.98090  Biso   1.000  H
  C52      1.0000 0.03130  0.14530  0.91230  Biso   1.000  C
  H30      1.0000 0.95510  0.13830  0.88640  Biso   1.000  H
  C53      1.0000 0.10500  0.09440  0.89470  Biso   1.000  C
  C54      1.0000 0.21990  0.10660  0.93200  Biso   1.000  C
  H31      1.0000 0.27010  0.07320  0.91920  Biso   1.000  H
  C55      1.0000 0.26050  0.16600  0.98630  Biso   1.000  C
  H32      1.0000 0.33790  0.17330  0.01120  Biso   1.000  H
  C56      1.0000 0.06140  0.02560  0.83380  Biso   1.000  C
  Mn5      1.0000 0.57964  0.82962  0.65921  Biso   1.000  Mn
  Mn6      1.0000 0.33556  0.76431  0.70703  Biso   1.000  Mn
  Mn7      1.0000 0.87148  0.94277  0.70701  Biso   1.000  Mn
  Mn8      1.0000 0.12736  0.87730  0.75459  Biso   1.000  Mn
  S5       1.0000 0.15690  0.53234  0.29755  Biso   1.000  S
  S6       1.0000 0.65481  0.21054  0.91906  Biso   1.000  S
  S7       1.0000 0.35930  0.23494  0.70252  Biso   1.000  S
  S8       1.0000 0.76421  0.70853  0.91900  Biso   1.000  S
  O25      1.0000 0.41780  0.78880  0.58710  Biso   1.000  O
  O26      1.0000 0.33090  0.20150  0.41310  Biso   1.000  O
  O27      1.0000 0.57200  0.93380  0.66427  Biso   1.000  O
  O28      1.0000 0.40800  0.26950  0.33598  Biso   1.000  O
  O29      1.0000 0.75600  0.87749  0.73645  Biso   1.000  O
  O30      1.0000 0.48130  0.85923  0.73621  Biso   1.000  O
  O31      1.0000 0.28690  0.72890  0.60996  Biso   1.000  O
  O32      1.0000 0.53990  0.30470  0.29627  Biso   1.000  O
  O33      1.0000 0.65780  0.21610  0.19886  Biso   1.000  O
  O34      1.0000 0.30620  0.89080  0.74408  Biso   1.000  O
  O35      1.0000 0.17710  0.11830  0.38986  Biso   1.000  O
  O36      1.0000 0.74400  0.00920  0.70388  Biso   1.000  O
  O37      1.0000 0.04180  0.98240  0.19870  Biso   1.000  O
  O38      1.0000 0.93770  0.85320  0.74415  Biso   1.000  O
  O39      1.0000 0.81000  0.15960  0.17751  Biso   1.000  O
  O40      1.0000 0.86800  0.01860  0.17762  Biso   1.000  O
  O41      1.0000 0.03040  0.50420  0.28390  Biso   1.000  O
  O42      1.0000 0.19500  0.56130  0.26000  Biso   1.000  O
  O43      1.0000 0.56950  0.25720  0.91485  Biso   1.000  O
  O44      1.0000 0.76960  0.22090  0.90820  Biso   1.000  O
  O45      1.0000 0.24760  0.22130  0.71630  Biso   1.000  O
  O46      1.0000 0.43420  0.30190  0.74080  Biso   1.000  O
  O47      1.0000 0.63910  0.68760  0.90823  Biso   1.000  O
  O48      1.0000 0.84550  0.65770  0.91488  Biso   1.000  O
  C57      1.0000 0.33260  0.73950  0.57250  Biso   1.000  C
  C58      1.0000 0.28200  0.69290  0.50330  Biso   1.000  C
  C59      1.0000 0.18940  0.63750  0.48310  Biso   1.000  C
  H33      1.0000 0.15440  0.63190  0.51200  Biso   1.000  H
  C60      1.0000 0.14980  0.59060  0.41950  Biso   1.000  C
  H34      1.0000 0.08790  0.55370  0.40630  Biso   1.000  H
  C61      1.0000 0.19880  0.59710  0.37610  Biso   1.000  C
  C62      1.0000 0.28960  0.65300  0.39600  Biso   1.000  C
  H35      1.0000 0.32320  0.65870  0.36670  Biso   1.000  H
  C63      1.0000 0.33050  0.70030  0.45920  Biso   1.000  C
  H36      1.0000 0.39150  0.73760  0.47210  Biso   1.000  H
  C64      1.0000 0.24360  0.46640  0.29910  Biso   1.000  C
  C65      1.0000 0.19520  0.41410  0.31580  Biso   1.000  C
  H37      1.0000 0.11950  0.41370  0.32240  Biso   1.000  H
  C66      1.0000 0.26460  0.36640  0.32140  Biso   1.000  C
  H38      1.0000 0.23670  0.33370  0.33360  Biso   1.000  H
  C67      1.0000 0.37400  0.36410  0.30980  Biso   1.000  C
  C68      1.0000 0.41490  0.41220  0.29340  Biso   1.000  C
  H39      1.0000 0.48880  0.41050  0.28450  Biso   1.000  H
  C69      1.0000 0.34830  0.46510  0.28910  Biso   1.000  C
  H40      1.0000 0.37950  0.49900  0.27910  Biso   1.000  H
  C70      1.0000 0.44610  0.30910  0.31530  Biso   1.000  C
  C71      1.0000 0.41770  0.90750  0.75700  Biso   1.000  C
  C72      1.0000 0.47770  0.98320  0.79460  Biso   1.000  C
  C73      1.0000 0.59830  0.99950  0.81250  Biso   1.000  C
  H41      1.0000 0.64460  0.96360  0.80080  Biso   1.000  H
  C74      1.0000 0.65290  0.06950  0.84810  Biso   1.000  C
  H42      1.0000 0.73550  0.08060  0.85860  Biso   1.000  H
  C75      1.0000 0.58520  0.12260  0.86810  Biso   1.000  C
  C76      1.0000 0.46010  0.10550  0.85060  Biso   1.000  C
  H43      1.0000 0.41350  0.14120  0.86330  Biso   1.000  H
  C77      1.0000 0.40790  0.03720  0.81530  Biso   1.000  C
  H44      1.0000 0.32540  0.02580  0.80460  Biso   1.000  H
  C78      1.0000 0.67850  0.21210  0.99460  Biso   1.000  C
  C79      1.0000 0.77310  0.17900  0.01260  Biso   1.000  C
  H45      1.0000 0.82440  0.16070  0.98720  Biso   1.000  H
  C80      1.0000 0.78720  0.17460  0.06760  Biso   1.000  C
  H46      1.0000 0.85030  0.15390  0.08040  Biso   1.000  H
  C81      1.0000 0.71020  0.20000  0.10590  Biso   1.000  C
  C82      1.0000 0.61930  0.23350  0.08780  Biso   1.000  C
  H47      1.0000 0.56900  0.25270  0.11350  Biso   1.000  H
  C83      1.0000 0.60380  0.23840  0.03170  Biso   1.000  C
  H48      1.0000 0.54160  0.25980  0.01910  Biso   1.000  H
  C84      1.0000 0.72720  0.19250  0.16640  Biso   1.000  C
  C85      1.0000 0.63170  0.99370  0.68500  Biso   1.000  C
  C86      1.0000 0.56460  0.05440  0.69080  Biso   1.000  C
  C87      1.0000 0.62150  0.11800  0.70530  Biso   1.000  C
  H49      1.0000 0.70380  0.12460  0.71180  Biso   1.000  H
  C88      1.0000 0.55940  0.17550  0.71110  Biso   1.000  C
  H50      1.0000 0.60110  0.21970  0.72240  Biso   1.000  H
  C89      1.0000 0.44430  0.16700  0.70070  Biso   1.000  C
  C90      1.0000 0.38000  0.09900  0.68480  Biso   1.000  C
  H51      1.0000 0.29770  0.09210  0.67860  Biso   1.000  H
  C91      1.0000 0.44330  0.04600  0.67930  Biso   1.000  C
  H52      1.0000 0.40260  0.00120  0.66710  Biso   1.000  H
  C92      1.0000 0.32320  0.22060  0.62290  Biso   1.000  C
  C93      1.0000 0.39330  0.25730  0.60360  Biso   1.000  C
  H53      1.0000 0.45540  0.29270  0.63320  Biso   1.000  H
  C94      1.0000 0.37220  0.24190  0.54170  Biso   1.000  C
  H54      1.0000 0.42060  0.26650  0.52920  Biso   1.000  H
  C95      1.0000 0.27880  0.18980  0.49690  Biso   1.000  C
  C96      1.0000 0.20630  0.15430  0.51730  Biso   1.000  C
  H55      1.0000 0.14280  0.11950  0.48830  Biso   1.000  H
  C97      1.0000 0.22920  0.17100  0.57970  Biso   1.000  C
  H56      1.0000 0.17970  0.14810  0.59320  Biso   1.000  H
  C98      1.0000 0.25960  0.16650  0.42710  Biso   1.000  C
  C99      1.0000 0.83860  0.84850  0.75630  Biso   1.000  C
  C100     1.0000 0.81640  0.81170  0.79530  Biso   1.000  C
  C101     1.0000 0.90730  0.77830  0.81560  Biso   1.000  C
  H57      1.0000 0.97930  0.77930  0.80510  Biso   1.000  H
  C102     1.0000 0.88930  0.74470  0.85050  Biso   1.000  C
  H58      1.0000 0.94800  0.72130  0.86310  Biso   1.000  H
  C103     1.0000 0.78310  0.74520  0.86760  Biso   1.000  C
  C104     1.0000 0.69650  0.77870  0.84790  Biso   1.000  C
  H59      1.0000 0.62460  0.77840  0.85860  Biso   1.000  H
  C105     1.0000 0.71430  0.81260  0.81260  Biso   1.000  C
  H60      1.0000 0.65560  0.83630  0.80050  Biso   1.000  H
  C106     1.0000 0.81570  0.78260  0.99440  Biso   1.000  C
  C107     1.0000 0.92910  0.79350  0.03150  Biso   1.000  C
  H61      1.0000 0.97920  0.75990  0.01910  Biso   1.000  H
  C108     1.0000 0.96870  0.85470  0.08770  Biso   1.000  C
  H62      1.0000 0.04490  0.86170  0.11360  Biso   1.000  H
  C109     1.0000 0.89500  0.90560  0.10530  Biso   1.000  C
  C110     1.0000 0.78010  0.89340  0.06800  Biso   1.000  C
  H63      1.0000 0.72990  0.92680  0.08080  Biso   1.000  H
  C111     1.0000 0.73950  0.83400  0.01370  Biso   1.000  C
  H64      1.0000 0.66210  0.82670  0.98880  Biso   1.000  H
  C112     1.0000 0.93860  0.97440  0.16620  Biso   1.000  C
