data_image0
_cell_length_a       16.7094
_cell_length_b       20.2857
_cell_length_c       17.1936
_cell_angle_alpha    90
_cell_angle_beta     99.178
_cell_angle_gamma    90

_symmetry_space_group_name_H-M    "P 1"
_symmetry_int_tables_number       1

loop_
  _symmetry_equiv_pos_as_xyz
  'x, y, z'

loop_
  _atom_site_label
  _atom_site_occupancy
  _atom_site_fract_x
  _atom_site_fract_y
  _atom_site_fract_z
  _atom_site_thermal_displace_type
  _atom_site_B_iso_or_equiv
  _atom_site_type_symbol
  Mn1      1.0000 0.46316  0.83389  0.74731  Biso   1.000  Mn
  Mn2      1.0000 0.35661  0.87850  0.55327  Biso   1.000  Mn
  Mn3      1.0000 0.58457  0.85213  0.94379  Biso   1.000  Mn
  S1       1.0000 0.55321  0.22614  0.77103  Biso   1.000  S
  S2       1.0000 0.54774  0.42940  0.83559  Biso   1.000  S
  S3       1.0000 0.10476  0.98467  0.95924  Biso   1.000  S
  O1       1.0000 0.50250  0.75675  0.82820  Biso   1.000  O
  O2       1.0000 0.98100  0.73223  0.15480  Biso   1.000  O
  O3       1.0000 0.42860  0.91849  0.67490  Biso   1.000  O
  O4       1.0000 0.91370  0.36660  0.75020  Biso   1.000  O
  O5       1.0000 0.16339  0.30696  0.75982  Biso   1.000  O
  O6       1.0000 0.45580  0.89233  0.85570  Biso   1.000  O
  O7       1.0000 0.21150  0.31680  0.88749  Biso   1.000  O
  O8       1.0000 0.94010  0.69518  0.03350  Biso   1.000  O
  O9       1.0000 0.44580  0.95736  0.56050  Biso   1.000  O
  O10      1.0000 0.84670  0.38884  0.63176  Biso   1.000  O
  O11      1.0000 0.57930  0.75038  0.94290  Biso   1.000  O
  O12      1.0000 0.48910  0.89810  0.98350  Biso   1.000  O
  O13      1.0000 0.57640  0.26706  0.71060  Biso   1.000  O
  O14      1.0000 0.60330  0.22335  0.84590  Biso   1.000  O
  O15      1.0000 0.48100  0.41315  0.77490  Biso   1.000  O
  O16      1.0000 0.55580  0.39817  0.91060  Biso   1.000  O
  O17      1.0000 0.10960  0.03232  0.02070  Biso   1.000  O
  O18      1.0000 0.05840  0.99903  0.88440  Biso   1.000  O
  C1       1.0000 0.45670  0.96150  0.63380  Biso   1.000  C
  C2       1.0000 0.49440  0.02270  0.67140  Biso   1.000  C
  C3       1.0000 0.50200  0.03300  0.75100  Biso   1.000  C
  H1       1.0000 0.49190  0.99860  0.78390  Biso   1.000  H
  C4       1.0000 0.52460  0.09400  0.78260  Biso   1.000  C
  H2       1.0000 0.53050  0.10070  0.83670  Biso   1.000  H
  C5       1.0000 0.53850  0.14510  0.73340  Biso   1.000  C
  C6       1.0000 0.53550  0.13470  0.65480  Biso   1.000  C
  H3       1.0000 0.54730  0.16870  0.62210  Biso   1.000  H
  C7       1.0000 0.51460  0.07300  0.62430  Biso   1.000  C
  H4       1.0000 0.51410  0.06530  0.57090  Biso   1.000  H
  C8       1.0000 0.45530  0.24940  0.78430  Biso   1.000  C
  C9       1.0000 0.43870  0.25780  0.85910  Biso   1.000  C
  H5       1.0000 0.47900  0.25150  0.90250  Biso   1.000  H
  C10      1.0000 0.36180  0.27560  0.86920  Biso   1.000  C
  H6       1.0000 0.35030  0.28190  0.91990  Biso   1.000  H
  C11      1.0000 0.30120  0.28410  0.80540  Biso   1.000  C
  C12      1.0000 0.31890  0.27500  0.73060  Biso   1.000  C
  H7       1.0000 0.27850  0.27990  0.68710  Biso   1.000  H
  C13      1.0000 0.39600  0.25860  0.72030  Biso   1.000  C
  H8       1.0000 0.40820  0.25380  0.66970  Biso   1.000  H
  C14      1.0000 0.21840  0.30410  0.81840  Biso   1.000  C
  C15      1.0000 0.54200  0.72490  0.88160  Biso   1.000  C
  C16      1.0000 0.54470  0.65090  0.87240  Biso   1.000  C
  C17      1.0000 0.51320  0.62370  0.80090  Biso   1.000  C
  H9       1.0000 0.49050  0.65090  0.75970  Biso   1.000  H
  C18      1.0000 0.51480  0.55620  0.78960  Biso   1.000  C
  H10      1.0000 0.49460  0.53820  0.74060  Biso   1.000  H
  C19      1.0000 0.54630  0.51620  0.85050  Biso   1.000  C
  C20      1.0000 0.57950  0.54230  0.92190  Biso   1.000  C
  H11      1.0000 0.60230  0.51480  0.96280  Biso   1.000  H
  C21      1.0000 0.57890  0.61030  0.93250  Biso   1.000  C
  H12      1.0000 0.60170  0.62840  0.98070  Biso   1.000  H
  C22      1.0000 0.63750  0.41660  0.79750  Biso   1.000  C
  C23      1.0000 0.70560  0.39650  0.84610  Biso   1.000  C
  H13      1.0000 0.70450  0.38940  0.89940  Biso   1.000  H
  C24      1.0000 0.77550  0.38670  0.81590  Biso   1.000  C
  H14      1.0000 0.82250  0.37360  0.84880  Biso   1.000  H
  C25      1.0000 0.77680  0.39620  0.73730  Biso   1.000  C
  C26      1.0000 0.70660  0.41500  0.68900  Biso   1.000  C
  H15      1.0000 0.70680  0.42050  0.63530  Biso   1.000  H
  C27      1.0000 0.63690  0.42580  0.71900  Biso   1.000  C
  H16      1.0000 0.58990  0.43910  0.68640  Biso   1.000  H
  C28      1.0000 0.85250  0.38300  0.70450  Biso   1.000  C
  C29      1.0000 0.43930  0.90480  0.92190  Biso   1.000  C
  C30      1.0000 0.35650  0.92850  0.92830  Biso   1.000  C
  C31      1.0000 0.34280  0.95740  0.99720  Biso   1.000  C
  H17      1.0000 0.38590  0.96440  0.03780  Biso   1.000  H
  C32      1.0000 0.26610  0.97620  0.00640  Biso   1.000  C
  H18      1.0000 0.25660  0.99550  0.05320  Biso   1.000  H
  C33      1.0000 0.20380  0.96590  0.94570  Biso   1.000  C
  C34      1.0000 0.21620  0.93800  0.87560  Biso   1.000  C
  H19      1.0000 0.17310  0.93150  0.83500  Biso   1.000  H
  C35      1.0000 0.29280  0.92020  0.86690  Biso   1.000  C
  H20      1.0000 0.30250  0.90240  0.81950  Biso   1.000  H
  C36      1.0000 0.06990  0.91030  0.99370  Biso   1.000  C
  C37      1.0000 0.08150  0.89860  0.07320  Biso   1.000  C
  H21      1.0000 0.10910  0.92910  0.10790  Biso   1.000  H
  C38      1.0000 0.05230  0.84210  0.10100  Biso   1.000  C
  H22      1.0000 0.06090  0.83410  0.15500  Biso   1.000  H
  C39      1.0000 0.01000  0.79630  0.05050  Biso   1.000  C
  C40      1.0000 0.99910  0.80840  0.97030  Biso   1.000  C
  H23      1.0000 0.97150  0.77790  0.93560  Biso   1.000  H
  C41      1.0000 0.02880  0.86490  0.94150  Biso   1.000  C
  H24      1.0000 0.02140  0.87270  0.88750  Biso   1.000  H
  C42      1.0000 0.97490  0.73600  0.08230  Biso   1.000  C
  Mn4      1.0000 0.03684  0.33389  0.75269  Biso   1.000  Mn
  Mn5      1.0000 0.14339  0.37850  0.94673  Biso   1.000  Mn
  Mn6      1.0000 0.91543  0.35213  0.55621  Biso   1.000  Mn
  S4       1.0000 0.94679  0.72614  0.72897  Biso   1.000  S
  S5       1.0000 0.95226  0.92940  0.66441  Biso   1.000  S
  S6       1.0000 0.39524  0.48467  0.54076  Biso   1.000  S
  O19      1.0000 0.99750  0.25675  0.67180  Biso   1.000  O
  O20      1.0000 0.51900  0.23223  0.34520  Biso   1.000  O
  O21      1.0000 0.07140  0.41849  0.82510  Biso   1.000  O
  O22      1.0000 0.58630  0.86660  0.74980  Biso   1.000  O
  O23      1.0000 0.33661  0.80696  0.74018  Biso   1.000  O
  O24      1.0000 0.04420  0.39233  0.64430  Biso   1.000  O
  O25      1.0000 0.28850  0.81680  0.61251  Biso   1.000  O
  O26      1.0000 0.55990  0.19518  0.46650  Biso   1.000  O
  O27      1.0000 0.05420  0.45736  0.93950  Biso   1.000  O
  O28      1.0000 0.65330  0.88884  0.86824  Biso   1.000  O
  O29      1.0000 0.92070  0.25038  0.55710  Biso   1.000  O
  O30      1.0000 0.01090  0.39810  0.51650  Biso   1.000  O
  O31      1.0000 0.92360  0.76706  0.78940  Biso   1.000  O
  O32      1.0000 0.89670  0.72335  0.65410  Biso   1.000  O
  O33      1.0000 0.01900  0.91315  0.72510  Biso   1.000  O
  O34      1.0000 0.94420  0.89817  0.58940  Biso   1.000  O
  O35      1.0000 0.39040  0.53232  0.47930  Biso   1.000  O
  O36      1.0000 0.44160  0.49903  0.61560  Biso   1.000  O
  C43      1.0000 0.04330  0.46150  0.86620  Biso   1.000  C
  C44      1.0000 0.00560  0.52270  0.82860  Biso   1.000  C
  C45      1.0000 0.99800  0.53300  0.74900  Biso   1.000  C
  H25      1.0000 0.00810  0.49860  0.71610  Biso   1.000  H
  C46      1.0000 0.97540  0.59400  0.71740  Biso   1.000  C
  H26      1.0000 0.96950  0.60070  0.66330  Biso   1.000  H
  C47      1.0000 0.96150  0.64510  0.76660  Biso   1.000  C
  C48      1.0000 0.96450  0.63470  0.84520  Biso   1.000  C
  H27      1.0000 0.95270  0.66870  0.87790  Biso   1.000  H
  C49      1.0000 0.98540  0.57300  0.87570  Biso   1.000  C
  H28      1.0000 0.98590  0.56530  0.92910  Biso   1.000  H
  C50      1.0000 0.04470  0.74940  0.71570  Biso   1.000  C
  C51      1.0000 0.06130  0.75780  0.64090  Biso   1.000  C
  H29      1.0000 0.02100  0.75150  0.59750  Biso   1.000  H
  C52      1.0000 0.13820  0.77560  0.63080  Biso   1.000  C
  H30      1.0000 0.14970  0.78190  0.58010  Biso   1.000  H
  C53      1.0000 0.19880  0.78410  0.69460  Biso   1.000  C
  C54      1.0000 0.18110  0.77500  0.76940  Biso   1.000  C
  H31      1.0000 0.22150  0.77990  0.81290  Biso   1.000  H
  C55      1.0000 0.10400  0.75860  0.77970  Biso   1.000  C
  H32      1.0000 0.09180  0.75380  0.83030  Biso   1.000  H
  C56      1.0000 0.28160  0.80410  0.68160  Biso   1.000  C
  C57      1.0000 0.95800  0.22490  0.61840  Biso   1.000  C
  C58      1.0000 0.95530  0.15090  0.62760  Biso   1.000  C
  C59      1.0000 0.98680  0.12370  0.69910  Biso   1.000  C
  H33      1.0000 0.00950  0.15090  0.74030  Biso   1.000  H
  C60      1.0000 0.98520  0.05620  0.71040  Biso   1.000  C
  H34      1.0000 0.00540  0.03820  0.75940  Biso   1.000  H
  C61      1.0000 0.95370  0.01620  0.64950  Biso   1.000  C
  C62      1.0000 0.92050  0.04230  0.57810  Biso   1.000  C
  H35      1.0000 0.89770  0.01480  0.53720  Biso   1.000  H
  C63      1.0000 0.92110  0.11030  0.56750  Biso   1.000  C
  H36      1.0000 0.89830  0.12840  0.51930  Biso   1.000  H
  C64      1.0000 0.86250  0.91660  0.70250  Biso   1.000  C
  C65      1.0000 0.79440  0.89650  0.65390  Biso   1.000  C
  H37      1.0000 0.79550  0.88940  0.60060  Biso   1.000  H
  C66      1.0000 0.72450  0.88670  0.68410  Biso   1.000  C
  H38      1.0000 0.67750  0.87360  0.65120  Biso   1.000  H
  C67      1.0000 0.72320  0.89620  0.76270  Biso   1.000  C
  C68      1.0000 0.79340  0.91500  0.81100  Biso   1.000  C
  H39      1.0000 0.79320  0.92050  0.86470  Biso   1.000  H
  C69      1.0000 0.86310  0.92580  0.78100  Biso   1.000  C
  H40      1.0000 0.91010  0.93910  0.81360  Biso   1.000  H
  C70      1.0000 0.64750  0.88300  0.79550  Biso   1.000  C
  C71      1.0000 0.06070  0.40480  0.57810  Biso   1.000  C
  C72      1.0000 0.14350  0.42850  0.57170  Biso   1.000  C
  C73      1.0000 0.15720  0.45740  0.50280  Biso   1.000  C
  H41      1.0000 0.11410  0.46440  0.46220  Biso   1.000  H
  C74      1.0000 0.23390  0.47620  0.49360  Biso   1.000  C
  H42      1.0000 0.24340  0.49550  0.44680  Biso   1.000  H
  C75      1.0000 0.29620  0.46590  0.55430  Biso   1.000  C
  C76      1.0000 0.28380  0.43800  0.62440  Biso   1.000  C
  H43      1.0000 0.32690  0.43150  0.66500  Biso   1.000  H
  C77      1.0000 0.20720  0.42020  0.63310  Biso   1.000  C
  H44      1.0000 0.19750  0.40240  0.68050  Biso   1.000  H
  C78      1.0000 0.43010  0.41030  0.50630  Biso   1.000  C
  C79      1.0000 0.41850  0.39860  0.42680  Biso   1.000  C
  H45      1.0000 0.39090  0.42910  0.39210  Biso   1.000  H
  C80      1.0000 0.44770  0.34210  0.39900  Biso   1.000  C
  H46      1.0000 0.43910  0.33410  0.34500  Biso   1.000  H
  C81      1.0000 0.49000  0.29630  0.44950  Biso   1.000  C
  C82      1.0000 0.50090  0.30840  0.52970  Biso   1.000  C
  H47      1.0000 0.52850  0.27790  0.56440  Biso   1.000  H
  C83      1.0000 0.47120  0.36490  0.55850  Biso   1.000  C
  H48      1.0000 0.47860  0.37270  0.61250  Biso   1.000  H
  C84      1.0000 0.52510  0.23600  0.41770  Biso   1.000  C
  Mn7      1.0000 0.53684  0.16611  0.25269  Biso   1.000  Mn
  Mn8      1.0000 0.64339  0.12150  0.44673  Biso   1.000  Mn
  Mn9      1.0000 0.41543  0.14787  0.05621  Biso   1.000  Mn
  S7       1.0000 0.44679  0.77386  0.22897  Biso   1.000  S
  S8       1.0000 0.45226  0.57060  0.16441  Biso   1.000  S
  S9       1.0000 0.89524  0.01533  0.04076  Biso   1.000  S
  O37      1.0000 0.49750  0.24325  0.17180  Biso   1.000  O
  O38      1.0000 0.01900  0.26777  0.84520  Biso   1.000  O
  O39      1.0000 0.57140  0.08151  0.32510  Biso   1.000  O
  O40      1.0000 0.08630  0.63340  0.24980  Biso   1.000  O
  O41      1.0000 0.83661  0.69304  0.24018  Biso   1.000  O
  O42      1.0000 0.54420  0.10767  0.14430  Biso   1.000  O
  O43      1.0000 0.78850  0.68320  0.11251  Biso   1.000  O
  O44      1.0000 0.05990  0.30482  0.96650  Biso   1.000  O
  O45      1.0000 0.55420  0.04264  0.43950  Biso   1.000  O
  O46      1.0000 0.15330  0.61116  0.36824  Biso   1.000  O
  O47      1.0000 0.42070  0.24962  0.05710  Biso   1.000  O
  O48      1.0000 0.51090  0.10190  0.01650  Biso   1.000  O
  O49      1.0000 0.42360  0.73294  0.28940  Biso   1.000  O
  O50      1.0000 0.39670  0.77665  0.15410  Biso   1.000  O
  O51      1.0000 0.51900  0.58685  0.22510  Biso   1.000  O
  O52      1.0000 0.44420  0.60183  0.08940  Biso   1.000  O
  O53      1.0000 0.89040  0.96768  0.97930  Biso   1.000  O
  O54      1.0000 0.94160  0.00097  0.11560  Biso   1.000  O
  C85      1.0000 0.54330  0.03850  0.36620  Biso   1.000  C
  C86      1.0000 0.50560  0.97730  0.32860  Biso   1.000  C
  C87      1.0000 0.49800  0.96700  0.24900  Biso   1.000  C
  H49      1.0000 0.50810  0.00140  0.21610  Biso   1.000  H
  C88      1.0000 0.47540  0.90600  0.21740  Biso   1.000  C
  H50      1.0000 0.46950  0.89930  0.16330  Biso   1.000  H
  C89      1.0000 0.46150  0.85490  0.26660  Biso   1.000  C
  C90      1.0000 0.46450  0.86530  0.34520  Biso   1.000  C
  H51      1.0000 0.45270  0.83130  0.37790  Biso   1.000  H
  C91      1.0000 0.48540  0.92700  0.37570  Biso   1.000  C
  H52      1.0000 0.48590  0.93470  0.42910  Biso   1.000  H
  C92      1.0000 0.54470  0.75060  0.21570  Biso   1.000  C
  C93      1.0000 0.56130  0.74220  0.14090  Biso   1.000  C
  H53      1.0000 0.52100  0.74850  0.09750  Biso   1.000  H
  C94      1.0000 0.63820  0.72440  0.13080  Biso   1.000  C
  H54      1.0000 0.64970  0.71810  0.08010  Biso   1.000  H
  C95      1.0000 0.69880  0.71590  0.19460  Biso   1.000  C
  C96      1.0000 0.68110  0.72500  0.26940  Biso   1.000  C
  H55      1.0000 0.72150  0.72010  0.31290  Biso   1.000  H
  C97      1.0000 0.60400  0.74140  0.27970  Biso   1.000  C
  H56      1.0000 0.59180  0.74620  0.33030  Biso   1.000  H
  C98      1.0000 0.78160  0.69590  0.18160  Biso   1.000  C
  C99      1.0000 0.45800  0.27510  0.11840  Biso   1.000  C
  C100     1.0000 0.45530  0.34910  0.12760  Biso   1.000  C
  C101     1.0000 0.48680  0.37630  0.19910  Biso   1.000  C
  H57      1.0000 0.50950  0.34910  0.24030  Biso   1.000  H
  C102     1.0000 0.48520  0.44380  0.21040  Biso   1.000  C
  H58      1.0000 0.50540  0.46180  0.25940  Biso   1.000  H
  C103     1.0000 0.45370  0.48380  0.14950  Biso   1.000  C
  C104     1.0000 0.42050  0.45770  0.07810  Biso   1.000  C
  H59      1.0000 0.39770  0.48520  0.03720  Biso   1.000  H
  C105     1.0000 0.42110  0.38970  0.06750  Biso   1.000  C
  H60      1.0000 0.39830  0.37160  0.01930  Biso   1.000  H
  C106     1.0000 0.36250  0.58340  0.20250  Biso   1.000  C
  C107     1.0000 0.29440  0.60350  0.15390  Biso   1.000  C
  H61      1.0000 0.29550  0.61060  0.10060  Biso   1.000  H
  C108     1.0000 0.22450  0.61330  0.18410  Biso   1.000  C
  H62      1.0000 0.17750  0.62640  0.15120  Biso   1.000  H
  C109     1.0000 0.22320  0.60380  0.26270  Biso   1.000  C
  C110     1.0000 0.29340  0.58500  0.31100  Biso   1.000  C
  H63      1.0000 0.29320  0.57950  0.36470  Biso   1.000  H
  C111     1.0000 0.36310  0.57420  0.28100  Biso   1.000  C
  H64      1.0000 0.41010  0.56090  0.31360  Biso   1.000  H
  C112     1.0000 0.14750  0.61700  0.29550  Biso   1.000  C
  C113     1.0000 0.56070  0.09520  0.07810  Biso   1.000  C
  C114     1.0000 0.64350  0.07150  0.07170  Biso   1.000  C
  C115     1.0000 0.65720  0.04260  0.00280  Biso   1.000  C
  H65      1.0000 0.61410  0.03560  0.96220  Biso   1.000  H
  C116     1.0000 0.73390  0.02380  0.99360  Biso   1.000  C
  H66      1.0000 0.74340  0.00450  0.94680  Biso   1.000  H
  C117     1.0000 0.79620  0.03410  0.05430  Biso   1.000  C
  C118     1.0000 0.78380  0.06200  0.12440  Biso   1.000  C
  H67      1.0000 0.82690  0.06850  0.16500  Biso   1.000  H
  C119     1.0000 0.70720  0.07980  0.13310  Biso   1.000  C
  H68      1.0000 0.69750  0.09760  0.18050  Biso   1.000  H
  C120     1.0000 0.93010  0.08970  0.00630  Biso   1.000  C
  C121     1.0000 0.91850  0.10140  0.92680  Biso   1.000  C
  H69      1.0000 0.89090  0.07090  0.89210  Biso   1.000  H
  C122     1.0000 0.94770  0.15790  0.89900  Biso   1.000  C
  H70      1.0000 0.93910  0.16590  0.84500  Biso   1.000  H
  C123     1.0000 0.99000  0.20370  0.94950  Biso   1.000  C
  C124     1.0000 0.00090  0.19160  0.02970  Biso   1.000  C
  H71      1.0000 0.02850  0.22210  0.06440  Biso   1.000  H
  C125     1.0000 0.97120  0.13510  0.05850  Biso   1.000  C
  H72      1.0000 0.97860  0.12730  0.11250  Biso   1.000  H
  C126     1.0000 0.02510  0.26400  0.91770  Biso   1.000  C
  Mn10     1.0000 0.96316  0.66611  0.24731  Biso   1.000  Mn
  Mn11     1.0000 0.85661  0.62150  0.05327  Biso   1.000  Mn
  Mn12     1.0000 0.08457  0.64787  0.44379  Biso   1.000  Mn
  S10      1.0000 0.05321  0.27386  0.27103  Biso   1.000  S
  S11      1.0000 0.04774  0.07060  0.33559  Biso   1.000  S
  S12      1.0000 0.60476  0.51533  0.45924  Biso   1.000  S
  O55      1.0000 0.00250  0.74325  0.32820  Biso   1.000  O
  O56      1.0000 0.48100  0.76777  0.65480  Biso   1.000  O
  O57      1.0000 0.92860  0.58151  0.17490  Biso   1.000  O
  O58      1.0000 0.41370  0.13340  0.25020  Biso   1.000  O
  O59      1.0000 0.66339  0.19304  0.25982  Biso   1.000  O
  O60      1.0000 0.95580  0.60767  0.35570  Biso   1.000  O
  O61      1.0000 0.71150  0.18320  0.38749  Biso   1.000  O
  O62      1.0000 0.44010  0.80482  0.53350  Biso   1.000  O
  O63      1.0000 0.94580  0.54264  0.06050  Biso   1.000  O
  O64      1.0000 0.34670  0.11116  0.13176  Biso   1.000  O
  O65      1.0000 0.07930  0.74962  0.44290  Biso   1.000  O
  O66      1.0000 0.98910  0.60190  0.48350  Biso   1.000  O
  O67      1.0000 0.07640  0.23294  0.21060  Biso   1.000  O
  O68      1.0000 0.10330  0.27665  0.34590  Biso   1.000  O
  O69      1.0000 0.98100  0.08685  0.27490  Biso   1.000  O
  O70      1.0000 0.05580  0.10183  0.41060  Biso   1.000  O
  O71      1.0000 0.60960  0.46768  0.52070  Biso   1.000  O
  O72      1.0000 0.55840  0.50097  0.38440  Biso   1.000  O
  C127     1.0000 0.95670  0.53850  0.13380  Biso   1.000  C
  C128     1.0000 0.99440  0.47730  0.17140  Biso   1.000  C
  C129     1.0000 0.00200  0.46700  0.25100  Biso   1.000  C
  H73      1.0000 0.99190  0.50140  0.28390  Biso   1.000  H
  C130     1.0000 0.02460  0.40600  0.28260  Biso   1.000  C
  H74      1.0000 0.03050  0.39930  0.33670  Biso   1.000  H
  C131     1.0000 0.03850  0.35490  0.23340  Biso   1.000  C
  C132     1.0000 0.03550  0.36530  0.15480  Biso   1.000  C
  H75      1.0000 0.04730  0.33130  0.12210  Biso   1.000  H
  C133     1.0000 0.01460  0.42700  0.12430  Biso   1.000  C
  H76      1.0000 0.01410  0.43470  0.07090  Biso   1.000  H
  C134     1.0000 0.95530  0.25060  0.28430  Biso   1.000  C
  C135     1.0000 0.93870  0.24220  0.35910  Biso   1.000  C
  H77      1.0000 0.97900  0.24850  0.40250  Biso   1.000  H
  C136     1.0000 0.86180  0.22440  0.36920  Biso   1.000  C
  H78      1.0000 0.85030  0.21810  0.41990  Biso   1.000  H
  C137     1.0000 0.80120  0.21590  0.30540  Biso   1.000  C
  C138     1.0000 0.81890  0.22500  0.23060  Biso   1.000  C
  H79      1.0000 0.77850  0.22010  0.18710  Biso   1.000  H
  C139     1.0000 0.89600  0.24140  0.22030  Biso   1.000  C
  H80      1.0000 0.90820  0.24620  0.16970  Biso   1.000  H
  C140     1.0000 0.71840  0.19590  0.31840  Biso   1.000  C
  C141     1.0000 0.04200  0.77510  0.38160  Biso   1.000  C
  C142     1.0000 0.04470  0.84910  0.37240  Biso   1.000  C
  C143     1.0000 0.01320  0.87630  0.30090  Biso   1.000  C
  H81      1.0000 0.99050  0.84910  0.25970  Biso   1.000  H
  C144     1.0000 0.01480  0.94380  0.28960  Biso   1.000  C
  H82      1.0000 0.99460  0.96180  0.24060  Biso   1.000  H
  C145     1.0000 0.04630  0.98380  0.35050  Biso   1.000  C
  C146     1.0000 0.07950  0.95770  0.42190  Biso   1.000  C
  H83      1.0000 0.10230  0.98520  0.46280  Biso   1.000  H
  C147     1.0000 0.07890  0.88970  0.43250  Biso   1.000  C
  H84      1.0000 0.10170  0.87160  0.48070  Biso   1.000  H
  C148     1.0000 0.13750  0.08340  0.29750  Biso   1.000  C
  C149     1.0000 0.20560  0.10350  0.34610  Biso   1.000  C
  H85      1.0000 0.20450  0.11060  0.39940  Biso   1.000  H
  C150     1.0000 0.27550  0.11330  0.31590  Biso   1.000  C
  H86      1.0000 0.32250  0.12640  0.34880  Biso   1.000  H
  C151     1.0000 0.27680  0.10380  0.23730  Biso   1.000  C
  C152     1.0000 0.20660  0.08500  0.18900  Biso   1.000  C
  H87      1.0000 0.20680  0.07950  0.13530  Biso   1.000  H
  C153     1.0000 0.13690  0.07420  0.21900  Biso   1.000  C
  H88      1.0000 0.08990  0.06090  0.18640  Biso   1.000  H
  C154     1.0000 0.35250  0.11700  0.20450  Biso   1.000  C
  C155     1.0000 0.93930  0.59520  0.42190  Biso   1.000  C
  C156     1.0000 0.85650  0.57150  0.42830  Biso   1.000  C
  C157     1.0000 0.84280  0.54260  0.49720  Biso   1.000  C
  H89      1.0000 0.88590  0.53560  0.53780  Biso   1.000  H
  C158     1.0000 0.76610  0.52380  0.50640  Biso   1.000  C
  H90      1.0000 0.75660  0.50450  0.55320  Biso   1.000  H
  C159     1.0000 0.70380  0.53410  0.44570  Biso   1.000  C
  C160     1.0000 0.71620  0.56200  0.37560  Biso   1.000  C
  H91      1.0000 0.67310  0.56850  0.33500  Biso   1.000  H
  C161     1.0000 0.79280  0.57980  0.36690  Biso   1.000  C
  H92      1.0000 0.80250  0.59760  0.31950  Biso   1.000  H
  C162     1.0000 0.56990  0.58970  0.49370  Biso   1.000  C
  C163     1.0000 0.58150  0.60140  0.57320  Biso   1.000  C
  H93      1.0000 0.60910  0.57090  0.60790  Biso   1.000  H
  C164     1.0000 0.55230  0.65790  0.60100  Biso   1.000  C
  H94      1.0000 0.56090  0.66590  0.65500  Biso   1.000  H
  C165     1.0000 0.51000  0.70370  0.55050  Biso   1.000  C
  C166     1.0000 0.49910  0.69160  0.47030  Biso   1.000  C
  H95      1.0000 0.47150  0.72210  0.43560  Biso   1.000  H
  C167     1.0000 0.52880  0.63510  0.44150  Biso   1.000  C
  H96      1.0000 0.52140  0.62730  0.38750  Biso   1.000  H
  C168     1.0000 0.47490  0.76400  0.58230  Biso   1.000  C
