data_image0
_cell_length_a       16.7094
_cell_length_b       20.2857
_cell_length_c       17.1936
_cell_angle_alpha    90
_cell_angle_beta     99.178
_cell_angle_gamma    90

_symmetry_space_group_name_H-M    "P 1"
_symmetry_int_tables_number       1

loop_
  _symmetry_equiv_pos_as_xyz
  'x, y, z'

loop_
  _atom_site_label
  _atom_site_occupancy
  _atom_site_fract_x
  _atom_site_fract_y
  _atom_site_fract_z
  _atom_site_thermal_displace_type
  _atom_site_B_iso_or_equiv
  _atom_site_type_symbol
  Mn1      1.0000 0.03628  0.83793  0.24945  Biso   1.000  Mn
  Mn2      1.0000 0.15001  0.88419  0.44488  Biso   1.000  Mn
  Mn3      1.0000 0.91130  0.85701  0.05124  Biso   1.000  Mn
  S1       1.0000 0.90031  0.51886  0.54224  Biso   1.000  S
  S2       1.0000 0.56093  0.72651  0.27533  Biso   1.000  S
  S3       1.0000 0.95570  0.43167  0.15342  Biso   1.000  S
  O1       1.0000 0.99410  0.75864  0.17317  Biso   1.000  O
  O2       1.0000 0.01953  0.77519  0.34582  Biso   1.000  O
  O3       1.0000 0.42533  0.42244  0.17897  Biso   1.000  O
  O4       1.0000 0.58843  0.37213  0.25176  Biso   1.000  O
  O5       1.0000 0.16433  0.80811  0.25509  Biso   1.000  O
  O6       1.0000 0.53770  0.60645  0.63659  Biso   1.000  O
  O7       1.0000 0.21094  0.81666  0.38489  Biso   1.000  O
  O8       1.0000 0.06261  0.81211  0.46854  Biso   1.000  O
  O9       1.0000 0.43616  0.46447  0.06259  Biso   1.000  O
  O10      1.0000 0.66015  0.39016  0.37130  Biso   1.000  O
  O11      1.0000 0.92281  0.75500  0.05320  Biso   1.000  O
  O12      1.0000 0.50828  0.59718  0.50767  Biso   1.000  O
  O13      1.0000 0.89838  0.47131  0.47979  Biso   1.000  O
  O14      1.0000 0.94559  0.50506  0.61910  Biso   1.000  O
  O15      1.0000 0.60942  0.72474  0.35235  Biso   1.000  O
  O16      1.0000 0.58594  0.76704  0.21455  Biso   1.000  O
  O17      1.0000 0.94500  0.40065  0.07738  Biso   1.000  O
  O18      1.0000 0.02477  0.41509  0.21197  Biso   1.000  O
  C1       1.0000 0.02720  0.77126  0.41920  Biso   1.000  C
  C2       1.0000 0.99236  0.70996  0.45160  Biso   1.000  C
  C3       1.0000 0.95090  0.66433  0.40000  Biso   1.000  C
  H1       1.0000 0.94230  0.67300  0.34620  Biso   1.000  H
  C4       1.0000 0.92210  0.60611  0.42745  Biso   1.000  C
  H2       1.0000 0.89540  0.57520  0.39260  Biso   1.000  H
  C5       1.0000 0.93378  0.59481  0.50816  Biso   1.000  C
  C6       1.0000 0.97360  0.64026  0.56110  Biso   1.000  C
  H3       1.0000 0.98050  0.63220  0.61500  Biso   1.000  H
  C7       1.0000 0.00280  0.69758  0.53246  Biso   1.000  C
  H4       1.0000 0.02980  0.72820  0.56740  Biso   1.000  H
  C8       1.0000 0.79903  0.53564  0.55369  Biso   1.000  C
  C9       1.0000 0.73800  0.52584  0.48961  Biso   1.000  C
  H5       1.0000 0.74990  0.50810  0.44290  Biso   1.000  H
  C10      1.0000 0.65950  0.54287  0.49650  Biso   1.000  C
  H6       1.0000 0.61790  0.53630  0.45440  Biso   1.000  H
  C11      1.0000 0.64230  0.56993  0.56688  Biso   1.000  C
  C12      1.0000 0.70360  0.57713  0.63140  Biso   1.000  C
  H7       1.0000 0.69140  0.59310  0.67890  Biso   1.000  H
  C13      1.0000 0.78300  0.56052  0.62487  Biso   1.000  C
  H8       1.0000 0.82450  0.56590  0.66730  Biso   1.000  H
  C14      1.0000 0.55770  0.59244  0.57120  Biso   1.000  C
  C15      1.0000 0.21900  0.80415  0.31427  Biso   1.000  C
  C16      1.0000 0.30295  0.78287  0.30272  Biso   1.000  C
  C17      1.0000 0.36199  0.77183  0.36908  Biso   1.000  C
  H9       1.0000 0.34820  0.77630  0.41910  Biso   1.000  H
  C18      1.0000 0.44030  0.75449  0.36130  Biso   1.000  C
  H10      1.0000 0.47890  0.74670  0.40560  Biso   1.000  H
  C19      1.0000 0.46049  0.74890  0.28588  Biso   1.000  C
  C20      1.0000 0.40250  0.75976  0.21922  Biso   1.000  C
  H11      1.0000 0.41660  0.75610  0.16920  Biso   1.000  H
  C21      1.0000 0.32430  0.77599  0.22774  Biso   1.000  C
  H12      1.0000 0.28540  0.78240  0.18330  Biso   1.000  H
  C22      1.0000 0.54792  0.64497  0.23835  Biso   1.000  C
  C23      1.0000 0.53090  0.59451  0.28840  Biso   1.000  C
  H13      1.0000 0.53620  0.60150  0.34240  Biso   1.000  H
  C24      1.0000 0.50600  0.53401  0.25630  Biso   1.000  C
  H14      1.0000 0.49460  0.49980  0.28880  Biso   1.000  H
  C25      1.0000 0.49810  0.52417  0.17502  Biso   1.000  C
  C26      1.0000 0.52250  0.57300  0.12680  Biso   1.000  C
  H15      1.0000 0.52250  0.56460  0.07360  Biso   1.000  H
  C27      1.0000 0.54690  0.63402  0.15820  Biso   1.000  C
  H16      1.0000 0.56230  0.66720  0.12630  Biso   1.000  H
  C28      1.0000 0.45290  0.46560  0.13680  Biso   1.000  C
  C29      1.0000 0.95780  0.72802  0.11575  Biso   1.000  C
  C30      1.0000 0.95602  0.65420  0.12190  Biso   1.000  C
  C31      1.0000 0.92480  0.61395  0.05890  Biso   1.000  C
  H17      1.0000 0.90380  0.63270  0.01060  Biso   1.000  H
  C32      1.0000 0.92480  0.54598  0.06760  Biso   1.000  C
  H18      1.0000 0.90390  0.51920  0.02540  Biso   1.000  H
  C33      1.0000 0.95620  0.51831  0.13960  Biso   1.000  C
  C34      1.0000 0.98740  0.55792  0.20380  Biso   1.000  C
  H19      1.0000 0.00790  0.53910  0.25220  Biso   1.000  H
  C35      1.0000 0.98720  0.62526  0.19411  Biso   1.000  C
  H20      1.0000 0.00830  0.65200  0.23640  Biso   1.000  H
  C36      1.0000 0.86680  0.41882  0.19560  Biso   1.000  C
  C37      1.0000 0.79510  0.40180  0.14760  Biso   1.000  C
  H21      1.0000 0.79370  0.39670  0.09360  Biso   1.000  H
  C38      1.0000 0.72590  0.39240  0.18060  Biso   1.000  C
  H22      1.0000 0.67750  0.38150  0.14850  Biso   1.000  H
  C39      1.0000 0.72770  0.39912  0.26186  Biso   1.000  C
  C40      1.0000 0.80000  0.41584  0.30905  Biso   1.000  C
  H23      1.0000 0.80200  0.42000  0.36320  Biso   1.000  H
  C41      1.0000 0.86960  0.42646  0.27620  Biso   1.000  C
  H24      1.0000 0.91770  0.43860  0.30790  Biso   1.000  H
  C42      1.0000 0.65200  0.38619  0.29700  Biso   1.000  C
  Mn4      1.0000 0.46372  0.33793  0.25055  Biso   1.000  Mn
  Mn5      1.0000 0.34999  0.38419  0.05512  Biso   1.000  Mn
  Mn6      1.0000 0.58870  0.35701  0.44876  Biso   1.000  Mn
  S4       1.0000 0.59969  0.01886  0.95776  Biso   1.000  S
  S5       1.0000 0.93907  0.22651  0.22467  Biso   1.000  S
  S6       1.0000 0.54430  0.93167  0.34658  Biso   1.000  S
  O19      1.0000 0.50590  0.25864  0.32683  Biso   1.000  O
  O20      1.0000 0.48047  0.27519  0.15418  Biso   1.000  O
  O21      1.0000 0.07467  0.92244  0.32103  Biso   1.000  O
  O22      1.0000 0.91157  0.87213  0.24824  Biso   1.000  O
  O23      1.0000 0.33567  0.30811  0.24491  Biso   1.000  O
  O24      1.0000 0.96230  0.10645  0.86341  Biso   1.000  O
  O25      1.0000 0.28906  0.31666  0.11511  Biso   1.000  O
  O26      1.0000 0.43739  0.31211  0.03146  Biso   1.000  O
  O27      1.0000 0.06384  0.96447  0.43741  Biso   1.000  O
  O28      1.0000 0.83985  0.89016  0.12870  Biso   1.000  O
  O29      1.0000 0.57719  0.25500  0.44680  Biso   1.000  O
  O30      1.0000 0.99172  0.09718  0.99233  Biso   1.000  O
  O31      1.0000 0.60162  0.97131  0.02021  Biso   1.000  O
  O32      1.0000 0.55441  0.00506  0.88090  Biso   1.000  O
  O33      1.0000 0.89058  0.22474  0.14765  Biso   1.000  O
  O34      1.0000 0.91406  0.26704  0.28545  Biso   1.000  O
  O35      1.0000 0.55500  0.90065  0.42262  Biso   1.000  O
  O36      1.0000 0.47523  0.91509  0.28803  Biso   1.000  O
  C43      1.0000 0.47280  0.27126  0.08080  Biso   1.000  C
  C44      1.0000 0.50764  0.20996  0.04840  Biso   1.000  C
  C45      1.0000 0.54910  0.16433  0.10000  Biso   1.000  C
  H25      1.0000 0.55770  0.17300  0.15380  Biso   1.000  H
  C46      1.0000 0.57790  0.10611  0.07255  Biso   1.000  C
  H26      1.0000 0.60460  0.07520  0.10740  Biso   1.000  H
  C47      1.0000 0.56622  0.09481  0.99184  Biso   1.000  C
  C48      1.0000 0.52640  0.14026  0.93890  Biso   1.000  C
  H27      1.0000 0.51950  0.13220  0.88500  Biso   1.000  H
  C49      1.0000 0.49720  0.19758  0.96754  Biso   1.000  C
  H28      1.0000 0.47020  0.22820  0.93260  Biso   1.000  H
  C50      1.0000 0.70097  0.03564  0.94631  Biso   1.000  C
  C51      1.0000 0.76200  0.02584  0.01039  Biso   1.000  C
  H29      1.0000 0.75010  0.00810  0.05710  Biso   1.000  H
  C52      1.0000 0.84050  0.04287  0.00350  Biso   1.000  C
  H30      1.0000 0.88210  0.03630  0.04560  Biso   1.000  H
  C53      1.0000 0.85770  0.06993  0.93312  Biso   1.000  C
  C54      1.0000 0.79640  0.07713  0.86860  Biso   1.000  C
  H31      1.0000 0.80860  0.09310  0.82110  Biso   1.000  H
  C55      1.0000 0.71700  0.06052  0.87513  Biso   1.000  C
  H32      1.0000 0.67550  0.06590  0.83270  Biso   1.000  H
  C56      1.0000 0.94230  0.09244  0.92880  Biso   1.000  C
  C57      1.0000 0.28100  0.30415  0.18573  Biso   1.000  C
  C58      1.0000 0.19705  0.28287  0.19728  Biso   1.000  C
  C59      1.0000 0.13801  0.27183  0.13092  Biso   1.000  C
  H33      1.0000 0.15180  0.27630  0.08090  Biso   1.000  H
  C60      1.0000 0.05970  0.25449  0.13870  Biso   1.000  C
  H34      1.0000 0.02110  0.24670  0.09440  Biso   1.000  H
  C61      1.0000 0.03951  0.24890  0.21412  Biso   1.000  C
  C62      1.0000 0.09750  0.25976  0.28078  Biso   1.000  C
  H35      1.0000 0.08340  0.25610  0.33080  Biso   1.000  H
  C63      1.0000 0.17570  0.27599  0.27226  Biso   1.000  C
  H36      1.0000 0.21460  0.28240  0.31670  Biso   1.000  H
  C64      1.0000 0.95208  0.14497  0.26165  Biso   1.000  C
  C65      1.0000 0.96910  0.09451  0.21160  Biso   1.000  C
  H37      1.0000 0.96380  0.10150  0.15760  Biso   1.000  H
  C66      1.0000 0.99400  0.03401  0.24370  Biso   1.000  C
  H38      1.0000 0.00540  0.99980  0.21120  Biso   1.000  H
  C67      1.0000 0.00190  0.02417  0.32498  Biso   1.000  C
  C68      1.0000 0.97750  0.07300  0.37320  Biso   1.000  C
  H39      1.0000 0.97750  0.06460  0.42640  Biso   1.000  H
  C69      1.0000 0.95310  0.13402  0.34180  Biso   1.000  C
  H40      1.0000 0.93770  0.16720  0.37370  Biso   1.000  H
  C70      1.0000 0.04710  0.96560  0.36320  Biso   1.000  C
  C71      1.0000 0.54220  0.22802  0.38425  Biso   1.000  C
  C72      1.0000 0.54398  0.15420  0.37810  Biso   1.000  C
  C73      1.0000 0.57520  0.11395  0.44110  Biso   1.000  C
  H41      1.0000 0.59620  0.13270  0.48940  Biso   1.000  H
  C74      1.0000 0.57520  0.04598  0.43240  Biso   1.000  C
  H42      1.0000 0.59610  0.01920  0.47460  Biso   1.000  H
  C75      1.0000 0.54380  0.01831  0.36040  Biso   1.000  C
  C76      1.0000 0.51260  0.05792  0.29620  Biso   1.000  C
  H43      1.0000 0.49210  0.03910  0.24780  Biso   1.000  H
  C77      1.0000 0.51280  0.12526  0.30589  Biso   1.000  C
  H44      1.0000 0.49170  0.15200  0.26360  Biso   1.000  H
  C78      1.0000 0.63320  0.91882  0.30440  Biso   1.000  C
  C79      1.0000 0.70490  0.90180  0.35240  Biso   1.000  C
  H45      1.0000 0.70630  0.89670  0.40640  Biso   1.000  H
  C80      1.0000 0.77410  0.89240  0.31940  Biso   1.000  C
  H46      1.0000 0.82250  0.88150  0.35150  Biso   1.000  H
  C81      1.0000 0.77230  0.89912  0.23814  Biso   1.000  C
  C82      1.0000 0.70000  0.91584  0.19095  Biso   1.000  C
  H47      1.0000 0.69800  0.92000  0.13680  Biso   1.000  H
  C83      1.0000 0.63040  0.92646  0.22380  Biso   1.000  C
  H48      1.0000 0.58230  0.93860  0.19210  Biso   1.000  H
  C84      1.0000 0.84800  0.88619  0.20300  Biso   1.000  C
  Mn7      1.0000 0.96372  0.16207  0.75055  Biso   1.000  Mn
  Mn8      1.0000 0.84999  0.11581  0.55512  Biso   1.000  Mn
  Mn9      1.0000 0.08870  0.14299  0.94876  Biso   1.000  Mn
  S7       1.0000 0.09969  0.48114  0.45776  Biso   1.000  S
  S8       1.0000 0.43907  0.27349  0.72467  Biso   1.000  S
  S9       1.0000 0.04430  0.56833  0.84658  Biso   1.000  S
  O37      1.0000 0.00590  0.24136  0.82683  Biso   1.000  O
  O38      1.0000 0.98047  0.22481  0.65418  Biso   1.000  O
  O39      1.0000 0.57467  0.57756  0.82103  Biso   1.000  O
  O40      1.0000 0.41157  0.62787  0.74824  Biso   1.000  O
  O41      1.0000 0.83567  0.19189  0.74491  Biso   1.000  O
  O42      1.0000 0.46230  0.39355  0.36341  Biso   1.000  O
  O43      1.0000 0.78906  0.18334  0.61511  Biso   1.000  O
  O44      1.0000 0.93739  0.18789  0.53146  Biso   1.000  O
  O45      1.0000 0.56384  0.53553  0.93741  Biso   1.000  O
  O46      1.0000 0.33985  0.60984  0.62870  Biso   1.000  O
  O47      1.0000 0.07719  0.24500  0.94680  Biso   1.000  O
  O48      1.0000 0.49172  0.40282  0.49233  Biso   1.000  O
  O49      1.0000 0.10162  0.52869  0.52021  Biso   1.000  O
  O50      1.0000 0.05441  0.49494  0.38090  Biso   1.000  O
  O51      1.0000 0.39058  0.27526  0.64765  Biso   1.000  O
  O52      1.0000 0.41406  0.23296  0.78545  Biso   1.000  O
  O53      1.0000 0.05500  0.59935  0.92262  Biso   1.000  O
  O54      1.0000 0.97523  0.58491  0.78803  Biso   1.000  O
  C85      1.0000 0.97280  0.22874  0.58080  Biso   1.000  C
  C86      1.0000 0.00764  0.29004  0.54840  Biso   1.000  C
  C87      1.0000 0.04910  0.33567  0.60000  Biso   1.000  C
  H49      1.0000 0.05770  0.32700  0.65380  Biso   1.000  H
  C88      1.0000 0.07790  0.39389  0.57255  Biso   1.000  C
  H50      1.0000 0.10460  0.42480  0.60740  Biso   1.000  H
  C89      1.0000 0.06622  0.40519  0.49184  Biso   1.000  C
  C90      1.0000 0.02640  0.35974  0.43890  Biso   1.000  C
  H51      1.0000 0.01950  0.36780  0.38500  Biso   1.000  H
  C91      1.0000 0.99720  0.30242  0.46754  Biso   1.000  C
  H52      1.0000 0.97020  0.27180  0.43260  Biso   1.000  H
  C92      1.0000 0.20097  0.46436  0.44631  Biso   1.000  C
  C93      1.0000 0.26200  0.47416  0.51039  Biso   1.000  C
  H53      1.0000 0.25010  0.49190  0.55710  Biso   1.000  H
  C94      1.0000 0.34050  0.45713  0.50350  Biso   1.000  C
  H54      1.0000 0.38210  0.46370  0.54560  Biso   1.000  H
  C95      1.0000 0.35770  0.43007  0.43312  Biso   1.000  C
  C96      1.0000 0.29640  0.42287  0.36860  Biso   1.000  C
  H55      1.0000 0.30860  0.40690  0.32110  Biso   1.000  H
  C97      1.0000 0.21700  0.43948  0.37513  Biso   1.000  C
  H56      1.0000 0.17550  0.43410  0.33270  Biso   1.000  H
  C98      1.0000 0.44230  0.40756  0.42880  Biso   1.000  C
  C99      1.0000 0.78100  0.19585  0.68573  Biso   1.000  C
  C100     1.0000 0.69705  0.21713  0.69728  Biso   1.000  C
  C101     1.0000 0.63801  0.22817  0.63092  Biso   1.000  C
  H57      1.0000 0.65180  0.22370  0.58090  Biso   1.000  H
  C102     1.0000 0.55970  0.24551  0.63870  Biso   1.000  C
  H58      1.0000 0.52110  0.25330  0.59440  Biso   1.000  H
  C103     1.0000 0.53951  0.25110  0.71412  Biso   1.000  C
  C104     1.0000 0.59750  0.24024  0.78078  Biso   1.000  C
  H59      1.0000 0.58340  0.24390  0.83080  Biso   1.000  H
  C105     1.0000 0.67570  0.22401  0.77226  Biso   1.000  C
  H60      1.0000 0.71460  0.21760  0.81670  Biso   1.000  H
  C106     1.0000 0.45208  0.35503  0.76165  Biso   1.000  C
  C107     1.0000 0.46910  0.40549  0.71160  Biso   1.000  C
  H61      1.0000 0.46380  0.39850  0.65760  Biso   1.000  H
  C108     1.0000 0.49400  0.46599  0.74370  Biso   1.000  C
  H62      1.0000 0.50540  0.50020  0.71120  Biso   1.000  H
  C109     1.0000 0.50190  0.47583  0.82498  Biso   1.000  C
  C110     1.0000 0.47750  0.42700  0.87320  Biso   1.000  C
  H63      1.0000 0.47750  0.43540  0.92640  Biso   1.000  H
  C111     1.0000 0.45310  0.36598  0.84180  Biso   1.000  C
  H64      1.0000 0.43770  0.33280  0.87370  Biso   1.000  H
  C112     1.0000 0.54710  0.53440  0.86320  Biso   1.000  C
  C113     1.0000 0.04220  0.27198  0.88425  Biso   1.000  C
  C114     1.0000 0.04398  0.34580  0.87810  Biso   1.000  C
  C115     1.0000 0.07520  0.38605  0.94110  Biso   1.000  C
  H65      1.0000 0.09620  0.36730  0.98940  Biso   1.000  H
  C116     1.0000 0.07520  0.45402  0.93240  Biso   1.000  C
  H66      1.0000 0.09610  0.48080  0.97460  Biso   1.000  H
  C117     1.0000 0.04380  0.48169  0.86040  Biso   1.000  C
  C118     1.0000 0.01260  0.44208  0.79620  Biso   1.000  C
  H67      1.0000 0.99210  0.46090  0.74780  Biso   1.000  H
  C119     1.0000 0.01280  0.37474  0.80589  Biso   1.000  C
  H68      1.0000 0.99170  0.34800  0.76360  Biso   1.000  H
  C120     1.0000 0.13320  0.58118  0.80440  Biso   1.000  C
  C121     1.0000 0.20490  0.59820  0.85240  Biso   1.000  C
  H69      1.0000 0.20630  0.60330  0.90640  Biso   1.000  H
  C122     1.0000 0.27410  0.60760  0.81940  Biso   1.000  C
  H70      1.0000 0.32250  0.61850  0.85150  Biso   1.000  H
  C123     1.0000 0.27230  0.60088  0.73814  Biso   1.000  C
  C124     1.0000 0.20000  0.58416  0.69095  Biso   1.000  C
  H71      1.0000 0.19800  0.58000  0.63680  Biso   1.000  H
  C125     1.0000 0.13040  0.57354  0.72380  Biso   1.000  C
  H72      1.0000 0.08230  0.56140  0.69210  Biso   1.000  H
  C126     1.0000 0.34800  0.61381  0.70300  Biso   1.000  C
  Mn10     1.0000 0.53628  0.66207  0.74945  Biso   1.000  Mn
  Mn11     1.0000 0.65001  0.61581  0.94488  Biso   1.000  Mn
  Mn12     1.0000 0.41130  0.64299  0.55124  Biso   1.000  Mn
  S10      1.0000 0.40031  0.98114  0.04224  Biso   1.000  S
  S11      1.0000 0.06093  0.77349  0.77533  Biso   1.000  S
  S12      1.0000 0.45570  0.06833  0.65342  Biso   1.000  S
  O55      1.0000 0.49410  0.74136  0.67317  Biso   1.000  O
  O56      1.0000 0.51953  0.72481  0.84582  Biso   1.000  O
  O57      1.0000 0.92533  0.07756  0.67897  Biso   1.000  O
  O58      1.0000 0.08843  0.12787  0.75176  Biso   1.000  O
  O59      1.0000 0.66433  0.69189  0.75509  Biso   1.000  O
  O60      1.0000 0.03770  0.89355  0.13659  Biso   1.000  O
  O61      1.0000 0.71094  0.68334  0.88489  Biso   1.000  O
  O62      1.0000 0.56261  0.68789  0.96854  Biso   1.000  O
  O63      1.0000 0.93616  0.03553  0.56259  Biso   1.000  O
  O64      1.0000 0.16015  0.10984  0.87130  Biso   1.000  O
  O65      1.0000 0.42281  0.74500  0.55320  Biso   1.000  O
  O66      1.0000 0.00828  0.90282  0.00767  Biso   1.000  O
  O67      1.0000 0.39838  0.02869  0.97979  Biso   1.000  O
  O68      1.0000 0.44559  0.99494  0.11910  Biso   1.000  O
  O69      1.0000 0.10942  0.77526  0.85235  Biso   1.000  O
  O70      1.0000 0.08594  0.73296  0.71455  Biso   1.000  O
  O71      1.0000 0.44500  0.09935  0.57738  Biso   1.000  O
  O72      1.0000 0.52477  0.08491  0.71197  Biso   1.000  O
  C127     1.0000 0.52720  0.72874  0.91920  Biso   1.000  C
  C128     1.0000 0.49236  0.79004  0.95160  Biso   1.000  C
  C129     1.0000 0.45090  0.83567  0.90000  Biso   1.000  C
  H73      1.0000 0.44230  0.82700  0.84620  Biso   1.000  H
  C130     1.0000 0.42210  0.89389  0.92745  Biso   1.000  C
  H74      1.0000 0.39540  0.92480  0.89260  Biso   1.000  H
  C131     1.0000 0.43378  0.90519  0.00816  Biso   1.000  C
  C132     1.0000 0.47360  0.85974  0.06110  Biso   1.000  C
  H75      1.0000 0.48050  0.86780  0.11500  Biso   1.000  H
  C133     1.0000 0.50280  0.80242  0.03246  Biso   1.000  C
  H76      1.0000 0.52980  0.77180  0.06740  Biso   1.000  H
  C134     1.0000 0.29903  0.96436  0.05369  Biso   1.000  C
  C135     1.0000 0.23800  0.97416  0.98961  Biso   1.000  C
  H77      1.0000 0.24990  0.99190  0.94290  Biso   1.000  H
  C136     1.0000 0.15950  0.95713  0.99650  Biso   1.000  C
  H78      1.0000 0.11790  0.96370  0.95440  Biso   1.000  H
  C137     1.0000 0.14230  0.93007  0.06688  Biso   1.000  C
  C138     1.0000 0.20360  0.92287  0.13140  Biso   1.000  C
  H79      1.0000 0.19140  0.90690  0.17890  Biso   1.000  H
  C139     1.0000 0.28300  0.93948  0.12487  Biso   1.000  C
  H80      1.0000 0.32450  0.93410  0.16730  Biso   1.000  H
  C140     1.0000 0.05770  0.90756  0.07120  Biso   1.000  C
  C141     1.0000 0.71900  0.69585  0.81427  Biso   1.000  C
  C142     1.0000 0.80295  0.71713  0.80272  Biso   1.000  C
  C143     1.0000 0.86199  0.72817  0.86908  Biso   1.000  C
  H81      1.0000 0.84820  0.72370  0.91910  Biso   1.000  H
  C144     1.0000 0.94030  0.74551  0.86130  Biso   1.000  C
  H82      1.0000 0.97890  0.75330  0.90560  Biso   1.000  H
  C145     1.0000 0.96049  0.75110  0.78588  Biso   1.000  C
  C146     1.0000 0.90250  0.74024  0.71922  Biso   1.000  C
  H83      1.0000 0.91660  0.74390  0.66920  Biso   1.000  H
  C147     1.0000 0.82430  0.72401  0.72774  Biso   1.000  C
  H84      1.0000 0.78540  0.71760  0.68330  Biso   1.000  H
  C148     1.0000 0.04792  0.85503  0.73835  Biso   1.000  C
  C149     1.0000 0.03090  0.90549  0.78840  Biso   1.000  C
  H85      1.0000 0.03620  0.89850  0.84240  Biso   1.000  H
  C150     1.0000 0.00600  0.96599  0.75630  Biso   1.000  C
  H86      1.0000 0.99460  0.00020  0.78880  Biso   1.000  H
  C151     1.0000 0.99810  0.97583  0.67502  Biso   1.000  C
  C152     1.0000 0.02250  0.92700  0.62680  Biso   1.000  C
  H87      1.0000 0.02250  0.93540  0.57360  Biso   1.000  H
  C153     1.0000 0.04690  0.86598  0.65820  Biso   1.000  C
  H88      1.0000 0.06230  0.83280  0.62630  Biso   1.000  H
  C154     1.0000 0.95290  0.03440  0.63680  Biso   1.000  C
  C155     1.0000 0.45780  0.77198  0.61575  Biso   1.000  C
  C156     1.0000 0.45602  0.84580  0.62190  Biso   1.000  C
  C157     1.0000 0.42480  0.88605  0.55890  Biso   1.000  C
  H89      1.0000 0.40380  0.86730  0.51060  Biso   1.000  H
  C158     1.0000 0.42480  0.95402  0.56760  Biso   1.000  C
  H90      1.0000 0.40390  0.98080  0.52540  Biso   1.000  H
  C159     1.0000 0.45620  0.98169  0.63960  Biso   1.000  C
  C160     1.0000 0.48740  0.94208  0.70380  Biso   1.000  C
  H91      1.0000 0.50790  0.96090  0.75220  Biso   1.000  H
  C161     1.0000 0.48720  0.87474  0.69411  Biso   1.000  C
  H92      1.0000 0.50830  0.84800  0.73640  Biso   1.000  H
  C162     1.0000 0.36680  0.08118  0.69560  Biso   1.000  C
  C163     1.0000 0.29510  0.09820  0.64760  Biso   1.000  C
  H93      1.0000 0.29370  0.10330  0.59360  Biso   1.000  H
  C164     1.0000 0.22590  0.10760  0.68060  Biso   1.000  C
  H94      1.0000 0.17750  0.11850  0.64850  Biso   1.000  H
  C165     1.0000 0.22770  0.10088  0.76186  Biso   1.000  C
  C166     1.0000 0.30000  0.08416  0.80905  Biso   1.000  C
  H95      1.0000 0.30200  0.08000  0.86320  Biso   1.000  H
  C167     1.0000 0.36960  0.07354  0.77620  Biso   1.000  C
  H96      1.0000 0.41770  0.06140  0.80790  Biso   1.000  H
  C168     1.0000 0.15200  0.11381  0.79700  Biso   1.000  C
