data_image0
_cell_length_a       16.7094
_cell_length_b       20.2857
_cell_length_c       17.1936
_cell_angle_alpha    90
_cell_angle_beta     99.178
_cell_angle_gamma    90

_symmetry_space_group_name_H-M    "P 1"
_symmetry_int_tables_number       1

loop_
  _symmetry_equiv_pos_as_xyz
  'x, y, z'

loop_
  _atom_site_label
  _atom_site_occupancy
  _atom_site_fract_x
  _atom_site_fract_y
  _atom_site_fract_z
  _atom_site_thermal_displace_type
  _atom_site_B_iso_or_equiv
  _atom_site_type_symbol
  Mn1      1.0000 0.24957  0.33421  0.03614  Biso   1.000  Mn
  Mn2      1.0000 0.44546  0.37409  0.13934  Biso   1.000  Mn
  Mn3      1.0000 0.05220  0.35504  0.91695  Biso   1.000  Mn
  S1       1.0000 0.22833  0.72822  0.95422  Biso   1.000  S
  S2       1.0000 0.34295  0.43047  0.55568  Biso   1.000  S
  S3       1.0000 0.04115  0.48581  0.39286  Biso   1.000  S
  N1       1.0000 0.42160  0.44780  0.23310  Biso   1.000  N
  O1       1.0000 0.33170  0.75731  0.50590  Biso   1.000  O
  O2       1.0000 0.84287  0.23383  0.51927  Biso   1.000  O
  O3       1.0000 0.32283  0.41845  0.07214  Biso   1.000  O
  O4       1.0000 0.25116  0.36620  0.91521  Biso   1.000  O
  O5       1.0000 0.24656  0.80952  0.33953  Biso   1.000  O
  O6       1.0000 0.13857  0.39339  0.04128  Biso   1.000  O
  O7       1.0000 0.11598  0.80824  0.29913  Biso   1.000  O
  O8       1.0000 0.96646  0.19589  0.55410  Biso   1.000  O
  O9       1.0000 0.44038  0.45800  0.06000  Biso   1.000  O
  O10      1.0000 0.13072  0.38992  0.84886  Biso   1.000  O
  O11      1.0000 0.44516  0.75258  0.58750  Biso   1.000  O
  O12      1.0000 0.00892  0.39609  0.01387  Biso   1.000  O
  O13      1.0000 0.15162  0.72476  0.90673  Biso   1.000  O
  O14      1.0000 0.28917  0.76819  0.92893  Biso   1.000  O
  O15      1.0000 0.42090  0.40159  0.56410  Biso   1.000  O
  O16      1.0000 0.28450  0.41394  0.48892  Biso   1.000  O
  O17      1.0000 0.97895  0.53390  0.38913  Biso   1.000  O
  O18      1.0000 0.11831  0.50004  0.43597  Biso   1.000  O
  C1       1.0000 0.36620  0.46260  0.04840  Biso   1.000  C
  C2       1.0000 0.32880  0.52470  0.01300  Biso   1.000  C
  C3       1.0000 0.24780  0.53480  0.00730  Biso   1.000  C
  H1       1.0000 0.21400  0.50080  0.01840  Biso   1.000  H
  C4       1.0000 0.21570  0.59660  0.98480  Biso   1.000  C
  H2       1.0000 0.16020  0.60380  0.98010  Biso   1.000  H
  C5       1.0000 0.26620  0.64690  0.96960  Biso   1.000  C
  C6       1.0000 0.34700  0.63660  0.97220  Biso   1.000  C
  H3       1.0000 0.38060  0.67030  0.95990  Biso   1.000  H
  C7       1.0000 0.37800  0.57470  0.99360  Biso   1.000  C
  H4       1.0000 0.43300  0.56680  0.99480  Biso   1.000  H
  C8       1.0000 0.21650  0.75296  0.05110  Biso   1.000  C
  C9       1.0000 0.14080  0.75840  0.07010  Biso   1.000  C
  H5       1.0000 0.09540  0.75080  0.03240  Biso   1.000  H
  C10      1.0000 0.13230  0.77550  0.14670  Biso   1.000  C
  H6       1.0000 0.08040  0.78010  0.15930  Biso   1.000  H
  C11      1.0000 0.19780  0.78580  0.20410  Biso   1.000  C
  C12      1.0000 0.27420  0.78030  0.18390  Biso   1.000  C
  H7       1.0000 0.31970  0.78730  0.22170  Biso   1.000  H
  C13      1.0000 0.28330  0.76420  0.10700  Biso   1.000  C
  H8       1.0000 0.33490  0.76110  0.09360  Biso   1.000  H
  C14      1.0000 0.18660  0.80290  0.28780  Biso   1.000  C
  C15      1.0000 0.20540  0.38250  0.85480  Biso   1.000  C
  C16      1.0000 0.23950  0.39400  0.77980  Biso   1.000  C
  C17      1.0000 0.31960  0.38290  0.77800  Biso   1.000  C
  H9       1.0000 0.35320  0.36860  0.82330  Biso   1.000  H
  C18      1.0000 0.35120  0.39250  0.70990  Biso   1.000  C
  H10      1.0000 0.40580  0.38430  0.70900  Biso   1.000  H
  C19      1.0000 0.30210  0.41430  0.64290  Biso   1.000  C
  C20      1.0000 0.22240  0.42440  0.64200  Biso   1.000  C
  H11      1.0000 0.18920  0.43830  0.59630  Biso   1.000  H
  C21      1.0000 0.19100  0.41370  0.71080  Biso   1.000  C
  H12      1.0000 0.13580  0.41980  0.71060  Biso   1.000  H
  C22      1.0000 0.35430  0.51760  0.55670  Biso   1.000  C
  C23      1.0000 0.29420  0.55670  0.51830  Biso   1.000  C
  H13      1.0000 0.24600  0.53800  0.49340  Biso   1.000  H
  C24      1.0000 0.30520  0.62370  0.51650  Biso   1.000  C
  H14      1.0000 0.26440  0.65010  0.48950  Biso   1.000  H
  C25      1.0000 0.37490  0.65260  0.55370  Biso   1.000  C
  C26      1.0000 0.43370  0.61260  0.59390  Biso   1.000  C
  H15      1.0000 0.48090  0.63120  0.62090  Biso   1.000  H
  C27      1.0000 0.42360  0.54500  0.59460  Biso   1.000  C
  H16      1.0000 0.46440  0.51830  0.62100  Biso   1.000  H
  C28      1.0000 0.38410  0.72650  0.54820  Biso   1.000  C
  C29      1.0000 0.07200  0.40440  0.06110  Biso   1.000  C
  C30      1.0000 0.06710  0.42820  0.14290  Biso   1.000  C
  C31      1.0000 0.99480  0.45290  0.15940  Biso   1.000  C
  H17      1.0000 0.95040  0.45640  0.11960  Biso   1.000  H
  C32      1.0000 0.98840  0.47240  0.23550  Biso   1.000  C
  H18      1.0000 0.94000  0.49030  0.24600  Biso   1.000  H
  C33      1.0000 0.05200  0.46560  0.29470  Biso   1.000  C
  C34      1.0000 0.12450  0.44170  0.27910  Biso   1.000  C
  H19      1.0000 0.16860  0.43750  0.31940  Biso   1.000  H
  C35      1.0000 0.13150  0.42370  0.20260  Biso   1.000  C
  H20      1.0000 0.18100  0.40830  0.19170  Biso   1.000  H
  C36      1.0000 0.00630  0.41200  0.42990  Biso   1.000  C
  C37      1.0000 0.06000  0.36680  0.47010  Biso   1.000  C
  H21      1.0000 0.11560  0.37440  0.47670  Biso   1.000  H
  C38      1.0000 0.03010  0.31060  0.50000  Biso   1.000  C
  H22      1.0000 0.06570  0.28040  0.52760  Biso   1.000  H
  C39      1.0000 0.94850  0.29870  0.48930  Biso   1.000  C
  C40      1.0000 0.89700  0.34430  0.44840  Biso   1.000  C
  H23      1.0000 0.84150  0.33610  0.44030  Biso   1.000  H
  C41      1.0000 0.92490  0.40100  0.41930  Biso   1.000  C
  H24      1.0000 0.88900  0.43160  0.39280  Biso   1.000  H
  C42      1.0000 0.91660  0.23740  0.52370  Biso   1.000  C
  C43      1.0000 0.39420  0.47050  0.28410  Biso   1.000  C
  C44      1.0000 0.36190  0.49360  0.35110  Biso   1.000  C
  H25      1.0000 0.30510  0.48340  0.34480  Biso   1.000  H
  H26      1.0000 0.36920  0.54040  0.35590  Biso   1.000  H
  H27      1.0000 0.38950  0.47240  0.39770  Biso   1.000  H
  Mn4      1.0000 0.25043  0.83421  0.46386  Biso   1.000  Mn
  Mn5      1.0000 0.05454  0.87409  0.36066  Biso   1.000  Mn
  Mn6      1.0000 0.44780  0.85504  0.58305  Biso   1.000  Mn
  S4       1.0000 0.27167  0.22822  0.54578  Biso   1.000  S
  S5       1.0000 0.15705  0.93047  0.94432  Biso   1.000  S
  S6       1.0000 0.45885  0.98581  0.10714  Biso   1.000  S
  N2       1.0000 0.07840  0.94780  0.26690  Biso   1.000  N
  O19      1.0000 0.16830  0.25731  0.99410  Biso   1.000  O
  O20      1.0000 0.65713  0.73383  0.98073  Biso   1.000  O
  O21      1.0000 0.17717  0.91845  0.42786  Biso   1.000  O
  O22      1.0000 0.24884  0.86620  0.58479  Biso   1.000  O
  O23      1.0000 0.25344  0.30952  0.16047  Biso   1.000  O
  O24      1.0000 0.36143  0.89339  0.45872  Biso   1.000  O
  O25      1.0000 0.38402  0.30824  0.20087  Biso   1.000  O
  O26      1.0000 0.53354  0.69589  0.94590  Biso   1.000  O
  O27      1.0000 0.05962  0.95800  0.44000  Biso   1.000  O
  O28      1.0000 0.36928  0.88992  0.65114  Biso   1.000  O
  O29      1.0000 0.05484  0.25258  0.91250  Biso   1.000  O
  O30      1.0000 0.49108  0.89609  0.48613  Biso   1.000  O
  O31      1.0000 0.34838  0.22476  0.59327  Biso   1.000  O
  O32      1.0000 0.21083  0.26819  0.57107  Biso   1.000  O
  O33      1.0000 0.07910  0.90159  0.93590  Biso   1.000  O
  O34      1.0000 0.21550  0.91394  0.01108  Biso   1.000  O
  O35      1.0000 0.52105  0.03390  0.11087  Biso   1.000  O
  O36      1.0000 0.38169  0.00004  0.06403  Biso   1.000  O
  C45      1.0000 0.13380  0.96260  0.45160  Biso   1.000  C
  C46      1.0000 0.17120  0.02470  0.48700  Biso   1.000  C
  C47      1.0000 0.25220  0.03480  0.49270  Biso   1.000  C
  H28      1.0000 0.28600  0.00080  0.48160  Biso   1.000  H
  C48      1.0000 0.28430  0.09660  0.51520  Biso   1.000  C
  H29      1.0000 0.33980  0.10380  0.51990  Biso   1.000  H
  C49      1.0000 0.23380  0.14690  0.53040  Biso   1.000  C
  C50      1.0000 0.15300  0.13660  0.52780  Biso   1.000  C
  H30      1.0000 0.11940  0.17030  0.54010  Biso   1.000  H
  C51      1.0000 0.12200  0.07470  0.50640  Biso   1.000  C
  H31      1.0000 0.06700  0.06680  0.50520  Biso   1.000  H
  C52      1.0000 0.28350  0.25296  0.44890  Biso   1.000  C
  C53      1.0000 0.35920  0.25840  0.42990  Biso   1.000  C
  H32      1.0000 0.40460  0.25080  0.46760  Biso   1.000  H
  C54      1.0000 0.36770  0.27550  0.35330  Biso   1.000  C
  H33      1.0000 0.41960  0.28010  0.34070  Biso   1.000  H
  C55      1.0000 0.30220  0.28580  0.29590  Biso   1.000  C
  C56      1.0000 0.22580  0.28030  0.31610  Biso   1.000  C
  H34      1.0000 0.18030  0.28730  0.27830  Biso   1.000  H
  C57      1.0000 0.21670  0.26420  0.39300  Biso   1.000  C
  H35      1.0000 0.16510  0.26110  0.40640  Biso   1.000  H
  C58      1.0000 0.31340  0.30290  0.21220  Biso   1.000  C
  C59      1.0000 0.29460  0.88250  0.64520  Biso   1.000  C
  C60      1.0000 0.26050  0.89400  0.72020  Biso   1.000  C
  C61      1.0000 0.18040  0.88290  0.72200  Biso   1.000  C
  H36      1.0000 0.14680  0.86860  0.67670  Biso   1.000  H
  C62      1.0000 0.14880  0.89250  0.79010  Biso   1.000  C
  H37      1.0000 0.09420  0.88430  0.79100  Biso   1.000  H
  C63      1.0000 0.19790  0.91430  0.85710  Biso   1.000  C
  C64      1.0000 0.27760  0.92440  0.85800  Biso   1.000  C
  H38      1.0000 0.31080  0.93830  0.90370  Biso   1.000  H
  C65      1.0000 0.30900  0.91370  0.78920  Biso   1.000  C
  H39      1.0000 0.36420  0.91980  0.78940  Biso   1.000  H
  C66      1.0000 0.14570  0.01760  0.94330  Biso   1.000  C
  C67      1.0000 0.20580  0.05670  0.98170  Biso   1.000  C
  H40      1.0000 0.25400  0.03800  0.00660  Biso   1.000  H
  C68      1.0000 0.19480  0.12370  0.98350  Biso   1.000  C
  H41      1.0000 0.23560  0.15010  0.01050  Biso   1.000  H
  C69      1.0000 0.12510  0.15260  0.94630  Biso   1.000  C
  C70      1.0000 0.06630  0.11260  0.90610  Biso   1.000  C
  H42      1.0000 0.01910  0.13120  0.87910  Biso   1.000  H
  C71      1.0000 0.07640  0.04500  0.90540  Biso   1.000  C
  H43      1.0000 0.03560  0.01830  0.87900  Biso   1.000  H
  C72      1.0000 0.11590  0.22650  0.95180  Biso   1.000  C
  C73      1.0000 0.42800  0.90440  0.43890  Biso   1.000  C
  C74      1.0000 0.43290  0.92820  0.35710  Biso   1.000  C
  C75      1.0000 0.50520  0.95290  0.34060  Biso   1.000  C
  H44      1.0000 0.54960  0.95640  0.38040  Biso   1.000  H
  C76      1.0000 0.51160  0.97240  0.26450  Biso   1.000  C
  H45      1.0000 0.56000  0.99030  0.25400  Biso   1.000  H
  C77      1.0000 0.44800  0.96560  0.20530  Biso   1.000  C
  C78      1.0000 0.37550  0.94170  0.22090  Biso   1.000  C
  H46      1.0000 0.33140  0.93750  0.18060  Biso   1.000  H
  C79      1.0000 0.36850  0.92370  0.29740  Biso   1.000  C
  H47      1.0000 0.31900  0.90830  0.30830  Biso   1.000  H
  C80      1.0000 0.49370  0.91200  0.07010  Biso   1.000  C
  C81      1.0000 0.44000  0.86680  0.02990  Biso   1.000  C
  H48      1.0000 0.38440  0.87440  0.02330  Biso   1.000  H
  C82      1.0000 0.46990  0.81060  0.00000  Biso   1.000  C
  H49      1.0000 0.43430  0.78040  0.97240  Biso   1.000  H
  C83      1.0000 0.55150  0.79870  0.01070  Biso   1.000  C
  C84      1.0000 0.60300  0.84430  0.05160  Biso   1.000  C
  H50      1.0000 0.65850  0.83610  0.05970  Biso   1.000  H
  C85      1.0000 0.57510  0.90100  0.08070  Biso   1.000  C
  H51      1.0000 0.61100  0.93160  0.10720  Biso   1.000  H
  C86      1.0000 0.58340  0.73740  0.97630  Biso   1.000  C
  C87      1.0000 0.10580  0.97050  0.21590  Biso   1.000  C
  C88      1.0000 0.13810  0.99360  0.14890  Biso   1.000  C
  H52      1.0000 0.19490  0.98340  0.15520  Biso   1.000  H
  H53      1.0000 0.13080  0.04040  0.14410  Biso   1.000  H
  H54      1.0000 0.11050  0.97240  0.10230  Biso   1.000  H
  Mn7      1.0000 0.75043  0.66579  0.96386  Biso   1.000  Mn
  Mn8      1.0000 0.55454  0.62591  0.86066  Biso   1.000  Mn
  Mn9      1.0000 0.94780  0.64496  0.08305  Biso   1.000  Mn
  S7       1.0000 0.77167  0.27178  0.04578  Biso   1.000  S
  S8       1.0000 0.65705  0.56953  0.44432  Biso   1.000  S
  S9       1.0000 0.95885  0.51419  0.60714  Biso   1.000  S
  N3       1.0000 0.57840  0.55220  0.76690  Biso   1.000  N
  O37      1.0000 0.66830  0.24269  0.49410  Biso   1.000  O
  O38      1.0000 0.15713  0.76617  0.48073  Biso   1.000  O
  O39      1.0000 0.67717  0.58155  0.92786  Biso   1.000  O
  O40      1.0000 0.74884  0.63380  0.08479  Biso   1.000  O
  O41      1.0000 0.75344  0.19048  0.66047  Biso   1.000  O
  O42      1.0000 0.86143  0.60661  0.95872  Biso   1.000  O
  O43      1.0000 0.88402  0.19176  0.70087  Biso   1.000  O
  O44      1.0000 0.03354  0.80411  0.44590  Biso   1.000  O
  O45      1.0000 0.55962  0.54200  0.94000  Biso   1.000  O
  O46      1.0000 0.86928  0.61008  0.15114  Biso   1.000  O
  O47      1.0000 0.55484  0.24742  0.41250  Biso   1.000  O
  O48      1.0000 0.99108  0.60391  0.98613  Biso   1.000  O
  O49      1.0000 0.84838  0.27524  0.09327  Biso   1.000  O
  O50      1.0000 0.71083  0.23181  0.07107  Biso   1.000  O
  O51      1.0000 0.57910  0.59841  0.43590  Biso   1.000  O
  O52      1.0000 0.71550  0.58606  0.51108  Biso   1.000  O
  O53      1.0000 0.02105  0.46610  0.61087  Biso   1.000  O
  O54      1.0000 0.88169  0.49996  0.56403  Biso   1.000  O
  C89      1.0000 0.63380  0.53740  0.95160  Biso   1.000  C
  C90      1.0000 0.67120  0.47530  0.98700  Biso   1.000  C
  C91      1.0000 0.75220  0.46520  0.99270  Biso   1.000  C
  H55      1.0000 0.78600  0.49920  0.98160  Biso   1.000  H
  C92      1.0000 0.78430  0.40340  0.01520  Biso   1.000  C
  H56      1.0000 0.83980  0.39620  0.01990  Biso   1.000  H
  C93      1.0000 0.73380  0.35310  0.03040  Biso   1.000  C
  C94      1.0000 0.65300  0.36340  0.02780  Biso   1.000  C
  H57      1.0000 0.61940  0.32970  0.04010  Biso   1.000  H
  C95      1.0000 0.62200  0.42530  0.00640  Biso   1.000  C
  H58      1.0000 0.56700  0.43320  0.00520  Biso   1.000  H
  C96      1.0000 0.78350  0.24704  0.94890  Biso   1.000  C
  C97      1.0000 0.85920  0.24160  0.92990  Biso   1.000  C
  H59      1.0000 0.90460  0.24920  0.96760  Biso   1.000  H
  C98      1.0000 0.86770  0.22450  0.85330  Biso   1.000  C
  H60      1.0000 0.91960  0.21990  0.84070  Biso   1.000  H
  C99      1.0000 0.80220  0.21420  0.79590  Biso   1.000  C
  C100     1.0000 0.72580  0.21970  0.81610  Biso   1.000  C
  H61      1.0000 0.68030  0.21270  0.77830  Biso   1.000  H
  C101     1.0000 0.71670  0.23580  0.89300  Biso   1.000  C
  H62      1.0000 0.66510  0.23890  0.90640  Biso   1.000  H
  C102     1.0000 0.81340  0.19710  0.71220  Biso   1.000  C
  C103     1.0000 0.79460  0.61750  0.14520  Biso   1.000  C
  C104     1.0000 0.76050  0.60600  0.22020  Biso   1.000  C
  C105     1.0000 0.68040  0.61710  0.22200  Biso   1.000  C
  H63      1.0000 0.64680  0.63140  0.17670  Biso   1.000  H
  C106     1.0000 0.64880  0.60750  0.29010  Biso   1.000  C
  H64      1.0000 0.59420  0.61570  0.29100  Biso   1.000  H
  C107     1.0000 0.69790  0.58570  0.35710  Biso   1.000  C
  C108     1.0000 0.77760  0.57560  0.35800  Biso   1.000  C
  H65      1.0000 0.81080  0.56170  0.40370  Biso   1.000  H
  C109     1.0000 0.80900  0.58630  0.28920  Biso   1.000  C
  H66      1.0000 0.86420  0.58020  0.28940  Biso   1.000  H
  C110     1.0000 0.64570  0.48240  0.44330  Biso   1.000  C
  C111     1.0000 0.70580  0.44330  0.48170  Biso   1.000  C
  H67      1.0000 0.75400  0.46200  0.50660  Biso   1.000  H
  C112     1.0000 0.69480  0.37630  0.48350  Biso   1.000  C
  H68      1.0000 0.73560  0.34990  0.51050  Biso   1.000  H
  C113     1.0000 0.62510  0.34740  0.44630  Biso   1.000  C
  C114     1.0000 0.56630  0.38740  0.40610  Biso   1.000  C
  H69      1.0000 0.51910  0.36880  0.37910  Biso   1.000  H
  C115     1.0000 0.57640  0.45500  0.40540  Biso   1.000  C
  H70      1.0000 0.53560  0.48170  0.37900  Biso   1.000  H
  C116     1.0000 0.61590  0.27350  0.45180  Biso   1.000  C
  C117     1.0000 0.92800  0.59560  0.93890  Biso   1.000  C
  C118     1.0000 0.93290  0.57180  0.85710  Biso   1.000  C
  C119     1.0000 0.00520  0.54710  0.84060  Biso   1.000  C
  H71      1.0000 0.04960  0.54360  0.88040  Biso   1.000  H
  C120     1.0000 0.01160  0.52760  0.76450  Biso   1.000  C
  H72      1.0000 0.06000  0.50970  0.75400  Biso   1.000  H
  C121     1.0000 0.94800  0.53440  0.70530  Biso   1.000  C
  C122     1.0000 0.87550  0.55830  0.72090  Biso   1.000  C
  H73      1.0000 0.83140  0.56250  0.68060  Biso   1.000  H
  C123     1.0000 0.86850  0.57630  0.79740  Biso   1.000  C
  H74      1.0000 0.81900  0.59170  0.80830  Biso   1.000  H
  C124     1.0000 0.99370  0.58800  0.57010  Biso   1.000  C
  C125     1.0000 0.94000  0.63320  0.52990  Biso   1.000  C
  H75      1.0000 0.88440  0.62560  0.52330  Biso   1.000  H
  C126     1.0000 0.96990  0.68940  0.50000  Biso   1.000  C
  H76      1.0000 0.93430  0.71960  0.47240  Biso   1.000  H
  C127     1.0000 0.05150  0.70130  0.51070  Biso   1.000  C
  C128     1.0000 0.10300  0.65570  0.55160  Biso   1.000  C
  H77      1.0000 0.15850  0.66390  0.55970  Biso   1.000  H
  C129     1.0000 0.07510  0.59900  0.58070  Biso   1.000  C
  H78      1.0000 0.11100  0.56840  0.60720  Biso   1.000  H
  C130     1.0000 0.08340  0.76260  0.47630  Biso   1.000  C
  C131     1.0000 0.60580  0.52950  0.71590  Biso   1.000  C
  C132     1.0000 0.63810  0.50640  0.64890  Biso   1.000  C
  H79      1.0000 0.69490  0.51660  0.65520  Biso   1.000  H
  H80      1.0000 0.63080  0.45960  0.64410  Biso   1.000  H
  H81      1.0000 0.61050  0.52760  0.60230  Biso   1.000  H
  Mn10     1.0000 0.74957  0.16579  0.53614  Biso   1.000  Mn
  Mn11     1.0000 0.94546  0.12591  0.63934  Biso   1.000  Mn
  Mn12     1.0000 0.55220  0.14496  0.41695  Biso   1.000  Mn
  S10      1.0000 0.72833  0.77178  0.45422  Biso   1.000  S
  S11      1.0000 0.84295  0.06953  0.05568  Biso   1.000  S
  S12      1.0000 0.54115  0.01419  0.89286  Biso   1.000  S
  N4       1.0000 0.92160  0.05220  0.73310  Biso   1.000  N
  O55      1.0000 0.83170  0.74269  0.00590  Biso   1.000  O
  O56      1.0000 0.34287  0.26617  0.01927  Biso   1.000  O
  O57      1.0000 0.82283  0.08155  0.57214  Biso   1.000  O
  O58      1.0000 0.75116  0.13380  0.41521  Biso   1.000  O
  O59      1.0000 0.74656  0.69048  0.83953  Biso   1.000  O
  O60      1.0000 0.63857  0.10661  0.54128  Biso   1.000  O
  O61      1.0000 0.61598  0.69176  0.79913  Biso   1.000  O
  O62      1.0000 0.46646  0.30411  0.05410  Biso   1.000  O
  O63      1.0000 0.94038  0.04200  0.56000  Biso   1.000  O
  O64      1.0000 0.63072  0.11008  0.34886  Biso   1.000  O
  O65      1.0000 0.94516  0.74742  0.08750  Biso   1.000  O
  O66      1.0000 0.50892  0.10391  0.51387  Biso   1.000  O
  O67      1.0000 0.65162  0.77524  0.40673  Biso   1.000  O
  O68      1.0000 0.78917  0.73181  0.42893  Biso   1.000  O
  O69      1.0000 0.92090  0.09841  0.06410  Biso   1.000  O
  O70      1.0000 0.78450  0.08606  0.98892  Biso   1.000  O
  O71      1.0000 0.47895  0.96610  0.88913  Biso   1.000  O
  O72      1.0000 0.61831  0.99996  0.93597  Biso   1.000  O
  C133     1.0000 0.86620  0.03740  0.54840  Biso   1.000  C
  C134     1.0000 0.82880  0.97530  0.51300  Biso   1.000  C
  C135     1.0000 0.74780  0.96520  0.50730  Biso   1.000  C
  H82      1.0000 0.71400  0.99920  0.51840  Biso   1.000  H
  C136     1.0000 0.71570  0.90340  0.48480  Biso   1.000  C
  H83      1.0000 0.66020  0.89620  0.48010  Biso   1.000  H
  C137     1.0000 0.76620  0.85310  0.46960  Biso   1.000  C
  C138     1.0000 0.84700  0.86340  0.47220  Biso   1.000  C
  H84      1.0000 0.88060  0.82970  0.45990  Biso   1.000  H
  C139     1.0000 0.87800  0.92530  0.49360  Biso   1.000  C
  H85      1.0000 0.93300  0.93320  0.49480  Biso   1.000  H
  C140     1.0000 0.71650  0.74704  0.55110  Biso   1.000  C
  C141     1.0000 0.64080  0.74160  0.57010  Biso   1.000  C
  H86      1.0000 0.59540  0.74920  0.53240  Biso   1.000  H
  C142     1.0000 0.63230  0.72450  0.64670  Biso   1.000  C
  H87      1.0000 0.58040  0.71990  0.65930  Biso   1.000  H
  C143     1.0000 0.69780  0.71420  0.70410  Biso   1.000  C
  C144     1.0000 0.77420  0.71970  0.68390  Biso   1.000  C
  H88      1.0000 0.81970  0.71270  0.72170  Biso   1.000  H
  C145     1.0000 0.78330  0.73580  0.60700  Biso   1.000  C
  H89      1.0000 0.83490  0.73890  0.59360  Biso   1.000  H
  C146     1.0000 0.68660  0.69710  0.78780  Biso   1.000  C
  C147     1.0000 0.70540  0.11750  0.35480  Biso   1.000  C
  C148     1.0000 0.73950  0.10600  0.27980  Biso   1.000  C
  C149     1.0000 0.81960  0.11710  0.27800  Biso   1.000  C
  H90      1.0000 0.85320  0.13140  0.32330  Biso   1.000  H
  C150     1.0000 0.85120  0.10750  0.20990  Biso   1.000  C
  H91      1.0000 0.90580  0.11570  0.20900  Biso   1.000  H
  C151     1.0000 0.80210  0.08570  0.14290  Biso   1.000  C
  C152     1.0000 0.72240  0.07560  0.14200  Biso   1.000  C
  H92      1.0000 0.68920  0.06170  0.09630  Biso   1.000  H
  C153     1.0000 0.69100  0.08630  0.21080  Biso   1.000  C
  H93      1.0000 0.63580  0.08020  0.21060  Biso   1.000  H
  C154     1.0000 0.85430  0.98240  0.05670  Biso   1.000  C
  C155     1.0000 0.79420  0.94330  0.01830  Biso   1.000  C
  H94      1.0000 0.74600  0.96200  0.99340  Biso   1.000  H
  C156     1.0000 0.80520  0.87630  0.01650  Biso   1.000  C
  H95      1.0000 0.76440  0.84990  0.98950  Biso   1.000  H
  C157     1.0000 0.87490  0.84740  0.05370  Biso   1.000  C
  C158     1.0000 0.93370  0.88740  0.09390  Biso   1.000  C
  H96      1.0000 0.98090  0.86880  0.12090  Biso   1.000  H
  C159     1.0000 0.92360  0.95500  0.09460  Biso   1.000  C
  H97      1.0000 0.96440  0.98170  0.12100  Biso   1.000  H
  C160     1.0000 0.88410  0.77350  0.04820  Biso   1.000  C
  C161     1.0000 0.57200  0.09560  0.56110  Biso   1.000  C
  C162     1.0000 0.56710  0.07180  0.64290  Biso   1.000  C
  C163     1.0000 0.49480  0.04710  0.65940  Biso   1.000  C
  H98      1.0000 0.45040  0.04360  0.61960  Biso   1.000  H
  C164     1.0000 0.48840  0.02760  0.73550  Biso   1.000  C
  H99      1.0000 0.44000  0.00970  0.74600  Biso   1.000  H
  C165     1.0000 0.55200  0.03440  0.79470  Biso   1.000  C
  C166     1.0000 0.62450  0.05830  0.77910  Biso   1.000  C
  H100     1.0000 0.66860  0.06250  0.81940  Biso   1.000  H
  C167     1.0000 0.63150  0.07630  0.70260  Biso   1.000  C
  H101     1.0000 0.68100  0.09170  0.69170  Biso   1.000  H
  C168     1.0000 0.50630  0.08800  0.92990  Biso   1.000  C
  C169     1.0000 0.56000  0.13320  0.97010  Biso   1.000  C
  H102     1.0000 0.61560  0.12560  0.97670  Biso   1.000  H
  C170     1.0000 0.53010  0.18940  0.00000  Biso   1.000  C
  H103     1.0000 0.56570  0.21960  0.02760  Biso   1.000  H
  C171     1.0000 0.44850  0.20130  0.98930  Biso   1.000  C
  C172     1.0000 0.39700  0.15570  0.94840  Biso   1.000  C
  H104     1.0000 0.34150  0.16390  0.94030  Biso   1.000  H
  C173     1.0000 0.42490  0.09900  0.91930  Biso   1.000  C
  H105     1.0000 0.38900  0.06840  0.89280  Biso   1.000  H
  C174     1.0000 0.41660  0.26260  0.02370  Biso   1.000  C
  C175     1.0000 0.89420  0.02950  0.78410  Biso   1.000  C
  C176     1.0000 0.86190  0.00640  0.85110  Biso   1.000  C
  H106     1.0000 0.80510  0.01660  0.84480  Biso   1.000  H
  H107     1.0000 0.86920  0.95960  0.85590  Biso   1.000  H
  H108     1.0000 0.88950  0.02760  0.89770  Biso   1.000  H
