data_image0
_cell_length_a       16.7094
_cell_length_b       20.2857
_cell_length_c       17.1936
_cell_angle_alpha    90
_cell_angle_beta     99.178
_cell_angle_gamma    90

_symmetry_space_group_name_H-M    "P 1"
_symmetry_int_tables_number       1

loop_
  _symmetry_equiv_pos_as_xyz
  'x, y, z'

loop_
  _atom_site_label
  _atom_site_occupancy
  _atom_site_fract_x
  _atom_site_fract_y
  _atom_site_fract_z
  _atom_site_thermal_displace_type
  _atom_site_B_iso_or_equiv
  _atom_site_type_symbol
  Mn1      1.0000 0.03479  0.16486  0.24894  Biso   1.000  Mn
  Mn2      1.0000 0.14082  0.12122  0.44521  Biso   1.000  Mn
  Mn3      1.0000 0.91367  0.14359  0.05064  Biso   1.000  Mn
  S1       1.0000 0.89571  0.48405  0.54291  Biso   1.000  S
  S2       1.0000 0.55085  0.27200  0.27372  Biso   1.000  S
  S3       1.0000 0.94806  0.56815  0.15331  Biso   1.000  S
  O1       1.0000 0.99510  0.24263  0.16860  Biso   1.000  O
  O2       1.0000 0.43020  0.58019  0.17900  Biso   1.000  O
  O3       1.0000 0.58840  0.63260  0.25290  Biso   1.000  O
  O4       1.0000 0.01770  0.23113  0.34310  Biso   1.000  O
  O5       1.0000 0.16140  0.19097  0.25440  Biso   1.000  O
  O6       1.0000 0.53880  0.39384  0.63760  Biso   1.000  O
  O7       1.0000 0.20490  0.18420  0.38470  Biso   1.000  O
  O8       1.0000 0.05700  0.19399  0.46680  Biso   1.000  O
  O9       1.0000 0.44420  0.54093  0.06250  Biso   1.000  O
  O10      1.0000 0.65680  0.61031  0.37190  Biso   1.000  O
  O11      1.0000 0.91670  0.24588  0.05310  Biso   1.000  O
  O12      1.0000 0.51120  0.39990  0.50780  Biso   1.000  O
  O13      1.0000 0.89290  0.53225  0.48080  Biso   1.000  O
  O14      1.0000 0.94010  0.49776  0.61990  Biso   1.000  O
  O15      1.0000 0.59900  0.27421  0.35070  Biso   1.000  O
  O16      1.0000 0.57610  0.23217  0.21290  Biso   1.000  O
  O17      1.0000 0.93750  0.59850  0.07700  Biso   1.000  O
  O18      1.0000 0.01700  0.58450  0.21220  Biso   1.000  O
  C1       1.0000 0.02390  0.23460  0.41630  Biso   1.000  C
  C2       1.0000 0.99020  0.29590  0.44910  Biso   1.000  C
  C3       1.0000 0.94930  0.34170  0.39830  Biso   1.000  C
  H1       1.0000 0.94130  0.33400  0.34430  Biso   1.000  H
  C4       1.0000 0.92030  0.39870  0.42700  Biso   1.000  C
  H2       1.0000 0.89350  0.42980  0.39240  Biso   1.000  H
  C5       1.0000 0.93100  0.40980  0.50750  Biso   1.000  C
  C6       1.0000 0.97060  0.36500  0.55990  Biso   1.000  C
  H3       1.0000 0.97690  0.37260  0.61390  Biso   1.000  H
  C7       1.0000 0.00090  0.30770  0.53050  Biso   1.000  C
  H4       1.0000 0.02850  0.27710  0.56510  Biso   1.000  H
  C8       1.0000 0.79590  0.46570  0.55420  Biso   1.000  C
  C9       1.0000 0.73590  0.47340  0.48900  Biso   1.000  C
  H5       1.0000 0.74780  0.49060  0.44200  Biso   1.000  H
  C10      1.0000 0.65880  0.45470  0.49630  Biso   1.000  C
  H6       1.0000 0.61730  0.45880  0.45360  Biso   1.000  H
  C11      1.0000 0.64200  0.42960  0.56790  Biso   1.000  C
  C12      1.0000 0.70170  0.42520  0.63240  Biso   1.000  C
  H7       1.0000 0.68960  0.41060  0.68050  Biso   1.000  H
  C13      1.0000 0.78000  0.44280  0.62520  Biso   1.000  C
  H8       1.0000 0.82150  0.43910  0.66790  Biso   1.000  H
  C14      1.0000 0.55950  0.40660  0.57180  Biso   1.000  C
  C15      1.0000 0.21450  0.19480  0.31350  Biso   1.000  C
  C16      1.0000 0.29760  0.21430  0.30220  Biso   1.000  C
  C17      1.0000 0.35580  0.22540  0.36880  Biso   1.000  C
  H9       1.0000 0.34200  0.22090  0.41880  Biso   1.000  H
  C18      1.0000 0.43220  0.24270  0.36030  Biso   1.000  C
  H10      1.0000 0.47080  0.25080  0.40450  Biso   1.000  H
  C19      1.0000 0.45290  0.24820  0.28510  Biso   1.000  C
  C20      1.0000 0.39570  0.23710  0.21810  Biso   1.000  C
  H11      1.0000 0.40970  0.24120  0.16810  Biso   1.000  H
  C21      1.0000 0.31840  0.22010  0.22730  Biso   1.000  C
  H12      1.0000 0.27950  0.21240  0.18320  Biso   1.000  H
  C22      1.0000 0.53710  0.35300  0.23550  Biso   1.000  C
  C23      1.0000 0.52200  0.40360  0.28760  Biso   1.000  C
  H13      1.0000 0.52640  0.39620  0.34150  Biso   1.000  H
  C24      1.0000 0.50030  0.46490  0.25520  Biso   1.000  C
  H14      1.0000 0.48990  0.49940  0.28760  Biso   1.000  H
  C25      1.0000 0.49410  0.47500  0.17390  Biso   1.000  C
  C26      1.0000 0.51350  0.42590  0.12540  Biso   1.000  C
  H15      1.0000 0.51200  0.43400  0.07190  Biso   1.000  H
  C27      1.0000 0.53550  0.36390  0.15630  Biso   1.000  C
  H16      1.0000 0.54890  0.33040  0.12390  Biso   1.000  H
  C28      1.0000 0.45610  0.53680  0.13690  Biso   1.000  C
  C29      1.0000 0.95420  0.27280  0.11420  Biso   1.000  C
  C30      1.0000 0.95020  0.34610  0.12240  Biso   1.000  C
  C31      1.0000 0.91660  0.38640  0.05960  Biso   1.000  C
  H17      1.0000 0.89420  0.36760  0.01170  Biso   1.000  H
  C32      1.0000 0.91660  0.45430  0.06850  Biso   1.000  C
  H18      1.0000 0.89540  0.48130  0.02650  Biso   1.000  H
  C33      1.0000 0.94820  0.48140  0.14020  Biso   1.000  C
  C34      1.0000 0.98160  0.44210  0.20390  Biso   1.000  C
  H19      1.0000 0.00270  0.46100  0.25210  Biso   1.000  H
  C35      1.0000 0.98260  0.37470  0.19370  Biso   1.000  C
  H20      1.0000 0.00530  0.34800  0.23540  Biso   1.000  H
  C36      1.0000 0.86160  0.58280  0.19540  Biso   1.000  C
  C37      1.0000 0.79210  0.60260  0.14930  Biso   1.000  C
  H21      1.0000 0.79110  0.60910  0.09560  Biso   1.000  H
  C38      1.0000 0.72430  0.61290  0.18170  Biso   1.000  C
  H22      1.0000 0.67670  0.62580  0.14970  Biso   1.000  H
  C39      1.0000 0.72490  0.60430  0.26240  Biso   1.000  C
  C40      1.0000 0.79540  0.58540  0.30930  Biso   1.000  C
  H23      1.0000 0.79690  0.58020  0.36320  Biso   1.000  H
  C41      1.0000 0.86350  0.57420  0.27640  Biso   1.000  C
  H24      1.0000 0.91110  0.56080  0.30790  Biso   1.000  H
  C42      1.0000 0.65000  0.61670  0.29770  Biso   1.000  C
  Mn4      1.0000 0.46521  0.66486  0.25106  Biso   1.000  Mn
  Mn5      1.0000 0.35918  0.62122  0.05479  Biso   1.000  Mn
  Mn6      1.0000 0.58633  0.64359  0.44936  Biso   1.000  Mn
  S4       1.0000 0.60429  0.98405  0.95709  Biso   1.000  S
  S5       1.0000 0.94915  0.77200  0.22628  Biso   1.000  S
  S6       1.0000 0.55194  0.06815  0.34669  Biso   1.000  S
  O19      1.0000 0.50490  0.74263  0.33140  Biso   1.000  O
  O20      1.0000 0.06980  0.08019  0.32100  Biso   1.000  O
  O21      1.0000 0.91160  0.13260  0.24710  Biso   1.000  O
  O22      1.0000 0.48230  0.73113  0.15690  Biso   1.000  O
  O23      1.0000 0.33860  0.69097  0.24560  Biso   1.000  O
  O24      1.0000 0.96120  0.89384  0.86240  Biso   1.000  O
  O25      1.0000 0.29510  0.68420  0.11530  Biso   1.000  O
  O26      1.0000 0.44300  0.69399  0.03320  Biso   1.000  O
  O27      1.0000 0.05580  0.04093  0.43750  Biso   1.000  O
  O28      1.0000 0.84320  0.11031  0.12810  Biso   1.000  O
  O29      1.0000 0.58330  0.74588  0.44690  Biso   1.000  O
  O30      1.0000 0.98880  0.89990  0.99220  Biso   1.000  O
  O31      1.0000 0.60710  0.03225  0.01920  Biso   1.000  O
  O32      1.0000 0.55990  0.99776  0.88010  Biso   1.000  O
  O33      1.0000 0.90100  0.77421  0.14930  Biso   1.000  O
  O34      1.0000 0.92390  0.73217  0.28710  Biso   1.000  O
  O35      1.0000 0.56250  0.09850  0.42300  Biso   1.000  O
  O36      1.0000 0.48300  0.08450  0.28780  Biso   1.000  O
  C43      1.0000 0.47610  0.73460  0.08370  Biso   1.000  C
  C44      1.0000 0.50980  0.79590  0.05090  Biso   1.000  C
  C45      1.0000 0.55070  0.84170  0.10170  Biso   1.000  C
  H25      1.0000 0.55870  0.83400  0.15570  Biso   1.000  H
  C46      1.0000 0.57970  0.89870  0.07300  Biso   1.000  C
  H26      1.0000 0.60650  0.92980  0.10760  Biso   1.000  H
  C47      1.0000 0.56900  0.90980  0.99250  Biso   1.000  C
  C48      1.0000 0.52940  0.86500  0.94010  Biso   1.000  C
  H27      1.0000 0.52310  0.87260  0.88610  Biso   1.000  H
  C49      1.0000 0.49910  0.80770  0.96950  Biso   1.000  C
  H28      1.0000 0.47150  0.77710  0.93490  Biso   1.000  H
  C50      1.0000 0.70410  0.96570  0.94580  Biso   1.000  C
  C51      1.0000 0.76410  0.97340  0.01100  Biso   1.000  C
  H29      1.0000 0.75220  0.99060  0.05800  Biso   1.000  H
  C52      1.0000 0.84120  0.95470  0.00370  Biso   1.000  C
  H30      1.0000 0.88270  0.95880  0.04640  Biso   1.000  H
  C53      1.0000 0.85800  0.92960  0.93210  Biso   1.000  C
  C54      1.0000 0.79830  0.92520  0.86760  Biso   1.000  C
  H31      1.0000 0.81040  0.91060  0.81950  Biso   1.000  H
  C55      1.0000 0.72000  0.94280  0.87480  Biso   1.000  C
  H32      1.0000 0.67850  0.93910  0.83210  Biso   1.000  H
  C56      1.0000 0.94050  0.90660  0.92820  Biso   1.000  C
  C57      1.0000 0.28550  0.69480  0.18650  Biso   1.000  C
  C58      1.0000 0.20240  0.71430  0.19780  Biso   1.000  C
  C59      1.0000 0.14420  0.72540  0.13120  Biso   1.000  C
  H33      1.0000 0.15800  0.72090  0.08120  Biso   1.000  H
  C60      1.0000 0.06780  0.74270  0.13970  Biso   1.000  C
  H34      1.0000 0.02920  0.75080  0.09550  Biso   1.000  H
  C61      1.0000 0.04710  0.74820  0.21490  Biso   1.000  C
  C62      1.0000 0.10430  0.73710  0.28190  Biso   1.000  C
  H35      1.0000 0.09030  0.74120  0.33190  Biso   1.000  H
  C63      1.0000 0.18160  0.72010  0.27270  Biso   1.000  C
  H36      1.0000 0.22050  0.71240  0.31680  Biso   1.000  H
  C64      1.0000 0.96290  0.85300  0.26450  Biso   1.000  C
  C65      1.0000 0.97800  0.90360  0.21240  Biso   1.000  C
  H37      1.0000 0.97360  0.89620  0.15850  Biso   1.000  H
  C66      1.0000 0.99970  0.96490  0.24480  Biso   1.000  C
  H38      1.0000 0.01010  0.99940  0.21240  Biso   1.000  H
  C67      1.0000 0.00590  0.97500  0.32610  Biso   1.000  C
  C68      1.0000 0.98650  0.92590  0.37460  Biso   1.000  C
  H39      1.0000 0.98800  0.93400  0.42810  Biso   1.000  H
  C69      1.0000 0.96450  0.86390  0.34370  Biso   1.000  C
  H40      1.0000 0.95110  0.83040  0.37610  Biso   1.000  H
  C70      1.0000 0.04390  0.03680  0.36310  Biso   1.000  C
  C71      1.0000 0.54580  0.77280  0.38580  Biso   1.000  C
  C72      1.0000 0.54980  0.84610  0.37760  Biso   1.000  C
  C73      1.0000 0.58340  0.88640  0.44040  Biso   1.000  C
  H41      1.0000 0.60580  0.86760  0.48830  Biso   1.000  H
  C74      1.0000 0.58340  0.95430  0.43150  Biso   1.000  C
  H42      1.0000 0.60460  0.98130  0.47350  Biso   1.000  H
  C75      1.0000 0.55180  0.98140  0.35980  Biso   1.000  C
  C76      1.0000 0.51840  0.94210  0.29610  Biso   1.000  C
  H43      1.0000 0.49730  0.96100  0.24790  Biso   1.000  H
  C77      1.0000 0.51740  0.87470  0.30630  Biso   1.000  C
  H44      1.0000 0.49470  0.84800  0.26460  Biso   1.000  H
  C78      1.0000 0.63840  0.08280  0.30460  Biso   1.000  C
  C79      1.0000 0.70790  0.10260  0.35070  Biso   1.000  C
  H45      1.0000 0.70890  0.10910  0.40440  Biso   1.000  H
  C80      1.0000 0.77570  0.11290  0.31830  Biso   1.000  C
  H46      1.0000 0.82330  0.12580  0.35030  Biso   1.000  H
  C81      1.0000 0.77510  0.10430  0.23760  Biso   1.000  C
  C82      1.0000 0.70460  0.08540  0.19070  Biso   1.000  C
  H47      1.0000 0.70310  0.08020  0.13680  Biso   1.000  H
  C83      1.0000 0.63650  0.07420  0.22360  Biso   1.000  C
  H48      1.0000 0.58890  0.06080  0.19210  Biso   1.000  H
  C84      1.0000 0.85000  0.11670  0.20230  Biso   1.000  C
  Mn7      1.0000 0.96521  0.83514  0.75106  Biso   1.000  Mn
  Mn8      1.0000 0.85918  0.87878  0.55479  Biso   1.000  Mn
  Mn9      1.0000 0.08633  0.85641  0.94936  Biso   1.000  Mn
  S7       1.0000 0.10429  0.51595  0.45709  Biso   1.000  S
  S8       1.0000 0.44915  0.72800  0.72628  Biso   1.000  S
  S9       1.0000 0.05194  0.43185  0.84669  Biso   1.000  S
  O37      1.0000 0.00490  0.75737  0.83140  Biso   1.000  O
  O38      1.0000 0.56980  0.41981  0.82100  Biso   1.000  O
  O39      1.0000 0.41160  0.36740  0.74710  Biso   1.000  O
  O40      1.0000 0.98230  0.76887  0.65690  Biso   1.000  O
  O41      1.0000 0.83860  0.80903  0.74560  Biso   1.000  O
  O42      1.0000 0.46120  0.60616  0.36240  Biso   1.000  O
  O43      1.0000 0.79510  0.81580  0.61530  Biso   1.000  O
  O44      1.0000 0.94300  0.80601  0.53320  Biso   1.000  O
  O45      1.0000 0.55580  0.45907  0.93750  Biso   1.000  O
  O46      1.0000 0.34320  0.38969  0.62810  Biso   1.000  O
  O47      1.0000 0.08330  0.75412  0.94690  Biso   1.000  O
  O48      1.0000 0.48880  0.60010  0.49220  Biso   1.000  O
  O49      1.0000 0.10710  0.46775  0.51920  Biso   1.000  O
  O50      1.0000 0.05990  0.50224  0.38010  Biso   1.000  O
  O51      1.0000 0.40100  0.72579  0.64930  Biso   1.000  O
  O52      1.0000 0.42390  0.76783  0.78710  Biso   1.000  O
  O53      1.0000 0.06250  0.40150  0.92300  Biso   1.000  O
  O54      1.0000 0.98300  0.41550  0.78780  Biso   1.000  O
  C85      1.0000 0.97610  0.76540  0.58370  Biso   1.000  C
  C86      1.0000 0.00980  0.70410  0.55090  Biso   1.000  C
  C87      1.0000 0.05070  0.65830  0.60170  Biso   1.000  C
  H49      1.0000 0.05870  0.66600  0.65570  Biso   1.000  H
  C88      1.0000 0.07970  0.60130  0.57300  Biso   1.000  C
  H50      1.0000 0.10650  0.57020  0.60760  Biso   1.000  H
  C89      1.0000 0.06900  0.59020  0.49250  Biso   1.000  C
  C90      1.0000 0.02940  0.63500  0.44010  Biso   1.000  C
  H51      1.0000 0.02310  0.62740  0.38610  Biso   1.000  H
  C91      1.0000 0.99910  0.69230  0.46950  Biso   1.000  C
  H52      1.0000 0.97150  0.72290  0.43490  Biso   1.000  H
  C92      1.0000 0.20410  0.53430  0.44580  Biso   1.000  C
  C93      1.0000 0.26410  0.52660  0.51100  Biso   1.000  C
  H53      1.0000 0.25220  0.50940  0.55800  Biso   1.000  H
  C94      1.0000 0.34120  0.54530  0.50370  Biso   1.000  C
  H54      1.0000 0.38270  0.54120  0.54640  Biso   1.000  H
  C95      1.0000 0.35800  0.57040  0.43210  Biso   1.000  C
  C96      1.0000 0.29830  0.57480  0.36760  Biso   1.000  C
  H55      1.0000 0.31040  0.58940  0.31950  Biso   1.000  H
  C97      1.0000 0.22000  0.55720  0.37480  Biso   1.000  C
  H56      1.0000 0.17850  0.56090  0.33210  Biso   1.000  H
  C98      1.0000 0.44050  0.59340  0.42820  Biso   1.000  C
  C99      1.0000 0.78550  0.80520  0.68650  Biso   1.000  C
  C100     1.0000 0.70240  0.78570  0.69780  Biso   1.000  C
  C101     1.0000 0.64420  0.77460  0.63120  Biso   1.000  C
  H57      1.0000 0.65800  0.77910  0.58120  Biso   1.000  H
  C102     1.0000 0.56780  0.75730  0.63970  Biso   1.000  C
  H58      1.0000 0.52920  0.74920  0.59550  Biso   1.000  H
  C103     1.0000 0.54710  0.75180  0.71490  Biso   1.000  C
  C104     1.0000 0.60430  0.76290  0.78190  Biso   1.000  C
  H59      1.0000 0.59030  0.75880  0.83190  Biso   1.000  H
  C105     1.0000 0.68160  0.77990  0.77270  Biso   1.000  C
  H60      1.0000 0.72050  0.78760  0.81680  Biso   1.000  H
  C106     1.0000 0.46290  0.64700  0.76450  Biso   1.000  C
  C107     1.0000 0.47800  0.59640  0.71240  Biso   1.000  C
  H61      1.0000 0.47360  0.60380  0.65850  Biso   1.000  H
  C108     1.0000 0.49970  0.53510  0.74480  Biso   1.000  C
  H62      1.0000 0.51010  0.50060  0.71240  Biso   1.000  H
  C109     1.0000 0.50590  0.52500  0.82610  Biso   1.000  C
  C110     1.0000 0.48650  0.57410  0.87460  Biso   1.000  C
  H63      1.0000 0.48800  0.56600  0.92810  Biso   1.000  H
  C111     1.0000 0.46450  0.63610  0.84370  Biso   1.000  C
  H64      1.0000 0.45110  0.66960  0.87610  Biso   1.000  H
  C112     1.0000 0.54390  0.46320  0.86310  Biso   1.000  C
  C113     1.0000 0.04580  0.72720  0.88580  Biso   1.000  C
  C114     1.0000 0.04980  0.65390  0.87760  Biso   1.000  C
  C115     1.0000 0.08340  0.61360  0.94040  Biso   1.000  C
  H65      1.0000 0.10580  0.63240  0.98830  Biso   1.000  H
  C116     1.0000 0.08340  0.54570  0.93150  Biso   1.000  C
  H66      1.0000 0.10460  0.51870  0.97350  Biso   1.000  H
  C117     1.0000 0.05180  0.51860  0.85980  Biso   1.000  C
  C118     1.0000 0.01840  0.55790  0.79610  Biso   1.000  C
  H67      1.0000 0.99730  0.53900  0.74790  Biso   1.000  H
  C119     1.0000 0.01740  0.62530  0.80630  Biso   1.000  C
  H68      1.0000 0.99470  0.65200  0.76460  Biso   1.000  H
  C120     1.0000 0.13840  0.41720  0.80460  Biso   1.000  C
  C121     1.0000 0.20790  0.39740  0.85070  Biso   1.000  C
  H69      1.0000 0.20890  0.39090  0.90440  Biso   1.000  H
  C122     1.0000 0.27570  0.38710  0.81830  Biso   1.000  C
  H70      1.0000 0.32330  0.37420  0.85030  Biso   1.000  H
  C123     1.0000 0.27510  0.39570  0.73760  Biso   1.000  C
  C124     1.0000 0.20460  0.41460  0.69070  Biso   1.000  C
  H71      1.0000 0.20310  0.41980  0.63680  Biso   1.000  H
  C125     1.0000 0.13650  0.42580  0.72360  Biso   1.000  C
  H72      1.0000 0.08890  0.43920  0.69210  Biso   1.000  H
  C126     1.0000 0.35000  0.38330  0.70230  Biso   1.000  C
  Mn10     1.0000 0.53479  0.33514  0.74894  Biso   1.000  Mn
  Mn11     1.0000 0.64082  0.37878  0.94521  Biso   1.000  Mn
  Mn12     1.0000 0.41367  0.35641  0.55064  Biso   1.000  Mn
  S10      1.0000 0.39571  0.01595  0.04291  Biso   1.000  S
  S11      1.0000 0.05085  0.22800  0.77372  Biso   1.000  S
  S12      1.0000 0.44806  0.93185  0.65331  Biso   1.000  S
  O55      1.0000 0.49510  0.25737  0.66860  Biso   1.000  O
  O56      1.0000 0.93020  0.91981  0.67900  Biso   1.000  O
  O57      1.0000 0.08840  0.86740  0.75290  Biso   1.000  O
  O58      1.0000 0.51770  0.26887  0.84310  Biso   1.000  O
  O59      1.0000 0.66140  0.30903  0.75440  Biso   1.000  O
  O60      1.0000 0.03880  0.10616  0.13760  Biso   1.000  O
  O61      1.0000 0.70490  0.31580  0.88470  Biso   1.000  O
  O62      1.0000 0.55700  0.30601  0.96680  Biso   1.000  O
  O63      1.0000 0.94420  0.95907  0.56250  Biso   1.000  O
  O64      1.0000 0.15680  0.88969  0.87190  Biso   1.000  O
  O65      1.0000 0.41670  0.25412  0.55310  Biso   1.000  O
  O66      1.0000 0.01120  0.10010  0.00780  Biso   1.000  O
  O67      1.0000 0.39290  0.96775  0.98080  Biso   1.000  O
  O68      1.0000 0.44010  0.00224  0.11990  Biso   1.000  O
  O69      1.0000 0.09900  0.22579  0.85070  Biso   1.000  O
  O70      1.0000 0.07610  0.26783  0.71290  Biso   1.000  O
  O71      1.0000 0.43750  0.90150  0.57700  Biso   1.000  O
  O72      1.0000 0.51700  0.91550  0.71220  Biso   1.000  O
  C127     1.0000 0.52390  0.26540  0.91630  Biso   1.000  C
  C128     1.0000 0.49020  0.20410  0.94910  Biso   1.000  C
  C129     1.0000 0.44930  0.15830  0.89830  Biso   1.000  C
  H73      1.0000 0.44130  0.16600  0.84430  Biso   1.000  H
  C130     1.0000 0.42030  0.10130  0.92700  Biso   1.000  C
  H74      1.0000 0.39350  0.07020  0.89240  Biso   1.000  H
  C131     1.0000 0.43100  0.09020  0.00750  Biso   1.000  C
  C132     1.0000 0.47060  0.13500  0.05990  Biso   1.000  C
  H75      1.0000 0.47690  0.12740  0.11390  Biso   1.000  H
  C133     1.0000 0.50090  0.19230  0.03050  Biso   1.000  C
  H76      1.0000 0.52850  0.22290  0.06510  Biso   1.000  H
  C134     1.0000 0.29590  0.03430  0.05420  Biso   1.000  C
  C135     1.0000 0.23590  0.02660  0.98900  Biso   1.000  C
  H77      1.0000 0.24780  0.00940  0.94200  Biso   1.000  H
  C136     1.0000 0.15880  0.04530  0.99630  Biso   1.000  C
  H78      1.0000 0.11730  0.04120  0.95360  Biso   1.000  H
  C137     1.0000 0.14200  0.07040  0.06790  Biso   1.000  C
  C138     1.0000 0.20170  0.07480  0.13240  Biso   1.000  C
  H79      1.0000 0.18960  0.08940  0.18050  Biso   1.000  H
  C139     1.0000 0.28000  0.05720  0.12520  Biso   1.000  C
  H80      1.0000 0.32150  0.06090  0.16790  Biso   1.000  H
  C140     1.0000 0.05950  0.09340  0.07180  Biso   1.000  C
  C141     1.0000 0.71450  0.30520  0.81350  Biso   1.000  C
  C142     1.0000 0.79760  0.28570  0.80220  Biso   1.000  C
  C143     1.0000 0.85580  0.27460  0.86880  Biso   1.000  C
  H81      1.0000 0.84200  0.27910  0.91880  Biso   1.000  H
  C144     1.0000 0.93220  0.25730  0.86030  Biso   1.000  C
  H82      1.0000 0.97080  0.24920  0.90450  Biso   1.000  H
  C145     1.0000 0.95290  0.25180  0.78510  Biso   1.000  C
  C146     1.0000 0.89570  0.26290  0.71810  Biso   1.000  C
  H83      1.0000 0.90970  0.25880  0.66810  Biso   1.000  H
  C147     1.0000 0.81840  0.27990  0.72730  Biso   1.000  C
  H84      1.0000 0.77950  0.28760  0.68320  Biso   1.000  H
  C148     1.0000 0.03710  0.14700  0.73550  Biso   1.000  C
  C149     1.0000 0.02200  0.09640  0.78760  Biso   1.000  C
  H85      1.0000 0.02640  0.10380  0.84150  Biso   1.000  H
  C150     1.0000 0.00030  0.03510  0.75520  Biso   1.000  C
  H86      1.0000 0.98990  0.00060  0.78760  Biso   1.000  H
  C151     1.0000 0.99410  0.02500  0.67390  Biso   1.000  C
  C152     1.0000 0.01350  0.07410  0.62540  Biso   1.000  C
  H87      1.0000 0.01200  0.06600  0.57190  Biso   1.000  H
  C153     1.0000 0.03550  0.13610  0.65630  Biso   1.000  C
  H88      1.0000 0.04890  0.16960  0.62390  Biso   1.000  H
  C154     1.0000 0.95610  0.96320  0.63690  Biso   1.000  C
  C155     1.0000 0.45420  0.22720  0.61420  Biso   1.000  C
  C156     1.0000 0.45020  0.15390  0.62240  Biso   1.000  C
  C157     1.0000 0.41660  0.11360  0.55960  Biso   1.000  C
  H89      1.0000 0.39420  0.13240  0.51170  Biso   1.000  H
  C158     1.0000 0.41660  0.04570  0.56850  Biso   1.000  C
  H90      1.0000 0.39540  0.01870  0.52650  Biso   1.000  H
  C159     1.0000 0.44820  0.01860  0.64020  Biso   1.000  C
  C160     1.0000 0.48160  0.05790  0.70390  Biso   1.000  C
  H91      1.0000 0.50270  0.03900  0.75210  Biso   1.000  H
  C161     1.0000 0.48260  0.12530  0.69370  Biso   1.000  C
  H92      1.0000 0.50530  0.15200  0.73540  Biso   1.000  H
  C162     1.0000 0.36160  0.91720  0.69540  Biso   1.000  C
  C163     1.0000 0.29210  0.89740  0.64930  Biso   1.000  C
  H93      1.0000 0.29110  0.89090  0.59560  Biso   1.000  H
  C164     1.0000 0.22430  0.88710  0.68170  Biso   1.000  C
  H94      1.0000 0.17670  0.87420  0.64970  Biso   1.000  H
  C165     1.0000 0.22490  0.89570  0.76240  Biso   1.000  C
  C166     1.0000 0.29540  0.91460  0.80930  Biso   1.000  C
  H95      1.0000 0.29690  0.91980  0.86320  Biso   1.000  H
  C167     1.0000 0.36350  0.92580  0.77640  Biso   1.000  C
  H96      1.0000 0.41110  0.93920  0.80790  Biso   1.000  H
  C168     1.0000 0.15000  0.88330  0.79770  Biso   1.000  C
