data_image0
_cell_length_a       32.632
_cell_length_b       17.2264
_cell_length_c       10.1532
_cell_angle_alpha    90
_cell_angle_beta     93.448
_cell_angle_gamma    90

_symmetry_space_group_name_H-M    "P 1"
_symmetry_int_tables_number       1

loop_
  _symmetry_equiv_pos_as_xyz
  'x, y, z'

loop_
  _atom_site_label
  _atom_site_occupancy
  _atom_site_fract_x
  _atom_site_fract_y
  _atom_site_fract_z
  _atom_site_thermal_displace_type
  _atom_site_B_iso_or_equiv
  _atom_site_type_symbol
  Eu1      1.0000 0.30826  0.20956  0.00171  Biso   1.000  Eu
  O1       1.0000 0.28392  0.11390  0.15130  Biso   1.000  O
  O2       1.0000 0.23208  0.19000  0.09380  Biso   1.000  O
  O3       1.0000 0.26336  0.86080  0.35500  Biso   1.000  O
  O4       1.0000 0.20130  0.80660  0.33680  Biso   1.000  O
  O5       1.0000 0.37601  0.27380  0.03330  Biso   1.000  O
  O6       1.0000 0.36372  0.19480  0.18950  Biso   1.000  O
  C1       1.0000 0.24550  0.12530  0.13690  Biso   1.000  C
  C2       1.0000 0.21760  0.06060  0.16850  Biso   1.000  C
  C3       1.0000 0.23330  0.99540  0.23170  Biso   1.000  C
  H1       1.0000 0.26110  0.99290  0.25780  Biso   1.000  H
  C4       1.0000 0.20800  0.93390  0.25640  Biso   1.000  C
  C5       1.0000 0.22590  0.86240  0.32340  Biso   1.000  C
  C6       1.0000 0.16730  0.93630  0.21740  Biso   1.000  C
  H2       1.0000 0.15080  0.89390  0.23420  Biso   1.000  H
  C7       1.0000 0.14990  0.99970  0.15390  Biso   1.000  C
  C8       1.0000 0.17710  0.06200  0.12720  Biso   1.000  C
  H3       1.0000 0.16690  0.10480  0.08010  Biso   1.000  H
  C9       1.0000 0.10590  0.00480  0.11070  Biso   1.000  C
  C10      1.0000 0.07910  0.95520  0.15500  Biso   1.000  C
  H4       1.0000 0.08790  0.91840  0.21760  Biso   1.000  H
  C11      1.0000 0.03750  0.95680  0.11000  Biso   1.000  C
  H5       1.0000 0.01980  0.92150  0.14680  Biso   1.000  H
  C12      1.0000 0.02240  0.00280  0.02320  Biso   1.000  C
  C13      1.0000 0.04920  0.05670  0.00200  Biso   1.000  C
  H6       1.0000 0.03960  0.10040  0.95620  Biso   1.000  H
  C14      1.0000 0.08930  0.05520  0.04110  Biso   1.000  C
  H7       1.0000 0.10560  0.09540  0.01300  Biso   1.000  H
  N1       1.0000 0.38670  0.24610  0.14590  Biso   1.000  N
  O7       1.0000 0.41660  0.27030  0.21150  Biso   1.000  O
  Eu2      1.0000 0.80826  0.70956  0.00171  Biso   1.000  Eu
  O8       1.0000 0.78392  0.61390  0.15130  Biso   1.000  O
  O9       1.0000 0.73208  0.69000  0.09380  Biso   1.000  O
  O10      1.0000 0.76336  0.36080  0.35500  Biso   1.000  O
  O11      1.0000 0.70130  0.30660  0.33680  Biso   1.000  O
  O12      1.0000 0.87601  0.77380  0.03330  Biso   1.000  O
  O13      1.0000 0.86372  0.69480  0.18950  Biso   1.000  O
  C15      1.0000 0.74550  0.62530  0.13690  Biso   1.000  C
  C16      1.0000 0.71760  0.56060  0.16850  Biso   1.000  C
  C17      1.0000 0.73330  0.49540  0.23170  Biso   1.000  C
  H8       1.0000 0.76110  0.49290  0.25780  Biso   1.000  H
  C18      1.0000 0.70800  0.43390  0.25640  Biso   1.000  C
  C19      1.0000 0.72590  0.36240  0.32340  Biso   1.000  C
  C20      1.0000 0.66730  0.43630  0.21740  Biso   1.000  C
  H9       1.0000 0.65080  0.39390  0.23420  Biso   1.000  H
  C21      1.0000 0.64990  0.49970  0.15390  Biso   1.000  C
  C22      1.0000 0.67710  0.56200  0.12720  Biso   1.000  C
  H10      1.0000 0.66690  0.60480  0.08010  Biso   1.000  H
  C23      1.0000 0.60590  0.50480  0.11070  Biso   1.000  C
  C24      1.0000 0.57910  0.45520  0.15500  Biso   1.000  C
  H11      1.0000 0.58790  0.41840  0.21760  Biso   1.000  H
  C25      1.0000 0.53750  0.45680  0.11000  Biso   1.000  C
  H12      1.0000 0.51980  0.42150  0.14680  Biso   1.000  H
  C26      1.0000 0.52240  0.50280  0.02320  Biso   1.000  C
  C27      1.0000 0.54920  0.55670  0.00200  Biso   1.000  C
  H13      1.0000 0.53960  0.60040  0.95620  Biso   1.000  H
  C28      1.0000 0.58930  0.55520  0.04110  Biso   1.000  C
  H14      1.0000 0.60560  0.59540  0.01300  Biso   1.000  H
  N2       1.0000 0.88670  0.74610  0.14590  Biso   1.000  N
  O14      1.0000 0.91660  0.77030  0.21150  Biso   1.000  O
  Eu3      1.0000 0.69174  0.20956  0.49829  Biso   1.000  Eu
  O15      1.0000 0.71608  0.11390  0.34870  Biso   1.000  O
  O16      1.0000 0.76792  0.19000  0.40620  Biso   1.000  O
  O17      1.0000 0.73664  0.86080  0.14500  Biso   1.000  O
  O18      1.0000 0.79870  0.80660  0.16320  Biso   1.000  O
  O19      1.0000 0.62399  0.27380  0.46670  Biso   1.000  O
  O20      1.0000 0.63628  0.19480  0.31050  Biso   1.000  O
  C29      1.0000 0.75450  0.12530  0.36310  Biso   1.000  C
  C30      1.0000 0.78240  0.06060  0.33150  Biso   1.000  C
  C31      1.0000 0.76670  0.99540  0.26830  Biso   1.000  C
  H15      1.0000 0.73890  0.99290  0.24220  Biso   1.000  H
  C32      1.0000 0.79200  0.93390  0.24360  Biso   1.000  C
  C33      1.0000 0.77410  0.86240  0.17660  Biso   1.000  C
  C34      1.0000 0.83270  0.93630  0.28260  Biso   1.000  C
  H16      1.0000 0.84920  0.89390  0.26580  Biso   1.000  H
  C35      1.0000 0.85010  0.99970  0.34610  Biso   1.000  C
  C36      1.0000 0.82290  0.06200  0.37280  Biso   1.000  C
  H17      1.0000 0.83310  0.10480  0.41990  Biso   1.000  H
  C37      1.0000 0.89410  0.00480  0.38930  Biso   1.000  C
  C38      1.0000 0.92090  0.95520  0.34500  Biso   1.000  C
  H18      1.0000 0.91210  0.91840  0.28240  Biso   1.000  H
  C39      1.0000 0.96250  0.95680  0.39000  Biso   1.000  C
  H19      1.0000 0.98020  0.92150  0.35320  Biso   1.000  H
  C40      1.0000 0.97760  0.00280  0.47680  Biso   1.000  C
  C41      1.0000 0.95080  0.05670  0.49800  Biso   1.000  C
  H20      1.0000 0.96040  0.10040  0.54380  Biso   1.000  H
  C42      1.0000 0.91070  0.05520  0.45890  Biso   1.000  C
  H21      1.0000 0.89440  0.09540  0.48700  Biso   1.000  H
  N3       1.0000 0.61330  0.24610  0.35410  Biso   1.000  N
  O21      1.0000 0.58340  0.27030  0.28850  Biso   1.000  O
  Eu4      1.0000 0.19174  0.70956  0.49829  Biso   1.000  Eu
  O22      1.0000 0.21608  0.61390  0.34870  Biso   1.000  O
  O23      1.0000 0.26792  0.69000  0.40620  Biso   1.000  O
  O24      1.0000 0.23664  0.36080  0.14500  Biso   1.000  O
  O25      1.0000 0.29870  0.30660  0.16320  Biso   1.000  O
  O26      1.0000 0.12399  0.77380  0.46670  Biso   1.000  O
  O27      1.0000 0.13628  0.69480  0.31050  Biso   1.000  O
  C43      1.0000 0.25450  0.62530  0.36310  Biso   1.000  C
  C44      1.0000 0.28240  0.56060  0.33150  Biso   1.000  C
  C45      1.0000 0.26670  0.49540  0.26830  Biso   1.000  C
  H22      1.0000 0.23890  0.49290  0.24220  Biso   1.000  H
  C46      1.0000 0.29200  0.43390  0.24360  Biso   1.000  C
  C47      1.0000 0.27410  0.36240  0.17660  Biso   1.000  C
  C48      1.0000 0.33270  0.43630  0.28260  Biso   1.000  C
  H23      1.0000 0.34920  0.39390  0.26580  Biso   1.000  H
  C49      1.0000 0.35010  0.49970  0.34610  Biso   1.000  C
  C50      1.0000 0.32290  0.56200  0.37280  Biso   1.000  C
  H24      1.0000 0.33310  0.60480  0.41990  Biso   1.000  H
  C51      1.0000 0.39410  0.50480  0.38930  Biso   1.000  C
  C52      1.0000 0.42090  0.45520  0.34500  Biso   1.000  C
  H25      1.0000 0.41210  0.41840  0.28240  Biso   1.000  H
  C53      1.0000 0.46250  0.45680  0.39000  Biso   1.000  C
  H26      1.0000 0.48020  0.42150  0.35320  Biso   1.000  H
  C54      1.0000 0.47760  0.50280  0.47680  Biso   1.000  C
  C55      1.0000 0.45080  0.55670  0.49800  Biso   1.000  C
  H27      1.0000 0.46040  0.60040  0.54380  Biso   1.000  H
  C56      1.0000 0.41070  0.55520  0.45890  Biso   1.000  C
  H28      1.0000 0.39440  0.59540  0.48700  Biso   1.000  H
  N4       1.0000 0.11330  0.74610  0.35410  Biso   1.000  N
  O28      1.0000 0.08340  0.77030  0.28850  Biso   1.000  O
  Eu5      1.0000 0.69174  0.79044  0.99829  Biso   1.000  Eu
  O29      1.0000 0.71608  0.88610  0.84870  Biso   1.000  O
  O30      1.0000 0.76792  0.81000  0.90620  Biso   1.000  O
  O31      1.0000 0.73664  0.13920  0.64500  Biso   1.000  O
  O32      1.0000 0.79870  0.19340  0.66320  Biso   1.000  O
  O33      1.0000 0.62399  0.72620  0.96670  Biso   1.000  O
  O34      1.0000 0.63628  0.80520  0.81050  Biso   1.000  O
  C57      1.0000 0.75450  0.87470  0.86310  Biso   1.000  C
  C58      1.0000 0.78240  0.93940  0.83150  Biso   1.000  C
  C59      1.0000 0.76670  0.00460  0.76830  Biso   1.000  C
  H29      1.0000 0.73890  0.00710  0.74220  Biso   1.000  H
  C60      1.0000 0.79200  0.06610  0.74360  Biso   1.000  C
  C61      1.0000 0.77410  0.13760  0.67660  Biso   1.000  C
  C62      1.0000 0.83270  0.06370  0.78260  Biso   1.000  C
  H30      1.0000 0.84920  0.10610  0.76580  Biso   1.000  H
  C63      1.0000 0.85010  0.00030  0.84610  Biso   1.000  C
  C64      1.0000 0.82290  0.93800  0.87280  Biso   1.000  C
  H31      1.0000 0.83310  0.89520  0.91990  Biso   1.000  H
  C65      1.0000 0.89410  0.99520  0.88930  Biso   1.000  C
  C66      1.0000 0.92090  0.04480  0.84500  Biso   1.000  C
  H32      1.0000 0.91210  0.08160  0.78240  Biso   1.000  H
  C67      1.0000 0.96250  0.04320  0.89000  Biso   1.000  C
  H33      1.0000 0.98020  0.07850  0.85320  Biso   1.000  H
  C68      1.0000 0.97760  0.99720  0.97680  Biso   1.000  C
  C69      1.0000 0.95080  0.94330  0.99800  Biso   1.000  C
  H34      1.0000 0.96040  0.89960  0.04380  Biso   1.000  H
  C70      1.0000 0.91070  0.94480  0.95890  Biso   1.000  C
  H35      1.0000 0.89440  0.90460  0.98700  Biso   1.000  H
  N5       1.0000 0.61330  0.75390  0.85410  Biso   1.000  N
  O35      1.0000 0.58340  0.72970  0.78850  Biso   1.000  O
  Eu6      1.0000 0.19174  0.29044  0.99829  Biso   1.000  Eu
  O36      1.0000 0.21608  0.38610  0.84870  Biso   1.000  O
  O37      1.0000 0.26792  0.31000  0.90620  Biso   1.000  O
  O38      1.0000 0.23664  0.63920  0.64500  Biso   1.000  O
  O39      1.0000 0.29870  0.69340  0.66320  Biso   1.000  O
  O40      1.0000 0.12399  0.22620  0.96670  Biso   1.000  O
  O41      1.0000 0.13628  0.30520  0.81050  Biso   1.000  O
  C71      1.0000 0.25450  0.37470  0.86310  Biso   1.000  C
  C72      1.0000 0.28240  0.43940  0.83150  Biso   1.000  C
  C73      1.0000 0.26670  0.50460  0.76830  Biso   1.000  C
  H36      1.0000 0.23890  0.50710  0.74220  Biso   1.000  H
  C74      1.0000 0.29200  0.56610  0.74360  Biso   1.000  C
  C75      1.0000 0.27410  0.63760  0.67660  Biso   1.000  C
  C76      1.0000 0.33270  0.56370  0.78260  Biso   1.000  C
  H37      1.0000 0.34920  0.60610  0.76580  Biso   1.000  H
  C77      1.0000 0.35010  0.50030  0.84610  Biso   1.000  C
  C78      1.0000 0.32290  0.43800  0.87280  Biso   1.000  C
  H38      1.0000 0.33310  0.39520  0.91990  Biso   1.000  H
  C79      1.0000 0.39410  0.49520  0.88930  Biso   1.000  C
  C80      1.0000 0.42090  0.54480  0.84500  Biso   1.000  C
  H39      1.0000 0.41210  0.58160  0.78240  Biso   1.000  H
  C81      1.0000 0.46250  0.54320  0.89000  Biso   1.000  C
  H40      1.0000 0.48020  0.57850  0.85320  Biso   1.000  H
  C82      1.0000 0.47760  0.49720  0.97680  Biso   1.000  C
  C83      1.0000 0.45080  0.44330  0.99800  Biso   1.000  C
  H41      1.0000 0.46040  0.39960  0.04380  Biso   1.000  H
  C84      1.0000 0.41070  0.44480  0.95890  Biso   1.000  C
  H42      1.0000 0.39440  0.40460  0.98700  Biso   1.000  H
  N6       1.0000 0.11330  0.25390  0.85410  Biso   1.000  N
  O42      1.0000 0.08340  0.22970  0.78850  Biso   1.000  O
  Eu7      1.0000 0.30826  0.79044  0.50171  Biso   1.000  Eu
  O43      1.0000 0.28392  0.88610  0.65130  Biso   1.000  O
  O44      1.0000 0.23208  0.81000  0.59380  Biso   1.000  O
  O45      1.0000 0.26336  0.13920  0.85500  Biso   1.000  O
  O46      1.0000 0.20130  0.19340  0.83680  Biso   1.000  O
  O47      1.0000 0.37601  0.72620  0.53330  Biso   1.000  O
  O48      1.0000 0.36372  0.80520  0.68950  Biso   1.000  O
  C85      1.0000 0.24550  0.87470  0.63690  Biso   1.000  C
  C86      1.0000 0.21760  0.93940  0.66850  Biso   1.000  C
  C87      1.0000 0.23330  0.00460  0.73170  Biso   1.000  C
  H43      1.0000 0.26110  0.00710  0.75780  Biso   1.000  H
  C88      1.0000 0.20800  0.06610  0.75640  Biso   1.000  C
  C89      1.0000 0.22590  0.13760  0.82340  Biso   1.000  C
  C90      1.0000 0.16730  0.06370  0.71740  Biso   1.000  C
  H44      1.0000 0.15080  0.10610  0.73420  Biso   1.000  H
  C91      1.0000 0.14990  0.00030  0.65390  Biso   1.000  C
  C92      1.0000 0.17710  0.93800  0.62720  Biso   1.000  C
  H45      1.0000 0.16690  0.89520  0.58010  Biso   1.000  H
  C93      1.0000 0.10590  0.99520  0.61070  Biso   1.000  C
  C94      1.0000 0.07910  0.04480  0.65500  Biso   1.000  C
  H46      1.0000 0.08790  0.08160  0.71760  Biso   1.000  H
  C95      1.0000 0.03750  0.04320  0.61000  Biso   1.000  C
  H47      1.0000 0.01980  0.07850  0.64680  Biso   1.000  H
  C96      1.0000 0.02240  0.99720  0.52320  Biso   1.000  C
  C97      1.0000 0.04920  0.94330  0.50200  Biso   1.000  C
  H48      1.0000 0.03960  0.89960  0.45620  Biso   1.000  H
  C98      1.0000 0.08930  0.94480  0.54110  Biso   1.000  C
  H49      1.0000 0.10560  0.90460  0.51300  Biso   1.000  H
  N7       1.0000 0.38670  0.75390  0.64590  Biso   1.000  N
  O49      1.0000 0.41660  0.72970  0.71150  Biso   1.000  O
  Eu8      1.0000 0.80826  0.29044  0.50171  Biso   1.000  Eu
  O50      1.0000 0.78392  0.38610  0.65130  Biso   1.000  O
  O51      1.0000 0.73208  0.31000  0.59380  Biso   1.000  O
  O52      1.0000 0.76336  0.63920  0.85500  Biso   1.000  O
  O53      1.0000 0.70130  0.69340  0.83680  Biso   1.000  O
  O54      1.0000 0.87601  0.22620  0.53330  Biso   1.000  O
  O55      1.0000 0.86372  0.30520  0.68950  Biso   1.000  O
  C99      1.0000 0.74550  0.37470  0.63690  Biso   1.000  C
  C100     1.0000 0.71760  0.43940  0.66850  Biso   1.000  C
  C101     1.0000 0.73330  0.50460  0.73170  Biso   1.000  C
  H50      1.0000 0.76110  0.50710  0.75780  Biso   1.000  H
  C102     1.0000 0.70800  0.56610  0.75640  Biso   1.000  C
  C103     1.0000 0.72590  0.63760  0.82340  Biso   1.000  C
  C104     1.0000 0.66730  0.56370  0.71740  Biso   1.000  C
  H51      1.0000 0.65080  0.60610  0.73420  Biso   1.000  H
  C105     1.0000 0.64990  0.50030  0.65390  Biso   1.000  C
  C106     1.0000 0.67710  0.43800  0.62720  Biso   1.000  C
  H52      1.0000 0.66690  0.39520  0.58010  Biso   1.000  H
  C107     1.0000 0.60590  0.49520  0.61070  Biso   1.000  C
  C108     1.0000 0.57910  0.54480  0.65500  Biso   1.000  C
  H53      1.0000 0.58790  0.58160  0.71760  Biso   1.000  H
  C109     1.0000 0.53750  0.54320  0.61000  Biso   1.000  C
  H54      1.0000 0.51980  0.57850  0.64680  Biso   1.000  H
  C110     1.0000 0.52240  0.49720  0.52320  Biso   1.000  C
  C111     1.0000 0.54920  0.44330  0.50200  Biso   1.000  C
  H55      1.0000 0.53960  0.39960  0.45620  Biso   1.000  H
  C112     1.0000 0.58930  0.44480  0.54110  Biso   1.000  C
  H56      1.0000 0.60560  0.40460  0.51300  Biso   1.000  H
  N8       1.0000 0.88670  0.25390  0.64590  Biso   1.000  N
  O56      1.0000 0.91660  0.22970  0.71150  Biso   1.000  O
