data_image0
_cell_length_a       10.316
_cell_length_b       26.096
_cell_length_c       27.889
_cell_angle_alpha    90
_cell_angle_beta     93.78
_cell_angle_gamma    90

_symmetry_space_group_name_H-M    "P 1"
_symmetry_int_tables_number       1

loop_
  _symmetry_equiv_pos_as_xyz
  'x, y, z'

loop_
  _atom_site_label
  _atom_site_occupancy
  _atom_site_fract_x
  _atom_site_fract_y
  _atom_site_fract_z
  _atom_site_thermal_displace_type
  _atom_site_B_iso_or_equiv
  _atom_site_type_symbol
  C1       1.0000 0.69160  0.23837  0.56686  Biso   1.000  C
  C2       1.0000 0.56150  0.23512  0.53805  Biso   1.000  C
  C3       1.0000 0.44900  0.23582  0.56169  Biso   1.000  C
  H1       1.0000 0.45320  0.23430  0.59540  Biso   1.000  H
  C4       1.0000 0.33020  0.23866  0.53638  Biso   1.000  C
  C5       1.0000 0.32380  0.23700  0.48736  Biso   1.000  C
  H2       1.0000 0.24230  0.23790  0.47020  Biso   1.000  H
  C6       1.0000 0.43820  0.23390  0.46178  Biso   1.000  C
  C7       1.0000 0.55550  0.23380  0.48882  Biso   1.000  C
  H3       1.0000 0.63310  0.23270  0.47300  Biso   1.000  H
  C8       1.0000 0.20760  0.24317  0.56328  Biso   1.000  C
  C9       1.0000 0.43260  0.23350  0.40852  Biso   1.000  C
  C10      1.0000 0.33210  0.25630  0.38100  Biso   1.000  C
  H4       1.0000 0.26580  0.27300  0.39650  Biso   1.000  H
  C11      1.0000 0.32630  0.25520  0.33170  Biso   1.000  C
  H5       1.0000 0.25630  0.27100  0.31410  Biso   1.000  H
  C12      1.0000 0.42210  0.23110  0.30737  Biso   1.000  C
  C13      1.0000 0.52360  0.20950  0.33470  Biso   1.000  C
  H6       1.0000 0.59330  0.19500  0.31940  Biso   1.000  H
  C14      1.0000 0.52440  0.20890  0.38450  Biso   1.000  C
  H7       1.0000 0.59070  0.19100  0.40210  Biso   1.000  H
  C15      1.0000 0.41880  0.23020  0.25370  Biso   1.000  C
  C16      1.0000 0.94440  0.39650  0.55640  Biso   1.000  C
  C17      1.0000 0.93590  0.44290  0.52400  Biso   1.000  C
  H8       1.0000 0.84730  0.45560  0.52150  Biso   1.000  H
  H9       1.0000 0.96160  0.43360  0.49230  Biso   1.000  H
  H10      1.0000 0.99340  0.46950  0.53740  Biso   1.000  H
  C18      1.0000 0.24160  0.35767  0.69099  Biso   1.000  C
  C19      1.0000 0.36480  0.38504  0.70301  Biso   1.000  C
  C20      1.0000 0.48000  0.36201  0.69177  Biso   1.000  C
  H11      1.0000 0.48000  0.32850  0.67930  Biso   1.000  H
  C21      1.0000 0.59660  0.38932  0.69922  Biso   1.000  C
  C22      1.0000 0.59610  0.43732  0.72015  Biso   1.000  C
  H12      1.0000 0.67520  0.45480  0.72590  Biso   1.000  H
  C23      1.0000 0.48250  0.46052  0.73290  Biso   1.000  C
  C24      1.0000 0.36570  0.43415  0.72238  Biso   1.000  C
  H13      1.0000 0.28660  0.44990  0.72850  Biso   1.000  H
  C25      1.0000 0.71720  0.36382  0.68335  Biso   1.000  C
  C26      1.0000 0.48400  0.51203  0.75317  Biso   1.000  C
  C27      1.0000 0.59030  0.53000  0.78180  Biso   1.000  C
  H14      1.0000 0.66390  0.50920  0.78760  Biso   1.000  H
  C28      1.0000 0.58740  0.57880  0.80190  Biso   1.000  C
  H15      1.0000 0.65870  0.59000  0.82190  Biso   1.000  H
  C29      1.0000 0.48380  0.61073  0.79336  Biso   1.000  C
  C30      1.0000 0.38040  0.59380  0.76490  Biso   1.000  C
  H16      1.0000 0.30770  0.61520  0.75910  Biso   1.000  H
  C31      1.0000 0.38100  0.54640  0.74470  Biso   1.000  C
  H17      1.0000 0.30930  0.53640  0.72430  Biso   1.000  H
  C32      1.0000 0.48620  0.66425  0.81442  Biso   1.000  C
  O1       1.0000 0.96630  0.29017  0.63349  Biso   1.000  O
  O2       1.0000 0.78760  0.25198  0.54321  Biso   1.000  O
  O3       1.0000 0.69230  0.23041  0.61069  Biso   1.000  O
  O4       1.0000 0.21890  0.23664  0.60716  Biso   1.000  O
  O5       1.0000 0.10400  0.25442  0.53831  Biso   1.000  O
  O6       1.0000 0.32400  0.25164  0.23129  Biso   1.000  O
  O7       1.0000 0.51160  0.21060  0.23539  Biso   1.000  O
  O8       1.0000 0.13640  0.38278  0.68729  Biso   1.000  O
  O9       1.0000 0.25010  0.30901  0.68551  Biso   1.000  O
  O10      1.0000 0.70750  0.32153  0.66388  Biso   1.000  O
  O11      1.0000 0.82410  0.38851  0.69155  Biso   1.000  O
  O12      1.0000 0.58460  0.67914  0.83884  Biso   1.000  O
  O13      1.0000 0.38430  0.69181  0.80522  Biso   1.000  O
  O14      1.0000 0.95880  0.40381  0.59969  Biso   1.000  O
  O15      1.0000 0.94040  0.35356  0.53615  Biso   1.000  O
  Zn1      1.0000 0.11818  0.25819  0.66561  Biso   1.000  Zn
  Zn2      1.0000 0.82389  0.25304  0.66105  Biso   1.000  Zn
  Zn3      1.0000 0.96788  0.35923  0.65913  Biso   1.000  Zn
  Zn4      1.0000 0.95220  0.28501  0.56565  Biso   1.000  Zn
  C33      1.0000 0.80840  0.73837  0.93314  Biso   1.000  C
  C34      1.0000 0.93850  0.73512  0.96195  Biso   1.000  C
  C35      1.0000 0.05100  0.73582  0.93831  Biso   1.000  C
  H18      1.0000 0.04680  0.73430  0.90460  Biso   1.000  H
  C36      1.0000 0.16980  0.73866  0.96362  Biso   1.000  C
  C37      1.0000 0.17620  0.73700  0.01264  Biso   1.000  C
  H19      1.0000 0.25770  0.73790  0.02980  Biso   1.000  H
  C38      1.0000 0.06180  0.73390  0.03822  Biso   1.000  C
  C39      1.0000 0.94450  0.73380  0.01118  Biso   1.000  C
  H20      1.0000 0.86690  0.73270  0.02700  Biso   1.000  H
  C40      1.0000 0.29240  0.74317  0.93672  Biso   1.000  C
  C41      1.0000 0.06740  0.73350  0.09148  Biso   1.000  C
  C42      1.0000 0.16790  0.75630  0.11900  Biso   1.000  C
  H21      1.0000 0.23420  0.77300  0.10350  Biso   1.000  H
  C43      1.0000 0.17370  0.75520  0.16830  Biso   1.000  C
  H22      1.0000 0.24370  0.77100  0.18590  Biso   1.000  H
  C44      1.0000 0.07790  0.73110  0.19263  Biso   1.000  C
  C45      1.0000 0.97640  0.70950  0.16530  Biso   1.000  C
  H23      1.0000 0.90670  0.69500  0.18060  Biso   1.000  H
  C46      1.0000 0.97560  0.70890  0.11550  Biso   1.000  C
  H24      1.0000 0.90930  0.69100  0.09790  Biso   1.000  H
  C47      1.0000 0.08120  0.73020  0.24630  Biso   1.000  C
  C48      1.0000 0.55560  0.89650  0.94360  Biso   1.000  C
  C49      1.0000 0.56410  0.94290  0.97600  Biso   1.000  C
  H25      1.0000 0.65270  0.95560  0.97850  Biso   1.000  H
  H26      1.0000 0.53840  0.93360  0.00770  Biso   1.000  H
  H27      1.0000 0.50660  0.96950  0.96260  Biso   1.000  H
  C50      1.0000 0.25840  0.85767  0.80901  Biso   1.000  C
  C51      1.0000 0.13520  0.88504  0.79699  Biso   1.000  C
  C52      1.0000 0.02000  0.86201  0.80823  Biso   1.000  C
  H28      1.0000 0.02000  0.82850  0.82070  Biso   1.000  H
  C53      1.0000 0.90340  0.88932  0.80078  Biso   1.000  C
  C54      1.0000 0.90390  0.93732  0.77985  Biso   1.000  C
  H29      1.0000 0.82480  0.95480  0.77410  Biso   1.000  H
  C55      1.0000 0.01750  0.96052  0.76710  Biso   1.000  C
  C56      1.0000 0.13430  0.93415  0.77762  Biso   1.000  C
  H30      1.0000 0.21340  0.94990  0.77150  Biso   1.000  H
  C57      1.0000 0.78280  0.86382  0.81665  Biso   1.000  C
  C58      1.0000 0.01600  0.01203  0.74683  Biso   1.000  C
  C59      1.0000 0.90970  0.03000  0.71820  Biso   1.000  C
  H31      1.0000 0.83610  0.00920  0.71240  Biso   1.000  H
  C60      1.0000 0.91260  0.07880  0.69810  Biso   1.000  C
  H32      1.0000 0.84130  0.09000  0.67810  Biso   1.000  H
  C61      1.0000 0.01620  0.11073  0.70664  Biso   1.000  C
  C62      1.0000 0.11960  0.09380  0.73510  Biso   1.000  C
  H33      1.0000 0.19230  0.11520  0.74090  Biso   1.000  H
  C63      1.0000 0.11900  0.04640  0.75530  Biso   1.000  C
  H34      1.0000 0.19070  0.03640  0.77570  Biso   1.000  H
  C64      1.0000 0.01380  0.16425  0.68558  Biso   1.000  C
  O16      1.0000 0.53370  0.79017  0.86651  Biso   1.000  O
  O17      1.0000 0.71240  0.75198  0.95679  Biso   1.000  O
  O18      1.0000 0.80770  0.73041  0.88931  Biso   1.000  O
  O19      1.0000 0.28110  0.73664  0.89284  Biso   1.000  O
  O20      1.0000 0.39600  0.75442  0.96169  Biso   1.000  O
  O21      1.0000 0.17600  0.75164  0.26871  Biso   1.000  O
  O22      1.0000 0.98840  0.71060  0.26461  Biso   1.000  O
  O23      1.0000 0.36360  0.88278  0.81271  Biso   1.000  O
  O24      1.0000 0.24990  0.80901  0.81449  Biso   1.000  O
  O25      1.0000 0.79250  0.82153  0.83612  Biso   1.000  O
  O26      1.0000 0.67590  0.88851  0.80845  Biso   1.000  O
  O27      1.0000 0.91540  0.17914  0.66116  Biso   1.000  O
  O28      1.0000 0.11570  0.19181  0.69478  Biso   1.000  O
  O29      1.0000 0.54120  0.90381  0.90031  Biso   1.000  O
  O30      1.0000 0.55960  0.85356  0.96385  Biso   1.000  O
  Zn5      1.0000 0.38182  0.75819  0.83439  Biso   1.000  Zn
  Zn6      1.0000 0.67611  0.75304  0.83895  Biso   1.000  Zn
  Zn7      1.0000 0.53212  0.85923  0.84087  Biso   1.000  Zn
  Zn8      1.0000 0.54780  0.78501  0.93435  Biso   1.000  Zn
  C65      1.0000 0.30840  0.76163  0.43314  Biso   1.000  C
  C66      1.0000 0.43850  0.76488  0.46195  Biso   1.000  C
  C67      1.0000 0.55100  0.76418  0.43831  Biso   1.000  C
  H35      1.0000 0.54680  0.76570  0.40460  Biso   1.000  H
  C68      1.0000 0.66980  0.76134  0.46362  Biso   1.000  C
  C69      1.0000 0.67620  0.76300  0.51264  Biso   1.000  C
  H36      1.0000 0.75770  0.76210  0.52980  Biso   1.000  H
  C70      1.0000 0.56180  0.76610  0.53822  Biso   1.000  C
  C71      1.0000 0.44450  0.76620  0.51118  Biso   1.000  C
  H37      1.0000 0.36690  0.76730  0.52700  Biso   1.000  H
  C72      1.0000 0.79240  0.75683  0.43672  Biso   1.000  C
  C73      1.0000 0.56740  0.76650  0.59148  Biso   1.000  C
  C74      1.0000 0.66790  0.74370  0.61900  Biso   1.000  C
  H38      1.0000 0.73420  0.72700  0.60350  Biso   1.000  H
  C75      1.0000 0.67370  0.74480  0.66830  Biso   1.000  C
  H39      1.0000 0.74370  0.72900  0.68590  Biso   1.000  H
  C76      1.0000 0.57790  0.76890  0.69263  Biso   1.000  C
  C77      1.0000 0.47640  0.79050  0.66530  Biso   1.000  C
  H40      1.0000 0.40670  0.80500  0.68060  Biso   1.000  H
  C78      1.0000 0.47560  0.79110  0.61550  Biso   1.000  C
  H41      1.0000 0.40930  0.80900  0.59790  Biso   1.000  H
  C79      1.0000 0.58120  0.76980  0.74630  Biso   1.000  C
  C80      1.0000 0.05560  0.60350  0.44360  Biso   1.000  C
  C81      1.0000 0.06410  0.55710  0.47600  Biso   1.000  C
  H42      1.0000 0.15270  0.54440  0.47850  Biso   1.000  H
  H43      1.0000 0.03840  0.56640  0.50770  Biso   1.000  H
  H44      1.0000 0.00660  0.53050  0.46260  Biso   1.000  H
  C82      1.0000 0.75840  0.64233  0.30901  Biso   1.000  C
  C83      1.0000 0.63520  0.61496  0.29699  Biso   1.000  C
  C84      1.0000 0.52000  0.63799  0.30823  Biso   1.000  C
  H45      1.0000 0.52000  0.67150  0.32070  Biso   1.000  H
  C85      1.0000 0.40340  0.61068  0.30078  Biso   1.000  C
  C86      1.0000 0.40390  0.56268  0.27985  Biso   1.000  C
  H46      1.0000 0.32480  0.54520  0.27410  Biso   1.000  H
  C87      1.0000 0.51750  0.53948  0.26710  Biso   1.000  C
  C88      1.0000 0.63430  0.56585  0.27762  Biso   1.000  C
  H47      1.0000 0.71340  0.55010  0.27150  Biso   1.000  H
  C89      1.0000 0.28280  0.63618  0.31665  Biso   1.000  C
  C90      1.0000 0.51600  0.48797  0.24683  Biso   1.000  C
  C91      1.0000 0.40970  0.47000  0.21820  Biso   1.000  C
  H48      1.0000 0.33610  0.49080  0.21240  Biso   1.000  H
  C92      1.0000 0.41260  0.42120  0.19810  Biso   1.000  C
  H49      1.0000 0.34130  0.41000  0.17810  Biso   1.000  H
  C93      1.0000 0.51620  0.38927  0.20664  Biso   1.000  C
  C94      1.0000 0.61960  0.40620  0.23510  Biso   1.000  C
  H50      1.0000 0.69230  0.38480  0.24090  Biso   1.000  H
  C95      1.0000 0.61900  0.45360  0.25530  Biso   1.000  C
  H51      1.0000 0.69070  0.46360  0.27570  Biso   1.000  H
  C96      1.0000 0.51380  0.33575  0.18558  Biso   1.000  C
  O31      1.0000 0.03370  0.70983  0.36651  Biso   1.000  O
  O32      1.0000 0.21240  0.74802  0.45679  Biso   1.000  O
  O33      1.0000 0.30770  0.76959  0.38931  Biso   1.000  O
  O34      1.0000 0.78110  0.76336  0.39284  Biso   1.000  O
  O35      1.0000 0.89600  0.74558  0.46169  Biso   1.000  O
  O36      1.0000 0.67600  0.74836  0.76871  Biso   1.000  O
  O37      1.0000 0.48840  0.78940  0.76461  Biso   1.000  O
  O38      1.0000 0.86360  0.61722  0.31271  Biso   1.000  O
  O39      1.0000 0.74990  0.69099  0.31449  Biso   1.000  O
  O40      1.0000 0.29250  0.67847  0.33612  Biso   1.000  O
  O41      1.0000 0.17590  0.61149  0.30845  Biso   1.000  O
  O42      1.0000 0.41540  0.32086  0.16116  Biso   1.000  O
  O43      1.0000 0.61570  0.30819  0.19478  Biso   1.000  O
  O44      1.0000 0.04120  0.59619  0.40031  Biso   1.000  O
  O45      1.0000 0.05960  0.64644  0.46385  Biso   1.000  O
  Zn9      1.0000 0.88182  0.74181  0.33439  Biso   1.000  Zn
  Zn10     1.0000 0.17611  0.74696  0.33895  Biso   1.000  Zn
  Zn11     1.0000 0.03212  0.64077  0.34087  Biso   1.000  Zn
  Zn12     1.0000 0.04780  0.71499  0.43435  Biso   1.000  Zn
  C97      1.0000 0.19160  0.26163  0.06686  Biso   1.000  C
  C98      1.0000 0.06150  0.26488  0.03805  Biso   1.000  C
  C99      1.0000 0.94900  0.26418  0.06169  Biso   1.000  C
  H52      1.0000 0.95320  0.26570  0.09540  Biso   1.000  H
  C100     1.0000 0.83020  0.26134  0.03638  Biso   1.000  C
  C101     1.0000 0.82380  0.26300  0.98736  Biso   1.000  C
  H53      1.0000 0.74230  0.26210  0.97020  Biso   1.000  H
  C102     1.0000 0.93820  0.26610  0.96178  Biso   1.000  C
  C103     1.0000 0.05550  0.26620  0.98882  Biso   1.000  C
  H54      1.0000 0.13310  0.26730  0.97300  Biso   1.000  H
  C104     1.0000 0.70760  0.25683  0.06328  Biso   1.000  C
  C105     1.0000 0.93260  0.26650  0.90852  Biso   1.000  C
  C106     1.0000 0.83210  0.24370  0.88100  Biso   1.000  C
  H55      1.0000 0.76580  0.22700  0.89650  Biso   1.000  H
  C107     1.0000 0.82630  0.24480  0.83170  Biso   1.000  C
  H56      1.0000 0.75630  0.22900  0.81410  Biso   1.000  H
  C108     1.0000 0.92210  0.26890  0.80737  Biso   1.000  C
  C109     1.0000 0.02360  0.29050  0.83470  Biso   1.000  C
  H57      1.0000 0.09330  0.30500  0.81940  Biso   1.000  H
  C110     1.0000 0.02440  0.29110  0.88450  Biso   1.000  C
  H58      1.0000 0.09070  0.30900  0.90210  Biso   1.000  H
  C111     1.0000 0.91880  0.26980  0.75370  Biso   1.000  C
  C112     1.0000 0.44440  0.10350  0.05640  Biso   1.000  C
  C113     1.0000 0.43590  0.05710  0.02400  Biso   1.000  C
  H59      1.0000 0.34730  0.04440  0.02150  Biso   1.000  H
  H60      1.0000 0.46160  0.06640  0.99230  Biso   1.000  H
  H61      1.0000 0.49340  0.03050  0.03740  Biso   1.000  H
  C114     1.0000 0.74160  0.14233  0.19099  Biso   1.000  C
  C115     1.0000 0.86480  0.11496  0.20301  Biso   1.000  C
  C116     1.0000 0.98000  0.13799  0.19177  Biso   1.000  C
  H62      1.0000 0.98000  0.17150  0.17930  Biso   1.000  H
  C117     1.0000 0.09660  0.11068  0.19922  Biso   1.000  C
  C118     1.0000 0.09610  0.06268  0.22015  Biso   1.000  C
  H63      1.0000 0.17520  0.04520  0.22590  Biso   1.000  H
  C119     1.0000 0.98250  0.03948  0.23290  Biso   1.000  C
  C120     1.0000 0.86570  0.06585  0.22238  Biso   1.000  C
  H64      1.0000 0.78660  0.05010  0.22850  Biso   1.000  H
  C121     1.0000 0.21720  0.13618  0.18335  Biso   1.000  C
  C122     1.0000 0.98400  0.98797  0.25317  Biso   1.000  C
  C123     1.0000 0.09030  0.97000  0.28180  Biso   1.000  C
  H65      1.0000 0.16390  0.99080  0.28760  Biso   1.000  H
  C124     1.0000 0.08740  0.92120  0.30190  Biso   1.000  C
  H66      1.0000 0.15870  0.91000  0.32190  Biso   1.000  H
  C125     1.0000 0.98380  0.88927  0.29336  Biso   1.000  C
  C126     1.0000 0.88040  0.90620  0.26490  Biso   1.000  C
  H67      1.0000 0.80770  0.88480  0.25910  Biso   1.000  H
  C127     1.0000 0.88100  0.95360  0.24470  Biso   1.000  C
  H68      1.0000 0.80930  0.96360  0.22430  Biso   1.000  H
  C128     1.0000 0.98620  0.83575  0.31442  Biso   1.000  C
  O46      1.0000 0.46630  0.20983  0.13349  Biso   1.000  O
  O47      1.0000 0.28760  0.24802  0.04321  Biso   1.000  O
  O48      1.0000 0.19230  0.26959  0.11069  Biso   1.000  O
  O49      1.0000 0.71890  0.26336  0.10716  Biso   1.000  O
  O50      1.0000 0.60400  0.24558  0.03831  Biso   1.000  O
  O51      1.0000 0.82400  0.24836  0.73129  Biso   1.000  O
  O52      1.0000 0.01160  0.28940  0.73539  Biso   1.000  O
  O53      1.0000 0.63640  0.11722  0.18729  Biso   1.000  O
  O54      1.0000 0.75010  0.19099  0.18551  Biso   1.000  O
  O55      1.0000 0.20750  0.17847  0.16388  Biso   1.000  O
  O56      1.0000 0.32410  0.11149  0.19155  Biso   1.000  O
  O57      1.0000 0.08460  0.82086  0.33884  Biso   1.000  O
  O58      1.0000 0.88430  0.80819  0.30522  Biso   1.000  O
  O59      1.0000 0.45880  0.09619  0.09969  Biso   1.000  O
  O60      1.0000 0.44040  0.14644  0.03615  Biso   1.000  O
  Zn13     1.0000 0.61818  0.24181  0.16561  Biso   1.000  Zn
  Zn14     1.0000 0.32389  0.24696  0.16105  Biso   1.000  Zn
  Zn15     1.0000 0.46788  0.14077  0.15913  Biso   1.000  Zn
  Zn16     1.0000 0.45220  0.21499  0.06565  Biso   1.000  Zn
