data_image0
_cell_length_a       24.434
_cell_length_b       18.364
_cell_length_c       8.259
_cell_angle_alpha    90
_cell_angle_beta     101.72
_cell_angle_gamma    90

_symmetry_space_group_name_H-M    "P 1"
_symmetry_int_tables_number       1

loop_
  _symmetry_equiv_pos_as_xyz
  'x, y, z'

loop_
  _atom_site_label
  _atom_site_occupancy
  _atom_site_fract_x
  _atom_site_fract_y
  _atom_site_fract_z
  _atom_site_thermal_displace_type
  _atom_site_B_iso_or_equiv
  _atom_site_type_symbol
  C1       1.0000 0.35060  0.54520  0.93920  Biso   1.000  C
  C2       1.0000 0.38960  0.44180  0.87530  Biso   1.000  C
  C3       1.0000 0.42630  0.55060  0.82130  Biso   1.000  C
  C4       1.0000 0.29610  0.64910  0.02830  Biso   1.000  C
  C5       1.0000 0.37040  0.31370  0.93360  Biso   1.000  C
  C6       1.0000 0.32900  0.32410  0.02160  Biso   1.000  C
  H1       1.0000 0.31930  0.37100  0.04760  Biso   1.000  H
  C7       1.0000 0.38480  0.24240  0.90370  Biso   1.000  C
  H2       1.0000 0.41390  0.23420  0.84870  Biso   1.000  H
  C8       1.0000 0.50620  0.57950  0.68590  Biso   1.000  C
  C9       1.0000 0.52670  0.51100  0.67020  Biso   1.000  C
  H3       1.0000 0.50980  0.47120  0.70950  Biso   1.000  H
  C10      1.0000 0.57270  0.49960  0.59600  Biso   1.000  C
  H4       1.0000 0.58580  0.45260  0.58660  Biso   1.000  H
  C11      1.0000 0.59880  0.55720  0.53710  Biso   1.000  C
  C12      1.0000 0.57890  0.62650  0.55210  Biso   1.000  C
  H5       1.0000 0.59690  0.66640  0.51740  Biso   1.000  H
  C13      1.0000 0.53200  0.63650  0.61890  Biso   1.000  C
  H6       1.0000 0.51700  0.68310  0.61920  Biso   1.000  H
  C14      1.0000 0.64830  0.54450  0.46400  Biso   1.000  C
  C15      1.0000 0.28400  0.13160  0.08840  Biso   1.000  C
  C16      1.0000 0.31560  0.19280  0.04030  Biso   1.000  C
  C17      1.0000 0.30070  0.26200  0.07350  Biso   1.000  C
  H7       1.0000 0.27200  0.26930  0.13020  Biso   1.000  H
  C18      1.0000 0.35740  0.18380  0.95270  Biso   1.000  C
  H8       1.0000 0.36720  0.13700  0.92620  Biso   1.000  H
  C19      1.0000 0.25040  0.86520  0.14630  Biso   1.000  C
  C20      1.0000 0.26350  0.79030  0.09850  Biso   1.000  C
  C21      1.0000 0.30830  0.77740  0.02020  Biso   1.000  C
  H9       1.0000 0.32850  0.81670  0.99260  Biso   1.000  H
  C22      1.0000 0.32290  0.70900  0.98350  Biso   1.000  C
  H10      1.0000 0.35170  0.70270  0.92670  Biso   1.000  H
  C23      1.0000 0.23720  0.73020  0.14790  Biso   1.000  C
  H11      1.0000 0.20890  0.73640  0.20670  Biso   1.000  H
  C24      1.0000 0.25240  0.66210  0.11080  Biso   1.000  C
  H12      1.0000 0.23300  0.62250  0.14140  Biso   1.000  H
  N1       1.0000 0.42890  0.47920  0.80740  Biso   1.000  N
  N2       1.0000 0.38840  0.58760  0.89060  Biso   1.000  N
  N3       1.0000 0.35000  0.47240  0.93680  Biso   1.000  N
  N4       1.0000 0.39650  0.36820  0.87060  Biso   1.000  N
  H13      1.0000 0.42180  0.35430  0.81870  Biso   1.000  H
  N5       1.0000 0.30960  0.57640  0.00480  Biso   1.000  N
  H14      1.0000 0.28780  0.54560  0.03830  Biso   1.000  H
  N6       1.0000 0.46320  0.59650  0.76170  Biso   1.000  N
  H15      1.0000 0.45820  0.64230  0.77480  Biso   1.000  H
  O1       1.0000 0.67930  0.48760  0.51330  Biso   1.000  O
  O2       1.0000 0.29380  0.06710  0.04080  Biso   1.000  O
  O3       1.0000 0.25140  0.14080  0.18990  Biso   1.000  O
  O4       1.0000 0.21700  0.87790  0.23990  Biso   1.000  O
  O5       1.0000 0.27740  0.91900  0.09360  Biso   1.000  O
  O6       1.0000 0.66180  0.58780  0.35860  Biso   1.000  O
  La1      1.0000 0.74737  0.48604  0.80396  Biso   1.000  La
  C25      1.0000 0.85060  0.04520  0.93920  Biso   1.000  C
  C26      1.0000 0.88960  0.94180  0.87530  Biso   1.000  C
  C27      1.0000 0.92630  0.05060  0.82130  Biso   1.000  C
  C28      1.0000 0.79610  0.14910  0.02830  Biso   1.000  C
  C29      1.0000 0.87040  0.81370  0.93360  Biso   1.000  C
  C30      1.0000 0.82900  0.82410  0.02160  Biso   1.000  C
  H16      1.0000 0.81930  0.87100  0.04760  Biso   1.000  H
  C31      1.0000 0.88480  0.74240  0.90370  Biso   1.000  C
  H17      1.0000 0.91390  0.73420  0.84870  Biso   1.000  H
  C32      1.0000 0.00620  0.07950  0.68590  Biso   1.000  C
  C33      1.0000 0.02670  0.01100  0.67020  Biso   1.000  C
  H18      1.0000 0.00980  0.97120  0.70950  Biso   1.000  H
  C34      1.0000 0.07270  0.99960  0.59600  Biso   1.000  C
  H19      1.0000 0.08580  0.95260  0.58660  Biso   1.000  H
  C35      1.0000 0.09880  0.05720  0.53710  Biso   1.000  C
  C36      1.0000 0.07890  0.12650  0.55210  Biso   1.000  C
  H20      1.0000 0.09690  0.16640  0.51740  Biso   1.000  H
  C37      1.0000 0.03200  0.13650  0.61890  Biso   1.000  C
  H21      1.0000 0.01700  0.18310  0.61920  Biso   1.000  H
  C38      1.0000 0.14830  0.04450  0.46400  Biso   1.000  C
  C39      1.0000 0.78400  0.63160  0.08840  Biso   1.000  C
  C40      1.0000 0.81560  0.69280  0.04030  Biso   1.000  C
  C41      1.0000 0.80070  0.76200  0.07350  Biso   1.000  C
  H22      1.0000 0.77200  0.76930  0.13020  Biso   1.000  H
  C42      1.0000 0.85740  0.68380  0.95270  Biso   1.000  C
  H23      1.0000 0.86720  0.63700  0.92620  Biso   1.000  H
  C43      1.0000 0.75040  0.36520  0.14630  Biso   1.000  C
  C44      1.0000 0.76350  0.29030  0.09850  Biso   1.000  C
  C45      1.0000 0.80830  0.27740  0.02020  Biso   1.000  C
  H24      1.0000 0.82850  0.31670  0.99260  Biso   1.000  H
  C46      1.0000 0.82290  0.20900  0.98350  Biso   1.000  C
  H25      1.0000 0.85170  0.20270  0.92670  Biso   1.000  H
  C47      1.0000 0.73720  0.23020  0.14790  Biso   1.000  C
  H26      1.0000 0.70890  0.23640  0.20670  Biso   1.000  H
  C48      1.0000 0.75240  0.16210  0.11080  Biso   1.000  C
  H27      1.0000 0.73300  0.12250  0.14140  Biso   1.000  H
  N7       1.0000 0.92890  0.97920  0.80740  Biso   1.000  N
  N8       1.0000 0.88840  0.08760  0.89060  Biso   1.000  N
  N9       1.0000 0.85000  0.97240  0.93680  Biso   1.000  N
  N10      1.0000 0.89650  0.86820  0.87060  Biso   1.000  N
  H28      1.0000 0.92180  0.85430  0.81870  Biso   1.000  H
  N11      1.0000 0.80960  0.07640  0.00480  Biso   1.000  N
  H29      1.0000 0.78780  0.04560  0.03830  Biso   1.000  H
  N12      1.0000 0.96320  0.09650  0.76170  Biso   1.000  N
  H30      1.0000 0.95820  0.14230  0.77480  Biso   1.000  H
  O7       1.0000 0.17930  0.98760  0.51330  Biso   1.000  O
  O8       1.0000 0.79380  0.56710  0.04080  Biso   1.000  O
  O9       1.0000 0.75140  0.64080  0.18990  Biso   1.000  O
  O10      1.0000 0.71700  0.37790  0.23990  Biso   1.000  O
  O11      1.0000 0.77740  0.41900  0.09360  Biso   1.000  O
  O12      1.0000 0.16180  0.08780  0.35860  Biso   1.000  O
  La2      1.0000 0.24737  0.98604  0.80396  Biso   1.000  La
  C49      1.0000 0.35060  0.45480  0.43920  Biso   1.000  C
  C50      1.0000 0.38960  0.55820  0.37530  Biso   1.000  C
  C51      1.0000 0.42630  0.44940  0.32130  Biso   1.000  C
  C52      1.0000 0.29610  0.35090  0.52830  Biso   1.000  C
  C53      1.0000 0.37040  0.68630  0.43360  Biso   1.000  C
  C54      1.0000 0.32900  0.67590  0.52160  Biso   1.000  C
  H31      1.0000 0.31930  0.62900  0.54760  Biso   1.000  H
  C55      1.0000 0.38480  0.75760  0.40370  Biso   1.000  C
  H32      1.0000 0.41390  0.76580  0.34870  Biso   1.000  H
  C56      1.0000 0.50620  0.42050  0.18590  Biso   1.000  C
  C57      1.0000 0.52670  0.48900  0.17020  Biso   1.000  C
  H33      1.0000 0.50980  0.52880  0.20950  Biso   1.000  H
  C58      1.0000 0.57270  0.50040  0.09600  Biso   1.000  C
  H34      1.0000 0.58580  0.54740  0.08660  Biso   1.000  H
  C59      1.0000 0.59880  0.44280  0.03710  Biso   1.000  C
  C60      1.0000 0.57890  0.37350  0.05210  Biso   1.000  C
  H35      1.0000 0.59690  0.33360  0.01740  Biso   1.000  H
  C61      1.0000 0.53200  0.36350  0.11890  Biso   1.000  C
  H36      1.0000 0.51700  0.31690  0.11920  Biso   1.000  H
  C62      1.0000 0.64830  0.45550  0.96400  Biso   1.000  C
  C63      1.0000 0.28400  0.86840  0.58840  Biso   1.000  C
  C64      1.0000 0.31560  0.80720  0.54030  Biso   1.000  C
  C65      1.0000 0.30070  0.73800  0.57350  Biso   1.000  C
  H37      1.0000 0.27200  0.73070  0.63020  Biso   1.000  H
  C66      1.0000 0.35740  0.81620  0.45270  Biso   1.000  C
  H38      1.0000 0.36720  0.86300  0.42620  Biso   1.000  H
  C67      1.0000 0.25040  0.13480  0.64630  Biso   1.000  C
  C68      1.0000 0.26350  0.20970  0.59850  Biso   1.000  C
  C69      1.0000 0.30830  0.22260  0.52020  Biso   1.000  C
  H39      1.0000 0.32850  0.18330  0.49260  Biso   1.000  H
  C70      1.0000 0.32290  0.29100  0.48350  Biso   1.000  C
  H40      1.0000 0.35170  0.29730  0.42670  Biso   1.000  H
  C71      1.0000 0.23720  0.26980  0.64790  Biso   1.000  C
  H41      1.0000 0.20890  0.26360  0.70670  Biso   1.000  H
  C72      1.0000 0.25240  0.33790  0.61080  Biso   1.000  C
  H42      1.0000 0.23300  0.37750  0.64140  Biso   1.000  H
  N13      1.0000 0.42890  0.52080  0.30740  Biso   1.000  N
  N14      1.0000 0.38840  0.41240  0.39060  Biso   1.000  N
  N15      1.0000 0.35000  0.52760  0.43680  Biso   1.000  N
  N16      1.0000 0.39650  0.63180  0.37060  Biso   1.000  N
  H43      1.0000 0.42180  0.64570  0.31870  Biso   1.000  H
  N17      1.0000 0.30960  0.42360  0.50480  Biso   1.000  N
  H44      1.0000 0.28780  0.45440  0.53830  Biso   1.000  H
  N18      1.0000 0.46320  0.40350  0.26170  Biso   1.000  N
  H45      1.0000 0.45820  0.35770  0.27480  Biso   1.000  H
  O13      1.0000 0.67930  0.51240  0.01330  Biso   1.000  O
  O14      1.0000 0.29380  0.93290  0.54080  Biso   1.000  O
  O15      1.0000 0.25140  0.85920  0.68990  Biso   1.000  O
  O16      1.0000 0.21700  0.12210  0.73990  Biso   1.000  O
  O17      1.0000 0.27740  0.08100  0.59360  Biso   1.000  O
  O18      1.0000 0.66180  0.41220  0.85860  Biso   1.000  O
  La3      1.0000 0.74737  0.51396  0.30396  Biso   1.000  La
  C73      1.0000 0.85060  0.95480  0.43920  Biso   1.000  C
  C74      1.0000 0.88960  0.05820  0.37530  Biso   1.000  C
  C75      1.0000 0.92630  0.94940  0.32130  Biso   1.000  C
  C76      1.0000 0.79610  0.85090  0.52830  Biso   1.000  C
  C77      1.0000 0.87040  0.18630  0.43360  Biso   1.000  C
  C78      1.0000 0.82900  0.17590  0.52160  Biso   1.000  C
  H46      1.0000 0.81930  0.12900  0.54760  Biso   1.000  H
  C79      1.0000 0.88480  0.25760  0.40370  Biso   1.000  C
  H47      1.0000 0.91390  0.26580  0.34870  Biso   1.000  H
  C80      1.0000 0.00620  0.92050  0.18590  Biso   1.000  C
  C81      1.0000 0.02670  0.98900  0.17020  Biso   1.000  C
  H48      1.0000 0.00980  0.02880  0.20950  Biso   1.000  H
  C82      1.0000 0.07270  0.00040  0.09600  Biso   1.000  C
  H49      1.0000 0.08580  0.04740  0.08660  Biso   1.000  H
  C83      1.0000 0.09880  0.94280  0.03710  Biso   1.000  C
  C84      1.0000 0.07890  0.87350  0.05210  Biso   1.000  C
  H50      1.0000 0.09690  0.83360  0.01740  Biso   1.000  H
  C85      1.0000 0.03200  0.86350  0.11890  Biso   1.000  C
  H51      1.0000 0.01700  0.81690  0.11920  Biso   1.000  H
  C86      1.0000 0.14830  0.95550  0.96400  Biso   1.000  C
  C87      1.0000 0.78400  0.36840  0.58840  Biso   1.000  C
  C88      1.0000 0.81560  0.30720  0.54030  Biso   1.000  C
  C89      1.0000 0.80070  0.23800  0.57350  Biso   1.000  C
  H52      1.0000 0.77200  0.23070  0.63020  Biso   1.000  H
  C90      1.0000 0.85740  0.31620  0.45270  Biso   1.000  C
  H53      1.0000 0.86720  0.36300  0.42620  Biso   1.000  H
  C91      1.0000 0.75040  0.63480  0.64630  Biso   1.000  C
  C92      1.0000 0.76350  0.70970  0.59850  Biso   1.000  C
  C93      1.0000 0.80830  0.72260  0.52020  Biso   1.000  C
  H54      1.0000 0.82850  0.68330  0.49260  Biso   1.000  H
  C94      1.0000 0.82290  0.79100  0.48350  Biso   1.000  C
  H55      1.0000 0.85170  0.79730  0.42670  Biso   1.000  H
  C95      1.0000 0.73720  0.76980  0.64790  Biso   1.000  C
  H56      1.0000 0.70890  0.76360  0.70670  Biso   1.000  H
  C96      1.0000 0.75240  0.83790  0.61080  Biso   1.000  C
  H57      1.0000 0.73300  0.87750  0.64140  Biso   1.000  H
  N19      1.0000 0.92890  0.02080  0.30740  Biso   1.000  N
  N20      1.0000 0.88840  0.91240  0.39060  Biso   1.000  N
  N21      1.0000 0.85000  0.02760  0.43680  Biso   1.000  N
  N22      1.0000 0.89650  0.13180  0.37060  Biso   1.000  N
  H58      1.0000 0.92180  0.14570  0.31870  Biso   1.000  H
  N23      1.0000 0.80960  0.92360  0.50480  Biso   1.000  N
  H59      1.0000 0.78780  0.95440  0.53830  Biso   1.000  H
  N24      1.0000 0.96320  0.90350  0.26170  Biso   1.000  N
  H60      1.0000 0.95820  0.85770  0.27480  Biso   1.000  H
  O19      1.0000 0.17930  0.01240  0.01330  Biso   1.000  O
  O20      1.0000 0.79380  0.43290  0.54080  Biso   1.000  O
  O21      1.0000 0.75140  0.35920  0.68990  Biso   1.000  O
  O22      1.0000 0.71700  0.62210  0.73990  Biso   1.000  O
  O23      1.0000 0.77740  0.58100  0.59360  Biso   1.000  O
  O24      1.0000 0.16180  0.91220  0.85860  Biso   1.000  O
  La4      1.0000 0.24737  0.01396  0.30396  Biso   1.000  La
