data_image0
_cell_length_a       20.342
_cell_length_b       13.566
_cell_length_c       9.877
_cell_angle_alpha    90
_cell_angle_beta     90
_cell_angle_gamma    90

_symmetry_space_group_name_H-M    "P 1"
_symmetry_int_tables_number       1

loop_
  _symmetry_equiv_pos_as_xyz
  'x, y, z'

loop_
  _atom_site_label
  _atom_site_occupancy
  _atom_site_fract_x
  _atom_site_fract_y
  _atom_site_fract_z
  _atom_site_thermal_displace_type
  _atom_site_B_iso_or_equiv
  _atom_site_type_symbol
  Cu1      1.0000 0.10350  0.09024  0.56060  Biso   1.000  Cu
  Cu2      1.0000 0.22224  0.38658  0.82543  Biso   1.000  Cu
  S1       1.0000 0.11327  0.11380  0.79460  Biso   1.000  S
  N1       1.0000 0.18300  0.01480  0.47990  Biso   1.000  N
  C1       1.0000 0.22050  0.97370  0.41830  Biso   1.000  C
  N2       1.0000 0.97710  0.97890  0.48680  Biso   1.000  N
  C2       1.0000 0.02290  0.02110  0.51320  Biso   1.000  C
  Cu3      1.0000 0.39650  0.90976  0.06060  Biso   1.000  Cu
  Cu4      1.0000 0.27776  0.61342  0.32543  Biso   1.000  Cu
  S2       1.0000 0.38673  0.88620  0.29460  Biso   1.000  S
  N3       1.0000 0.31700  0.98520  0.97990  Biso   1.000  N
  C3       1.0000 0.27950  0.02630  0.91830  Biso   1.000  C
  N4       1.0000 0.52290  0.02110  0.98680  Biso   1.000  N
  C4       1.0000 0.47710  0.97890  0.01320  Biso   1.000  C
  Cu5      1.0000 0.89650  0.59024  0.43940  Biso   1.000  Cu
  Cu6      1.0000 0.77776  0.88658  0.17457  Biso   1.000  Cu
  S3       1.0000 0.88673  0.61380  0.20540  Biso   1.000  S
  N5       1.0000 0.81700  0.51480  0.52010  Biso   1.000  N
  C5       1.0000 0.77950  0.47370  0.58170  Biso   1.000  C
  N6       1.0000 0.02290  0.47890  0.51320  Biso   1.000  N
  C6       1.0000 0.97710  0.52110  0.48680  Biso   1.000  C
  Cu7      1.0000 0.60350  0.40976  0.93940  Biso   1.000  Cu
  Cu8      1.0000 0.72224  0.11342  0.67457  Biso   1.000  Cu
  S4       1.0000 0.61327  0.38620  0.70540  Biso   1.000  S
  N7       1.0000 0.68300  0.48520  0.02010  Biso   1.000  N
  C7       1.0000 0.72050  0.52630  0.08170  Biso   1.000  C
  N8       1.0000 0.47710  0.52110  0.01320  Biso   1.000  N
  C8       1.0000 0.52290  0.47890  0.98680  Biso   1.000  C
  Cu9      1.0000 0.89650  0.90976  0.43940  Biso   1.000  Cu
  Cu10     1.0000 0.77776  0.61342  0.17457  Biso   1.000  Cu
  S5       1.0000 0.88673  0.88620  0.20540  Biso   1.000  S
  N9       1.0000 0.81700  0.98520  0.52010  Biso   1.000  N
  C9       1.0000 0.77950  0.02630  0.58170  Biso   1.000  C
  Cu11     1.0000 0.60350  0.09024  0.93940  Biso   1.000  Cu
  Cu12     1.0000 0.72224  0.38658  0.67457  Biso   1.000  Cu
  S6       1.0000 0.61327  0.11380  0.70540  Biso   1.000  S
  N10      1.0000 0.68300  0.01480  0.02010  Biso   1.000  N
  C10      1.0000 0.72050  0.97370  0.08170  Biso   1.000  C
  Cu13     1.0000 0.10350  0.40976  0.56060  Biso   1.000  Cu
  Cu14     1.0000 0.22224  0.11342  0.82543  Biso   1.000  Cu
  S7       1.0000 0.11327  0.38620  0.79460  Biso   1.000  S
  N11      1.0000 0.18300  0.48520  0.47990  Biso   1.000  N
  C11      1.0000 0.22050  0.52630  0.41830  Biso   1.000  C
  Cu15     1.0000 0.39650  0.59024  0.06060  Biso   1.000  Cu
  Cu16     1.0000 0.27776  0.88658  0.32543  Biso   1.000  Cu
  S8       1.0000 0.38673  0.61380  0.29460  Biso   1.000  S
  N12      1.0000 0.31700  0.51480  0.97990  Biso   1.000  N
  C12      1.0000 0.27950  0.47370  0.91830  Biso   1.000  C
  W1       1.0000 0.15276  0.25000  0.69610  Biso   1.000  W
  S9       1.0000 0.26186  0.25000  0.72280  Biso   1.000  S
  S10      1.0000 0.12480  0.25000  0.48090  Biso   1.000  S
  W2       1.0000 0.34724  0.75000  0.19610  Biso   1.000  W
  S11      1.0000 0.23814  0.75000  0.22280  Biso   1.000  S
  S12      1.0000 0.37520  0.75000  0.98090  Biso   1.000  S
  W3       1.0000 0.84724  0.75000  0.30390  Biso   1.000  W
  S13      1.0000 0.73814  0.75000  0.27720  Biso   1.000  S
  S14      1.0000 0.87520  0.75000  0.51910  Biso   1.000  S
  W4       1.0000 0.65276  0.25000  0.80390  Biso   1.000  W
  S15      1.0000 0.76186  0.25000  0.77720  Biso   1.000  S
  S16      1.0000 0.62480  0.25000  0.01910  Biso   1.000  S
