data_image0
_cell_length_a       10.335
_cell_length_b       13.3823
_cell_length_c       22.6623
_cell_angle_alpha    100.903
_cell_angle_beta     91.359
_cell_angle_gamma    104.331

_symmetry_space_group_name_H-M    "P 1"
_symmetry_int_tables_number       1

loop_
  _symmetry_equiv_pos_as_xyz
  'x, y, z'

loop_
  _atom_site_label
  _atom_site_occupancy
  _atom_site_fract_x
  _atom_site_fract_y
  _atom_site_fract_z
  _atom_site_thermal_displace_type
  _atom_site_B_iso_or_equiv
  _atom_site_type_symbol
  Cu1      1.0000 0.04941  0.54785  0.27955  Biso   1.000  Cu
  Cu2      1.0000 0.41825  0.06113  0.04813  Biso   1.000  Cu
  S1       1.0000 0.66134  0.92606  0.28119  Biso   1.000  S
  S2       1.0000 0.50045  0.69706  0.24388  Biso   1.000  S
  S3       1.0000 0.60407  0.41311  0.32361  Biso   1.000  S
  S4       1.0000 0.45973  0.19175  0.25743  Biso   1.000  S
  S5       1.0000 0.94106  0.95000  0.78102  Biso   1.000  S
  S6       1.0000 0.07014  0.18146  0.83989  Biso   1.000  S
  N1       1.0000 0.50210  0.02250  0.11790  Biso   1.000  N
  N2       1.0000 0.88020  0.59190  0.26940  Biso   1.000  N
  N3       1.0000 0.21780  0.50480  0.28994  Biso   1.000  N
  N4       1.0000 0.50080  0.05200  0.42229  Biso   1.000  N
  N5       1.0000 0.31340  0.09750  0.98320  Biso   1.000  N
  N6       1.0000 0.98810  0.98550  0.58673  Biso   1.000  N
  C1       1.0000 0.42480  0.94840  0.14240  Biso   1.000  C
  H1       1.0000 0.33590  0.91730  0.12510  Biso   1.000  H
  C2       1.0000 0.46640  0.91450  0.19140  Biso   1.000  C
  H2       1.0000 0.40730  0.86100  0.20710  Biso   1.000  H
  C3       1.0000 0.59560  0.95910  0.21770  Biso   1.000  C
  C4       1.0000 0.67780  0.03700  0.19240  Biso   1.000  C
  H3       1.0000 0.76710  0.06930  0.20880  Biso   1.000  H
  C5       1.0000 0.62780  0.06650  0.14340  Biso   1.000  C
  H4       1.0000 0.68410  0.12020  0.12690  Biso   1.000  H
  C6       1.0000 0.52610  0.82120  0.29580  Biso   1.000  C
  H5       1.0000 0.54350  0.81010  0.33690  Biso   1.000  H
  H6       1.0000 0.44230  0.84420  0.29530  Biso   1.000  H
  C7       1.0000 0.64910  0.66070  0.25620  Biso   1.000  C
  C8       1.0000 0.73160  0.69410  0.30970  Biso   1.000  C
  H7       1.0000 0.71010  0.74140  0.34250  Biso   1.000  H
  C9       1.0000 0.84430  0.65780  0.31440  Biso   1.000  C
  H8       1.0000 0.89900  0.68050  0.35120  Biso   1.000  H
  C10      1.0000 0.80060  0.55850  0.21880  Biso   1.000  C
  H9       1.0000 0.82440  0.51090  0.18680  Biso   1.000  H
  C11      1.0000 0.68480  0.59010  0.21060  Biso   1.000  C
  H10      1.0000 0.63020  0.56360  0.17390  Biso   1.000  H
  C12      1.0000 0.29000  0.53500  0.34330  Biso   1.000  C
  H11      1.0000 0.25800  0.57650  0.37560  Biso   1.000  H
  C13      1.0000 0.40730  0.50880  0.35330  Biso   1.000  C
  H12      1.0000 0.45550  0.53300  0.39170  Biso   1.000  H
  C14      1.0000 0.45570  0.44690  0.30740  Biso   1.000  C
  C15      1.0000 0.38270  0.41760  0.25190  Biso   1.000  C
  H13      1.0000 0.41300  0.37680  0.21860  Biso   1.000  H
  C16      1.0000 0.26690  0.44800  0.24540  Biso   1.000  C
  H14      1.0000 0.21870  0.42740  0.20690  Biso   1.000  H
  C17      1.0000 0.60110  0.30390  0.26240  Biso   1.000  C
  H15      1.0000 0.60210  0.32900  0.22400  Biso   1.000  H
  H16      1.0000 0.68410  0.28080  0.26700  Biso   1.000  H
  C18      1.0000 0.48620  0.14190  0.32136  Biso   1.000  C
  C19      1.0000 0.60130  0.17300  0.36060  Biso   1.000  C
  H17      1.0000 0.67660  0.22570  0.35370  Biso   1.000  H
  C20      1.0000 0.60420  0.12610  0.40950  Biso   1.000  C
  H18      1.0000 0.68350  0.14740  0.43570  Biso   1.000  H
  C21      1.0000 0.39120  0.02010  0.38323  Biso   1.000  C
  H19      1.0000 0.31820  0.96610  0.39070  Biso   1.000  H
  C22      1.0000 0.38060  0.06210  0.33326  Biso   1.000  C
  H20      1.0000 0.30170  0.03710  0.30680  Biso   1.000  H
  C23      1.0000 0.18730  0.04150  0.96800  Biso   1.000  C
  H21      1.0000 0.15160  0.98510  0.98760  Biso   1.000  H
  C24      1.0000 0.10630  0.06190  0.92490  Biso   1.000  C
  H22      1.0000 0.01650  0.02070  0.91550  Biso   1.000  H
  C25      1.0000 0.15850  0.14430  0.89520  Biso   1.000  C
  C26      1.0000 0.28980  0.20300  0.91110  Biso   1.000  C
  H23      1.0000 0.32860  0.25960  0.89210  Biso   1.000  H
  C27      1.0000 0.36280  0.17750  0.95530  Biso   1.000  C
  H24      1.0000 0.45210  0.21840  0.96650  Biso   1.000  H
  C28      1.0000 0.92080  0.07410  0.82200  Biso   1.000  C
  H25      1.0000 0.85550  0.09640  0.79820  Biso   1.000  H
  H26      1.0000 0.88110  0.06220  0.86020  Biso   1.000  H
  C29      1.0000 0.96700  0.97190  0.70780  Biso   1.000  C
  C30      1.0000 0.97180  0.06540  0.68910  Biso   1.000  C
  H27      1.0000 0.96790  0.12650  0.71750  Biso   1.000  H
  C31      1.0000 0.98230  0.06880  0.62890  Biso   1.000  C
  H28      1.0000 0.98550  0.13350  0.61680  Biso   1.000  H
  C32      1.0000 0.98790  0.89680  0.60580  Biso   1.000  C
  H29      1.0000 0.99540  0.83750  0.57680  Biso   1.000  H
  C33      1.0000 0.97770  0.88640  0.66450  Biso   1.000  C
  H30      1.0000 0.97800  0.82140  0.67550  Biso   1.000  H
  C34      1.0000 0.71660  0.89960  0.47540  Biso   1.000  C
  H31      1.0000 0.64560  0.83810  0.46250  Biso   1.000  H
  C35      1.0000 0.70920  0.16450  0.99870  Biso   1.000  C
  H32      1.0000 0.71320  0.23080  0.02370  Biso   1.000  H
  O1       1.0000 0.68510  0.98410  0.49057  Biso   1.000  O
  O2       1.0000 0.83210  0.88790  0.47559  Biso   1.000  O
  O3       1.0000 0.60810  0.08990  0.00134  Biso   1.000  O
  O4       1.0000 0.80300  0.15920  0.96656  Biso   1.000  O
  Cu3      1.0000 0.95059  0.45215  0.72045  Biso   1.000  Cu
  Cu4      1.0000 0.58175  0.93887  0.95187  Biso   1.000  Cu
  S7       1.0000 0.33866  0.07394  0.71881  Biso   1.000  S
  S8       1.0000 0.49955  0.30294  0.75612  Biso   1.000  S
  S9       1.0000 0.39593  0.58689  0.67639  Biso   1.000  S
  S10      1.0000 0.54027  0.80825  0.74257  Biso   1.000  S
  S11      1.0000 0.05894  0.05000  0.21898  Biso   1.000  S
  S12      1.0000 0.92986  0.81854  0.16011  Biso   1.000  S
  N7       1.0000 0.49790  0.97750  0.88210  Biso   1.000  N
  N8       1.0000 0.11980  0.40810  0.73060  Biso   1.000  N
  N9       1.0000 0.78220  0.49520  0.71006  Biso   1.000  N
  N10      1.0000 0.49920  0.94800  0.57771  Biso   1.000  N
  N11      1.0000 0.68660  0.90250  0.01680  Biso   1.000  N
  N12      1.0000 0.01190  0.01450  0.41327  Biso   1.000  N
  C36      1.0000 0.57520  0.05160  0.85760  Biso   1.000  C
  H33      1.0000 0.66410  0.08270  0.87490  Biso   1.000  H
  C37      1.0000 0.53360  0.08550  0.80860  Biso   1.000  C
  H34      1.0000 0.59270  0.13900  0.79290  Biso   1.000  H
  C38      1.0000 0.40440  0.04090  0.78230  Biso   1.000  C
  C39      1.0000 0.32220  0.96300  0.80760  Biso   1.000  C
  H35      1.0000 0.23290  0.93070  0.79120  Biso   1.000  H
  C40      1.0000 0.37220  0.93350  0.85660  Biso   1.000  C
  H36      1.0000 0.31590  0.87980  0.87310  Biso   1.000  H
  C41      1.0000 0.47390  0.17880  0.70420  Biso   1.000  C
  H37      1.0000 0.45650  0.18990  0.66310  Biso   1.000  H
  H38      1.0000 0.55770  0.15580  0.70470  Biso   1.000  H
  C42      1.0000 0.35090  0.33930  0.74380  Biso   1.000  C
  C43      1.0000 0.26840  0.30590  0.69030  Biso   1.000  C
  H39      1.0000 0.28990  0.25860  0.65750  Biso   1.000  H
  C44      1.0000 0.15570  0.34220  0.68560  Biso   1.000  C
  H40      1.0000 0.10100  0.31950  0.64880  Biso   1.000  H
  C45      1.0000 0.19940  0.44150  0.78120  Biso   1.000  C
  H41      1.0000 0.17560  0.48910  0.81320  Biso   1.000  H
  C46      1.0000 0.31520  0.40990  0.78940  Biso   1.000  C
  H42      1.0000 0.36980  0.43640  0.82610  Biso   1.000  H
  C47      1.0000 0.71000  0.46500  0.65670  Biso   1.000  C
  H43      1.0000 0.74200  0.42350  0.62440  Biso   1.000  H
  C48      1.0000 0.59270  0.49120  0.64670  Biso   1.000  C
  H44      1.0000 0.54450  0.46700  0.60830  Biso   1.000  H
  C49      1.0000 0.54430  0.55310  0.69260  Biso   1.000  C
  C50      1.0000 0.61730  0.58240  0.74810  Biso   1.000  C
  H45      1.0000 0.58700  0.62320  0.78140  Biso   1.000  H
  C51      1.0000 0.73310  0.55200  0.75460  Biso   1.000  C
  H46      1.0000 0.78130  0.57260  0.79310  Biso   1.000  H
  C52      1.0000 0.39890  0.69610  0.73760  Biso   1.000  C
  H47      1.0000 0.39790  0.67100  0.77600  Biso   1.000  H
  H48      1.0000 0.31590  0.71920  0.73300  Biso   1.000  H
  C53      1.0000 0.51380  0.85810  0.67864  Biso   1.000  C
  C54      1.0000 0.39870  0.82700  0.63940  Biso   1.000  C
  H49      1.0000 0.32340  0.77430  0.64630  Biso   1.000  H
  C55      1.0000 0.39580  0.87390  0.59050  Biso   1.000  C
  H50      1.0000 0.31650  0.85260  0.56430  Biso   1.000  H
  C56      1.0000 0.60880  0.97990  0.61677  Biso   1.000  C
  H51      1.0000 0.68180  0.03390  0.60930  Biso   1.000  H
  C57      1.0000 0.61940  0.93790  0.66674  Biso   1.000  C
  H52      1.0000 0.69830  0.96290  0.69320  Biso   1.000  H
  C58      1.0000 0.81270  0.95850  0.03200  Biso   1.000  C
  H53      1.0000 0.84840  0.01490  0.01240  Biso   1.000  H
  C59      1.0000 0.89370  0.93810  0.07510  Biso   1.000  C
  H54      1.0000 0.98350  0.97930  0.08450  Biso   1.000  H
  C60      1.0000 0.84150  0.85570  0.10480  Biso   1.000  C
  C61      1.0000 0.71020  0.79700  0.08890  Biso   1.000  C
  H55      1.0000 0.67140  0.74040  0.10790  Biso   1.000  H
  C62      1.0000 0.63720  0.82250  0.04470  Biso   1.000  C
  H56      1.0000 0.54790  0.78160  0.03350  Biso   1.000  H
  C63      1.0000 0.07920  0.92590  0.17800  Biso   1.000  C
  H57      1.0000 0.14450  0.90360  0.20180  Biso   1.000  H
  H58      1.0000 0.11890  0.93780  0.13980  Biso   1.000  H
  C64      1.0000 0.03300  0.02810  0.29220  Biso   1.000  C
  C65      1.0000 0.02820  0.93460  0.31090  Biso   1.000  C
  H59      1.0000 0.03210  0.87350  0.28250  Biso   1.000  H
  C66      1.0000 0.01770  0.93120  0.37110  Biso   1.000  C
  H60      1.0000 0.01450  0.86650  0.38320  Biso   1.000  H
  C67      1.0000 0.01210  0.10320  0.39420  Biso   1.000  C
  H61      1.0000 0.00460  0.16250  0.42320  Biso   1.000  H
  C68      1.0000 0.02230  0.11360  0.33550  Biso   1.000  C
  H62      1.0000 0.02200  0.17860  0.32450  Biso   1.000  H
  C69      1.0000 0.28340  0.10040  0.52460  Biso   1.000  C
  H63      1.0000 0.35440  0.16190  0.53750  Biso   1.000  H
  C70      1.0000 0.29080  0.83550  0.00130  Biso   1.000  C
  H64      1.0000 0.28680  0.76920  0.97630  Biso   1.000  H
  O5       1.0000 0.31490  0.01590  0.50943  Biso   1.000  O
  O6       1.0000 0.16790  0.11210  0.52441  Biso   1.000  O
  O7       1.0000 0.39190  0.91010  0.99866  Biso   1.000  O
  O8       1.0000 0.19700  0.84080  0.03344  Biso   1.000  O
  Cu5      1.0000 0.50000  0.00000  0.50000  Biso   1.000  Cu
  Cu6      1.0000 0.00000  0.00000  0.50000  Biso   1.000  Cu
