data_image0
_cell_length_a       10.193
_cell_length_b       14.276
_cell_length_c       10.38
_cell_angle_alpha    90
_cell_angle_beta     91.184
_cell_angle_gamma    90

_symmetry_space_group_name_H-M    "P 1"
_symmetry_int_tables_number       1

loop_
  _symmetry_equiv_pos_as_xyz
  'x, y, z'

loop_
  _atom_site_label
  _atom_site_occupancy
  _atom_site_fract_x
  _atom_site_fract_y
  _atom_site_fract_z
  _atom_site_thermal_displace_type
  _atom_site_B_iso_or_equiv
  _atom_site_type_symbol
  P1       1.0000 0.31530  0.50915  0.78990  Biso   1.000  P
  P2       1.0000 0.88560  0.48092  0.67390  Biso   1.000  P
  P3       1.0000 0.02190  0.80083  0.50190  Biso   1.000  P
  O1       1.0000 0.12220  0.72820  0.55890  Biso   1.000  O
  O2       1.0000 0.24070  0.59210  0.72660  Biso   1.000  O
  O3       1.0000 0.95640  0.57800  0.67740  Biso   1.000  O
  O4       1.0000 0.31910  0.52180  0.93150  Biso   1.000  O
  O5       1.0000 0.44890  0.49750  0.73100  Biso   1.000  O
  O6       1.0000 0.23880  0.41720  0.75090  Biso   1.000  O
  O7       1.0000 0.94870  0.84810  0.60740  Biso   1.000  O
  O8       1.0000 0.98370  0.40460  0.71430  Biso   1.000  O
  O9       1.0000 0.76810  0.48350  0.75590  Biso   1.000  O
  O10      1.0000 0.15640  0.53430  0.46840  Biso   1.000  O
  O11      1.0000 0.09270  0.86270  0.40940  Biso   1.000  O
  O12      1.0000 0.91750  0.73810  0.42570  Biso   1.000  O
  Ga1      1.0000 0.11141  0.60674  0.60391  Biso   1.000  Ga
  Mn1      1.0000 0.38889  0.50768  0.12358  Biso   1.000  Mn
  H1       1.0000 0.95000  0.69000  0.37700  Biso   1.000  H
  H2       1.0000 0.14400  0.40900  0.74900  Biso   1.000  H
  P4       1.0000 0.18470  0.00915  0.71010  Biso   1.000  P
  P5       1.0000 0.61440  0.98092  0.82610  Biso   1.000  P
  P6       1.0000 0.47810  0.30083  0.99810  Biso   1.000  P
  O13      1.0000 0.37780  0.22820  0.94110  Biso   1.000  O
  O14      1.0000 0.25930  0.09210  0.77340  Biso   1.000  O
  O15      1.0000 0.54360  0.07800  0.82260  Biso   1.000  O
  O16      1.0000 0.18090  0.02180  0.56850  Biso   1.000  O
  O17      1.0000 0.05110  0.99750  0.76900  Biso   1.000  O
  O18      1.0000 0.26120  0.91720  0.74910  Biso   1.000  O
  O19      1.0000 0.55130  0.34810  0.89260  Biso   1.000  O
  O20      1.0000 0.51630  0.90460  0.78570  Biso   1.000  O
  O21      1.0000 0.73190  0.98350  0.74410  Biso   1.000  O
  O22      1.0000 0.34360  0.03430  0.03160  Biso   1.000  O
  O23      1.0000 0.40730  0.36270  0.09060  Biso   1.000  O
  O24      1.0000 0.58250  0.23810  0.07430  Biso   1.000  O
  Ga2      1.0000 0.38859  0.10674  0.89609  Biso   1.000  Ga
  Mn2      1.0000 0.11111  0.00768  0.37642  Biso   1.000  Mn
  H3       1.0000 0.55000  0.19000  0.12300  Biso   1.000  H
  H4       1.0000 0.35600  0.90900  0.75100  Biso   1.000  H
  P7       1.0000 0.68470  0.49085  0.21010  Biso   1.000  P
  P8       1.0000 0.11440  0.51908  0.32610  Biso   1.000  P
  P9       1.0000 0.97810  0.19917  0.49810  Biso   1.000  P
  O25      1.0000 0.87780  0.27180  0.44110  Biso   1.000  O
  O26      1.0000 0.75930  0.40790  0.27340  Biso   1.000  O
  O27      1.0000 0.04360  0.42200  0.32260  Biso   1.000  O
  O28      1.0000 0.68090  0.47820  0.06850  Biso   1.000  O
  O29      1.0000 0.55110  0.50250  0.26900  Biso   1.000  O
  O30      1.0000 0.76120  0.58280  0.24910  Biso   1.000  O
  O31      1.0000 0.05130  0.15190  0.39260  Biso   1.000  O
  O32      1.0000 0.01630  0.59540  0.28570  Biso   1.000  O
  O33      1.0000 0.23190  0.51650  0.24410  Biso   1.000  O
  O34      1.0000 0.84360  0.46570  0.53160  Biso   1.000  O
  O35      1.0000 0.90730  0.13730  0.59060  Biso   1.000  O
  O36      1.0000 0.08250  0.26190  0.57430  Biso   1.000  O
  Ga3      1.0000 0.88859  0.39326  0.39609  Biso   1.000  Ga
  Mn3      1.0000 0.61111  0.49232  0.87642  Biso   1.000  Mn
  H5       1.0000 0.05000  0.31000  0.62300  Biso   1.000  H
  H6       1.0000 0.85600  0.59100  0.25100  Biso   1.000  H
  P10      1.0000 0.81530  0.99085  0.28990  Biso   1.000  P
  P11      1.0000 0.38560  0.01908  0.17390  Biso   1.000  P
  P12      1.0000 0.52190  0.69917  0.00190  Biso   1.000  P
  O37      1.0000 0.62220  0.77180  0.05890  Biso   1.000  O
  O38      1.0000 0.74070  0.90790  0.22660  Biso   1.000  O
  O39      1.0000 0.45640  0.92200  0.17740  Biso   1.000  O
  O40      1.0000 0.81910  0.97820  0.43150  Biso   1.000  O
  O41      1.0000 0.94890  0.00250  0.23100  Biso   1.000  O
  O42      1.0000 0.73880  0.08280  0.25090  Biso   1.000  O
  O43      1.0000 0.44870  0.65190  0.10740  Biso   1.000  O
  O44      1.0000 0.48370  0.09540  0.21430  Biso   1.000  O
  O45      1.0000 0.26810  0.01650  0.25590  Biso   1.000  O
  O46      1.0000 0.65640  0.96570  0.96840  Biso   1.000  O
  O47      1.0000 0.59270  0.63730  0.90940  Biso   1.000  O
  O48      1.0000 0.41750  0.76190  0.92570  Biso   1.000  O
  Ga4      1.0000 0.61141  0.89326  0.10391  Biso   1.000  Ga
  Mn4      1.0000 0.88889  0.99232  0.62358  Biso   1.000  Mn
  H7       1.0000 0.45000  0.81000  0.87700  Biso   1.000  H
  H8       1.0000 0.64400  0.09100  0.24900  Biso   1.000  H
