data_image0
_cell_length_a       16.2712
_cell_length_b       16.2712
_cell_length_c       17.2772
_cell_angle_alpha    90
_cell_angle_beta     90
_cell_angle_gamma    120

_symmetry_space_group_name_H-M    "P 1"
_symmetry_int_tables_number       1

loop_
  _symmetry_equiv_pos_as_xyz
  'x, y, z'

loop_
  _atom_site_label
  _atom_site_occupancy
  _atom_site_fract_x
  _atom_site_fract_y
  _atom_site_fract_z
  _atom_site_thermal_displace_type
  _atom_site_B_iso_or_equiv
  _atom_site_type_symbol
  Co1      1.0000 0.94408  0.59801  0.79344  Biso   1.000  Co
  Co2      1.0000 0.96506  0.72431  0.95064  Biso   1.000  Co
  O1       1.0000 0.82890  0.61230  0.77680  Biso   1.000  O
  O2       1.0000 0.87630  0.72690  0.86370  Biso   1.000  O
  O3       1.0000 0.72040  0.91870  0.88310  Biso   1.000  O
  O4       1.0000 0.67230  0.94630  0.77030  Biso   1.000  O
  O5       1.0000 0.74500  0.80240  0.54840  Biso   1.000  O
  O6       1.0000 0.63930  0.84750  0.51450  Biso   1.000  O
  O7       1.0000 0.40190  0.53920  0.36050  Biso   1.000  O
  O8       1.0000 0.36900  0.40540  0.41320  Biso   1.000  O
  O9       1.0000 0.46360  0.40160  0.69100  Biso   1.000  O
  O10      1.0000 0.46010  0.51530  0.75570  Biso   1.000  O
  C1       1.0000 0.75350  0.70520  0.77830  Biso   1.000  C
  C2       1.0000 0.75330  0.78230  0.81140  Biso   1.000  C
  H1       1.0000 0.79170  0.81290  0.85380  Biso   1.000  H
  C3       1.0000 0.69390  0.81410  0.77960  Biso   1.000  C
  C4       1.0000 0.63720  0.76870  0.71670  Biso   1.000  C
  H2       1.0000 0.60020  0.79140  0.69480  Biso   1.000  H
  C5       1.0000 0.63540  0.68800  0.68580  Biso   1.000  C
  C6       1.0000 0.69350  0.65790  0.71700  Biso   1.000  C
  H3       1.0000 0.69250  0.60460  0.69640  Biso   1.000  H
  C7       1.0000 0.82420  0.67920  0.80930  Biso   1.000  C
  C8       1.0000 0.69650  0.90050  0.81380  Biso   1.000  C
  C9       1.0000 0.57160  0.63870  0.61780  Biso   1.000  C
  C10      1.0000 0.58190  0.68790  0.54990  Biso   1.000  C
  C11      1.0000 0.52370  0.64230  0.48480  Biso   1.000  C
  H4       1.0000 0.52980  0.67680  0.44020  Biso   1.000  H
  C12      1.0000 0.45780  0.54600  0.48770  Biso   1.000  C
  C13      1.0000 0.44780  0.49590  0.55650  Biso   1.000  C
  H5       1.0000 0.40530  0.43100  0.55840  Biso   1.000  H
  C14      1.0000 0.50080  0.54220  0.62190  Biso   1.000  C
  C15      1.0000 0.66070  0.78650  0.53790  Biso   1.000  C
  C16      1.0000 0.40540  0.49500  0.41760  Biso   1.000  C
  C17      1.0000 0.47540  0.48550  0.69560  Biso   1.000  C
  Co3      1.0000 0.40199  0.34607  0.79344  Biso   1.000  Co
  Co4      1.0000 0.27569  0.24075  0.95064  Biso   1.000  Co
  O11      1.0000 0.38770  0.21660  0.77680  Biso   1.000  O
  O12      1.0000 0.27310  0.14940  0.86370  Biso   1.000  O
  O13      1.0000 0.08130  0.80170  0.88310  Biso   1.000  O
  O14      1.0000 0.05370  0.72600  0.77030  Biso   1.000  O
  O15      1.0000 0.19760  0.94260  0.54840  Biso   1.000  O
  O16      1.0000 0.15250  0.79180  0.51450  Biso   1.000  O
  O17      1.0000 0.46080  0.86270  0.36050  Biso   1.000  O
  O18      1.0000 0.59460  0.96360  0.41320  Biso   1.000  O
  O19      1.0000 0.59840  0.06200  0.69100  Biso   1.000  O
  O20      1.0000 0.48470  0.94480  0.75570  Biso   1.000  O
  C18      1.0000 0.29480  0.04830  0.77830  Biso   1.000  C
  C19      1.0000 0.21770  0.97100  0.81140  Biso   1.000  C
  H6       1.0000 0.18710  0.97880  0.85380  Biso   1.000  H
  C20      1.0000 0.18590  0.87980  0.77960  Biso   1.000  C
  C21      1.0000 0.23130  0.86850  0.71670  Biso   1.000  C
  H7       1.0000 0.20860  0.80880  0.69480  Biso   1.000  H
  C22      1.0000 0.31200  0.94740  0.68580  Biso   1.000  C
  C23      1.0000 0.34210  0.03560  0.71700  Biso   1.000  C
  H8       1.0000 0.39540  0.08790  0.69640  Biso   1.000  H
  C24      1.0000 0.32080  0.14500  0.80930  Biso   1.000  C
  C25      1.0000 0.09950  0.79600  0.81380  Biso   1.000  C
  C26      1.0000 0.36130  0.93290  0.61780  Biso   1.000  C
  C27      1.0000 0.31210  0.89400  0.54990  Biso   1.000  C
  C28      1.0000 0.35770  0.88140  0.48480  Biso   1.000  C
  H9       1.0000 0.32320  0.85300  0.44020  Biso   1.000  H
  C29      1.0000 0.45400  0.91180  0.48770  Biso   1.000  C
  C30      1.0000 0.50410  0.95190  0.55650  Biso   1.000  C
  H10      1.0000 0.56900  0.97430  0.55840  Biso   1.000  H
  C31      1.0000 0.45780  0.95860  0.62190  Biso   1.000  C
  C32      1.0000 0.21350  0.87420  0.53790  Biso   1.000  C
  C33      1.0000 0.50500  0.91040  0.41760  Biso   1.000  C
  C34      1.0000 0.51450  0.98990  0.69560  Biso   1.000  C
  Co5      1.0000 0.65393  0.05592  0.79344  Biso   1.000  Co
  Co6      1.0000 0.75925  0.03494  0.95064  Biso   1.000  Co
  O21      1.0000 0.78340  0.17110  0.77680  Biso   1.000  O
  O22      1.0000 0.85060  0.12370  0.86370  Biso   1.000  O
  O23      1.0000 0.19830  0.27960  0.88310  Biso   1.000  O
  O24      1.0000 0.27400  0.32770  0.77030  Biso   1.000  O
  O25      1.0000 0.05740  0.25500  0.54840  Biso   1.000  O
  O26      1.0000 0.20820  0.36070  0.51450  Biso   1.000  O
  O27      1.0000 0.13730  0.59810  0.36050  Biso   1.000  O
  O28      1.0000 0.03640  0.63100  0.41320  Biso   1.000  O
  O29      1.0000 0.93800  0.53640  0.69100  Biso   1.000  O
  O30      1.0000 0.05520  0.53990  0.75570  Biso   1.000  O
  C35      1.0000 0.95170  0.24650  0.77830  Biso   1.000  C
  C36      1.0000 0.02900  0.24670  0.81140  Biso   1.000  C
  H11      1.0000 0.02120  0.20830  0.85380  Biso   1.000  H
  C37      1.0000 0.12020  0.30610  0.77960  Biso   1.000  C
  C38      1.0000 0.13150  0.36280  0.71670  Biso   1.000  C
  H12      1.0000 0.19120  0.39980  0.69480  Biso   1.000  H
  C39      1.0000 0.05260  0.36460  0.68580  Biso   1.000  C
  C40      1.0000 0.96440  0.30650  0.71700  Biso   1.000  C
  H13      1.0000 0.91210  0.30750  0.69640  Biso   1.000  H
  C41      1.0000 0.85500  0.17580  0.80930  Biso   1.000  C
  C42      1.0000 0.20400  0.30350  0.81380  Biso   1.000  C
  C43      1.0000 0.06710  0.42840  0.61780  Biso   1.000  C
  C44      1.0000 0.10600  0.41810  0.54990  Biso   1.000  C
  C45      1.0000 0.11860  0.47630  0.48480  Biso   1.000  C
  H14      1.0000 0.14700  0.47020  0.44020  Biso   1.000  H
  C46      1.0000 0.08820  0.54220  0.48770  Biso   1.000  C
  C47      1.0000 0.04810  0.55220  0.55650  Biso   1.000  C
  H15      1.0000 0.02570  0.59470  0.55840  Biso   1.000  H
  C48      1.0000 0.04140  0.49920  0.62190  Biso   1.000  C
  C49      1.0000 0.12580  0.33930  0.53790  Biso   1.000  C
  C50      1.0000 0.08960  0.59460  0.41760  Biso   1.000  C
  C51      1.0000 0.01010  0.52460  0.69560  Biso   1.000  C
  Co7      1.0000 0.59801  0.94408  0.29344  Biso   1.000  Co
  Co8      1.0000 0.72431  0.96506  0.45064  Biso   1.000  Co
  O31      1.0000 0.61230  0.82890  0.27680  Biso   1.000  O
  O32      1.0000 0.72690  0.87630  0.36370  Biso   1.000  O
  O33      1.0000 0.91870  0.72040  0.38310  Biso   1.000  O
  O34      1.0000 0.94630  0.67230  0.27030  Biso   1.000  O
  O35      1.0000 0.80240  0.74500  0.04840  Biso   1.000  O
  O36      1.0000 0.84750  0.63930  0.01450  Biso   1.000  O
  O37      1.0000 0.53920  0.40190  0.86050  Biso   1.000  O
  O38      1.0000 0.40540  0.36900  0.91320  Biso   1.000  O
  O39      1.0000 0.40160  0.46360  0.19100  Biso   1.000  O
  O40      1.0000 0.51530  0.46010  0.25570  Biso   1.000  O
  C52      1.0000 0.70520  0.75350  0.27830  Biso   1.000  C
  C53      1.0000 0.78230  0.75330  0.31140  Biso   1.000  C
  H16      1.0000 0.81290  0.79170  0.35380  Biso   1.000  H
  C54      1.0000 0.81410  0.69390  0.27960  Biso   1.000  C
  C55      1.0000 0.76870  0.63720  0.21670  Biso   1.000  C
  H17      1.0000 0.79140  0.60020  0.19480  Biso   1.000  H
  C56      1.0000 0.68800  0.63540  0.18580  Biso   1.000  C
  C57      1.0000 0.65790  0.69350  0.21700  Biso   1.000  C
  H18      1.0000 0.60460  0.69250  0.19640  Biso   1.000  H
  C58      1.0000 0.67920  0.82420  0.30930  Biso   1.000  C
  C59      1.0000 0.90050  0.69650  0.31380  Biso   1.000  C
  C60      1.0000 0.63870  0.57160  0.11780  Biso   1.000  C
  C61      1.0000 0.68790  0.58190  0.04990  Biso   1.000  C
  C62      1.0000 0.64230  0.52370  0.98480  Biso   1.000  C
  H19      1.0000 0.67680  0.52980  0.94020  Biso   1.000  H
  C63      1.0000 0.54600  0.45780  0.98770  Biso   1.000  C
  C64      1.0000 0.49590  0.44780  0.05650  Biso   1.000  C
  H20      1.0000 0.43100  0.40530  0.05840  Biso   1.000  H
  C65      1.0000 0.54220  0.50080  0.12190  Biso   1.000  C
  C66      1.0000 0.78650  0.66070  0.03790  Biso   1.000  C
  C67      1.0000 0.49500  0.40540  0.91760  Biso   1.000  C
  C68      1.0000 0.48550  0.47540  0.19560  Biso   1.000  C
  Co9      1.0000 0.34607  0.40199  0.29344  Biso   1.000  Co
  Co10     1.0000 0.24075  0.27569  0.45064  Biso   1.000  Co
  O41      1.0000 0.21660  0.38770  0.27680  Biso   1.000  O
  O42      1.0000 0.14940  0.27310  0.36370  Biso   1.000  O
  O43      1.0000 0.80170  0.08130  0.38310  Biso   1.000  O
  O44      1.0000 0.72600  0.05370  0.27030  Biso   1.000  O
  O45      1.0000 0.94260  0.19760  0.04840  Biso   1.000  O
  O46      1.0000 0.79180  0.15250  0.01450  Biso   1.000  O
  O47      1.0000 0.86270  0.46080  0.86050  Biso   1.000  O
  O48      1.0000 0.96360  0.59460  0.91320  Biso   1.000  O
  O49      1.0000 0.06200  0.59840  0.19100  Biso   1.000  O
  O50      1.0000 0.94480  0.48470  0.25570  Biso   1.000  O
  C69      1.0000 0.04830  0.29480  0.27830  Biso   1.000  C
  C70      1.0000 0.97100  0.21770  0.31140  Biso   1.000  C
  H21      1.0000 0.97880  0.18710  0.35380  Biso   1.000  H
  C71      1.0000 0.87980  0.18590  0.27960  Biso   1.000  C
  C72      1.0000 0.86850  0.23130  0.21670  Biso   1.000  C
  H22      1.0000 0.80880  0.20860  0.19480  Biso   1.000  H
  C73      1.0000 0.94740  0.31200  0.18580  Biso   1.000  C
  C74      1.0000 0.03560  0.34210  0.21700  Biso   1.000  C
  H23      1.0000 0.08790  0.39540  0.19640  Biso   1.000  H
  C75      1.0000 0.14500  0.32080  0.30930  Biso   1.000  C
  C76      1.0000 0.79600  0.09950  0.31380  Biso   1.000  C
  C77      1.0000 0.93290  0.36130  0.11780  Biso   1.000  C
  C78      1.0000 0.89400  0.31210  0.04990  Biso   1.000  C
  C79      1.0000 0.88140  0.35770  0.98480  Biso   1.000  C
  H24      1.0000 0.85300  0.32320  0.94020  Biso   1.000  H
  C80      1.0000 0.91180  0.45400  0.98770  Biso   1.000  C
  C81      1.0000 0.95190  0.50410  0.05650  Biso   1.000  C
  H25      1.0000 0.97430  0.56900  0.05840  Biso   1.000  H
  C82      1.0000 0.95860  0.45780  0.12190  Biso   1.000  C
  C83      1.0000 0.87420  0.21350  0.03790  Biso   1.000  C
  C84      1.0000 0.91040  0.50500  0.91760  Biso   1.000  C
  C85      1.0000 0.98990  0.51450  0.19560  Biso   1.000  C
  Co11     1.0000 0.05592  0.65393  0.29344  Biso   1.000  Co
  Co12     1.0000 0.03494  0.75925  0.45064  Biso   1.000  Co
  O51      1.0000 0.17110  0.78340  0.27680  Biso   1.000  O
  O52      1.0000 0.12370  0.85060  0.36370  Biso   1.000  O
  O53      1.0000 0.27960  0.19830  0.38310  Biso   1.000  O
  O54      1.0000 0.32770  0.27400  0.27030  Biso   1.000  O
  O55      1.0000 0.25500  0.05740  0.04840  Biso   1.000  O
  O56      1.0000 0.36070  0.20820  0.01450  Biso   1.000  O
  O57      1.0000 0.59810  0.13730  0.86050  Biso   1.000  O
  O58      1.0000 0.63100  0.03640  0.91320  Biso   1.000  O
  O59      1.0000 0.53640  0.93800  0.19100  Biso   1.000  O
  O60      1.0000 0.53990  0.05520  0.25570  Biso   1.000  O
  C86      1.0000 0.24650  0.95170  0.27830  Biso   1.000  C
  C87      1.0000 0.24670  0.02900  0.31140  Biso   1.000  C
  H26      1.0000 0.20830  0.02120  0.35380  Biso   1.000  H
  C88      1.0000 0.30610  0.12020  0.27960  Biso   1.000  C
  C89      1.0000 0.36280  0.13150  0.21670  Biso   1.000  C
  H27      1.0000 0.39980  0.19120  0.19480  Biso   1.000  H
  C90      1.0000 0.36460  0.05260  0.18580  Biso   1.000  C
  C91      1.0000 0.30650  0.96440  0.21700  Biso   1.000  C
  H28      1.0000 0.30750  0.91210  0.19640  Biso   1.000  H
  C92      1.0000 0.17580  0.85500  0.30930  Biso   1.000  C
  C93      1.0000 0.30350  0.20400  0.31380  Biso   1.000  C
  C94      1.0000 0.42840  0.06710  0.11780  Biso   1.000  C
  C95      1.0000 0.41810  0.10600  0.04990  Biso   1.000  C
  C96      1.0000 0.47630  0.11860  0.98480  Biso   1.000  C
  H29      1.0000 0.47020  0.14700  0.94020  Biso   1.000  H
  C97      1.0000 0.54220  0.08820  0.98770  Biso   1.000  C
  C98      1.0000 0.55220  0.04810  0.05650  Biso   1.000  C
  H30      1.0000 0.59470  0.02570  0.05840  Biso   1.000  H
  C99      1.0000 0.49920  0.04140  0.12190  Biso   1.000  C
  C100     1.0000 0.33930  0.12580  0.03790  Biso   1.000  C
  C101     1.0000 0.59460  0.08960  0.91760  Biso   1.000  C
  C102     1.0000 0.52460  0.01010  0.19560  Biso   1.000  C
