data_PUMNOB_clean
_audit_creation_date              2014-07-02
_audit_creation_method            'Materials Studio'
_symmetry_space_group_name_H-M    'P1'
_symmetry_Int_Tables_number       1
_symmetry_cell_setting            triclinic
loop_
_symmetry_equiv_pos_as_xyz
  x,y,z
_cell_length_a                    9.2458
_cell_length_b                    14.1110
_cell_length_c                    16.4937
_cell_angle_alpha                 90.0000
_cell_angle_beta                  92.9120
_cell_angle_gamma                 90.0000
loop_
_atom_site_label
_atom_site_type_symbol
_atom_site_fract_x
_atom_site_fract_y
_atom_site_fract_z
_atom_site_U_iso_or_equiv
_atom_site_adp_type
_atom_site_occupancy
Mn1    Mn    0.02063   0.65175   0.25395   0.01267  Uiso   1.00
Mn2    Mn    0.47937   0.15175   0.24605   0.01267  Uiso   1.00
Mn3    Mn    0.97937   0.34825   0.74605   0.01267  Uiso   1.00
Mn4    Mn    0.52063   0.84825   0.75395   0.01267  Uiso   1.00
Hg1    Hg    0.51622   0.79539   0.08131   0.01267  Uiso   1.00
Hg2    Hg    0.98378   0.29539   0.41869   0.01267  Uiso   1.00
Hg3    Hg    0.48378   0.20461   0.91869   0.01267  Uiso   1.00
Hg4    Hg    0.01622   0.70461   0.58131   0.01267  Uiso   1.00
C1     C     0.85630   0.78590   0.11010   0.01267  Uiso   1.00
C2     C     0.94650   0.79090   0.41100   0.01267  Uiso   1.00
C3     C     0.13220   0.49560   0.39550   0.01267  Uiso   1.00
C4     C     0.35240   0.74280   0.24000   0.01267  Uiso   1.00
C5     C     0.64370   0.28590   0.38990   0.01267  Uiso   1.00
C6     C     0.55350   0.29090   0.08900   0.01267  Uiso   1.00
C7     C     0.36780   0.99560   0.10450   0.01267  Uiso   1.00
C8     C     0.14760   0.24280   0.26000   0.01267  Uiso   1.00
C9     C     0.14370   0.21410   0.88990   0.01267  Uiso   1.00
C10    C     0.05350   0.20910   0.58900   0.01267  Uiso   1.00
C11    C     0.86780   0.50440   0.60450   0.01267  Uiso   1.00
C12    C     0.64760   0.25720   0.76000   0.01267  Uiso   1.00
C13    C     0.35630   0.71410   0.61010   0.01267  Uiso   1.00
C14    C     0.44650   0.70910   0.91100   0.01267  Uiso   1.00
C15    C     0.63220   0.00440   0.89550   0.01267  Uiso   1.00
C16    C     0.85240   0.75720   0.74000   0.01267  Uiso   1.00
S1     S     0.76357   0.84473   0.03842   0.01267  Uiso   1.00
S2     S     0.93834   0.85106   0.49659   0.01267  Uiso   1.00
S3     S     0.18161   0.41171   0.46090   0.01267  Uiso   1.00
S4     S     0.52427   0.77322   0.23227   0.01267  Uiso   1.00
S5     S     0.73643   0.34473   0.46158   0.01267  Uiso   1.00
S6     S     0.56166   0.35106   0.00341   0.01267  Uiso   1.00
S7     S     0.31839   0.91171   0.03910   0.01267  Uiso   1.00
S8     S     0.97573   0.27322   0.26773   0.01267  Uiso   1.00
S9     S     0.23643   0.15527   0.96158   0.01267  Uiso   1.00
S10    S     0.06166   0.14894   0.50341   0.01267  Uiso   1.00
S11    S     0.81839   0.58829   0.53910   0.01267  Uiso   1.00
S12    S     0.47573   0.22678   0.76773   0.01267  Uiso   1.00
S13    S     0.26357   0.65527   0.53842   0.01267  Uiso   1.00
S14    S     0.43834   0.64894   0.99659   0.01267  Uiso   1.00
S15    S     0.68161   0.08829   0.96090   0.01267  Uiso   1.00
S16    S     0.02427   0.72678   0.73227   0.01267  Uiso   1.00
N1     N     0.92300   0.74510   0.15900   0.01267  Uiso   1.00
N2     N     0.95320   0.74990   0.35160   0.01267  Uiso   1.00
N3     N     0.10080   0.55410   0.35110   0.01267  Uiso   1.00
N4     N     0.23620   0.72020   0.24780   0.01267  Uiso   1.00
N5     N     0.57700   0.24510   0.34100   0.01267  Uiso   1.00
N6     N     0.54680   0.24990   0.14840   0.01267  Uiso   1.00
N7     N     0.39920   0.05410   0.14890   0.01267  Uiso   1.00
N8     N     0.26380   0.22020   0.25220   0.01267  Uiso   1.00
N9     N     0.07700   0.25490   0.84100   0.01267  Uiso   1.00
N10    N     0.04680   0.25010   0.64840   0.01267  Uiso   1.00
N11    N     0.89920   0.44590   0.64890   0.01267  Uiso   1.00
N12    N     0.76380   0.27980   0.75220   0.01267  Uiso   1.00
N13    N     0.42300   0.75490   0.65900   0.01267  Uiso   1.00
N14    N     0.45320   0.75010   0.85160   0.01267  Uiso   1.00
N15    N     0.60080   0.94590   0.85110   0.01267  Uiso   1.00
N16    N     0.73620   0.77980   0.74780   0.01267  Uiso   1.00
