data_image0
_cell_length_a       12.508
_cell_length_b       12.754
_cell_length_c       15.265
_cell_angle_alpha    90
_cell_angle_beta     104.782
_cell_angle_gamma    90

_symmetry_space_group_name_H-M    "P 1"
_symmetry_int_tables_number       1

loop_
  _symmetry_equiv_pos_as_xyz
  'x, y, z'

loop_
  _atom_site_label
  _atom_site_occupancy
  _atom_site_fract_x
  _atom_site_fract_y
  _atom_site_fract_z
  _atom_site_thermal_displace_type
  _atom_site_B_iso_or_equiv
  _atom_site_type_symbol
  Cd1      1.0000 0.22658  0.22560  0.08202  Biso   1.000  Cd
  C1       1.0000 0.49160  0.24840  0.17009  Biso   1.000  C
  H1       1.0000 0.47920  0.31430  0.19170  Biso   1.000  H
  C2       1.0000 0.46650  0.09550  0.11250  Biso   1.000  C
  H2       1.0000 0.43220  0.03450  0.08580  Biso   1.000  H
  C3       1.0000 0.57720  0.11180  0.13760  Biso   1.000  C
  H3       1.0000 0.63190  0.06520  0.13130  Biso   1.000  H
  C4       1.0000 0.69610  0.26540  0.21321  Biso   1.000  C
  H4       1.0000 0.68480  0.31110  0.26090  Biso   1.000  H
  H5       1.0000 0.75180  0.21430  0.24120  Biso   1.000  H
  C5       1.0000 0.76890  0.25830  0.07336  Biso   1.000  C
  H6       1.0000 0.70660  0.25910  0.02030  Biso   1.000  H
  H7       1.0000 0.77590  0.18730  0.09710  Biso   1.000  H
  C6       1.0000 0.96740  0.23550  0.07653  Biso   1.000  C
  H8       1.0000 0.97990  0.18210  0.11940  Biso   1.000  H
  C7       1.0000 0.88500  0.35750  0.98300  Biso   1.000  C
  H9       1.0000 0.83230  0.40320  0.94950  Biso   1.000  H
  C8       1.0000 0.99200  0.35000  0.98110  Biso   1.000  C
  H10      1.0000 0.02570  0.39100  0.94530  Biso   1.000  H
  C9       1.0000 0.85560  0.47200  0.42490  Biso   1.000  C
  H11      1.0000 0.86720  0.46530  0.48730  Biso   1.000  H
  C10      1.0000 0.87080  0.39550  0.36910  Biso   1.000  C
  H12      1.0000 0.89480  0.32760  0.38550  Biso   1.000  H
  C11      1.0000 0.81590  0.53650  0.29240  Biso   1.000  C
  H13      1.0000 0.79520  0.58300  0.24410  Biso   1.000  H
  C12      1.0000 0.85140  0.38230  0.20021  Biso   1.000  C
  H14      1.0000 0.87590  0.43220  0.16150  Biso   1.000  H
  H15      1.0000 0.90710  0.32780  0.21600  Biso   1.000  H
  C13      1.0000 0.74200  0.33230  0.14597  Biso   1.000  C
  C14      1.0000 0.65240  0.41390  0.10440  Biso   1.000  C
  H16      1.0000 0.64520  0.46150  0.15210  Biso   1.000  H
  H17      1.0000 0.58240  0.37740  0.08360  Biso   1.000  H
  C15      1.0000 0.72420  0.56760  0.03210  Biso   1.000  C
  H18      1.0000 0.76020  0.60090  0.08580  Biso   1.000  H
  C16      1.0000 0.66000  0.53240  0.89190  Biso   1.000  C
  H19      1.0000 0.64390  0.53710  0.82900  Biso   1.000  H
  C17      1.0000 0.62790  0.45370  0.93820  Biso   1.000  C
  H20      1.0000 0.58550  0.39570  0.91410  Biso   1.000  H
  N1       1.0000 0.41240  0.18270  0.13261  Biso   1.000  N
  N2       1.0000 0.59255  0.20980  0.17368  Biso   1.000  N
  N3       1.0000 0.04379  0.27340  0.03925  Biso   1.000  N
  N4       1.0000 0.86946  0.28390  0.04481  Biso   1.000  N
  N5       1.0000 0.82070  0.56130  0.37665  Biso   1.000  N
  N6       1.0000 0.84436  0.43630  0.28370  Biso   1.000  N
  N7       1.0000 0.72040  0.60510  0.95138  Biso   1.000  N
  N8       1.0000 0.67057  0.47650  0.02889  Biso   1.000  N
  Cd2      1.0000 0.77342  0.72560  0.41798  Biso   1.000  Cd
  C18      1.0000 0.50840  0.74840  0.32991  Biso   1.000  C
  H21      1.0000 0.52080  0.81430  0.30830  Biso   1.000  H
  C19      1.0000 0.53350  0.59550  0.38750  Biso   1.000  C
  H22      1.0000 0.56780  0.53450  0.41420  Biso   1.000  H
  C20      1.0000 0.42280  0.61180  0.36240  Biso   1.000  C
  H23      1.0000 0.36810  0.56520  0.36870  Biso   1.000  H
  C21      1.0000 0.30390  0.76540  0.28679  Biso   1.000  C
  H24      1.0000 0.31520  0.81110  0.23910  Biso   1.000  H
  H25      1.0000 0.24820  0.71430  0.25880  Biso   1.000  H
  C22      1.0000 0.23110  0.75830  0.42664  Biso   1.000  C
  H26      1.0000 0.29340  0.75910  0.47970  Biso   1.000  H
  H27      1.0000 0.22410  0.68730  0.40290  Biso   1.000  H
  C23      1.0000 0.03260  0.73550  0.42347  Biso   1.000  C
  H28      1.0000 0.02010  0.68210  0.38060  Biso   1.000  H
  C24      1.0000 0.11500  0.85750  0.51700  Biso   1.000  C
  H29      1.0000 0.16770  0.90320  0.55050  Biso   1.000  H
  C25      1.0000 0.00800  0.85000  0.51890  Biso   1.000  C
  H30      1.0000 0.97430  0.89100  0.55470  Biso   1.000  H
  C26      1.0000 0.14440  0.97200  0.07510  Biso   1.000  C
  H31      1.0000 0.13280  0.96530  0.01270  Biso   1.000  H
  C27      1.0000 0.12920  0.89550  0.13090  Biso   1.000  C
  H32      1.0000 0.10520  0.82760  0.11450  Biso   1.000  H
  C28      1.0000 0.18410  0.03650  0.20760  Biso   1.000  C
  H33      1.0000 0.20480  0.08300  0.25590  Biso   1.000  H
  C29      1.0000 0.14860  0.88230  0.29979  Biso   1.000  C
  H34      1.0000 0.12410  0.93220  0.33850  Biso   1.000  H
  H35      1.0000 0.09290  0.82780  0.28400  Biso   1.000  H
  C30      1.0000 0.25800  0.83230  0.35403  Biso   1.000  C
  C31      1.0000 0.34760  0.91390  0.39560  Biso   1.000  C
  H36      1.0000 0.35480  0.96150  0.34790  Biso   1.000  H
  H37      1.0000 0.41760  0.87740  0.41640  Biso   1.000  H
  C32      1.0000 0.27580  0.06760  0.46790  Biso   1.000  C
  H38      1.0000 0.23980  0.10090  0.41420  Biso   1.000  H
  C33      1.0000 0.34000  0.03240  0.60810  Biso   1.000  C
  H39      1.0000 0.35610  0.03710  0.67100  Biso   1.000  H
  C34      1.0000 0.37210  0.95370  0.56180  Biso   1.000  C
  H40      1.0000 0.41450  0.89570  0.58590  Biso   1.000  H
  N9       1.0000 0.58760  0.68270  0.36739  Biso   1.000  N
  N10      1.0000 0.40745  0.70980  0.32632  Biso   1.000  N
  N11      1.0000 0.95621  0.77340  0.46075  Biso   1.000  N
  N12      1.0000 0.13054  0.78390  0.45519  Biso   1.000  N
  N13      1.0000 0.17930  0.06130  0.12335  Biso   1.000  N
  N14      1.0000 0.15564  0.93630  0.21630  Biso   1.000  N
  N15      1.0000 0.27960  0.10510  0.54862  Biso   1.000  N
  N16      1.0000 0.32943  0.97650  0.47111  Biso   1.000  N
  Cd3      1.0000 0.77342  0.77441  0.91798  Biso   1.000  Cd
  C35      1.0000 0.50840  0.75160  0.82991  Biso   1.000  C
  H41      1.0000 0.52080  0.68570  0.80830  Biso   1.000  H
  C36      1.0000 0.53350  0.90450  0.88750  Biso   1.000  C
  H42      1.0000 0.56780  0.96550  0.91420  Biso   1.000  H
  C37      1.0000 0.42280  0.88820  0.86240  Biso   1.000  C
  H43      1.0000 0.36810  0.93480  0.86870  Biso   1.000  H
  C38      1.0000 0.30390  0.73460  0.78679  Biso   1.000  C
  H44      1.0000 0.31520  0.68890  0.73910  Biso   1.000  H
  H45      1.0000 0.24820  0.78570  0.75880  Biso   1.000  H
  C39      1.0000 0.23110  0.74170  0.92664  Biso   1.000  C
  H46      1.0000 0.29340  0.74090  0.97970  Biso   1.000  H
  H47      1.0000 0.22410  0.81270  0.90290  Biso   1.000  H
  C40      1.0000 0.03260  0.76450  0.92347  Biso   1.000  C
  H48      1.0000 0.02010  0.81790  0.88060  Biso   1.000  H
  C41      1.0000 0.11500  0.64250  0.01700  Biso   1.000  C
  H49      1.0000 0.16770  0.59680  0.05050  Biso   1.000  H
  C42      1.0000 0.00800  0.65000  0.01890  Biso   1.000  C
  H50      1.0000 0.97430  0.60900  0.05470  Biso   1.000  H
  C43      1.0000 0.14440  0.52800  0.57510  Biso   1.000  C
  H51      1.0000 0.13280  0.53470  0.51270  Biso   1.000  H
  C44      1.0000 0.12920  0.60450  0.63090  Biso   1.000  C
  H52      1.0000 0.10520  0.67240  0.61450  Biso   1.000  H
  C45      1.0000 0.18410  0.46350  0.70760  Biso   1.000  C
  H53      1.0000 0.20480  0.41700  0.75590  Biso   1.000  H
  C46      1.0000 0.14860  0.61770  0.79979  Biso   1.000  C
  H54      1.0000 0.12410  0.56780  0.83850  Biso   1.000  H
  H55      1.0000 0.09290  0.67220  0.78400  Biso   1.000  H
  C47      1.0000 0.25800  0.66770  0.85403  Biso   1.000  C
  C48      1.0000 0.34760  0.58610  0.89560  Biso   1.000  C
  H56      1.0000 0.35480  0.53850  0.84790  Biso   1.000  H
  H57      1.0000 0.41760  0.62260  0.91640  Biso   1.000  H
  C49      1.0000 0.27580  0.43240  0.96790  Biso   1.000  C
  H58      1.0000 0.23980  0.39910  0.91420  Biso   1.000  H
  C50      1.0000 0.34000  0.46760  0.10810  Biso   1.000  C
  H59      1.0000 0.35610  0.46290  0.17100  Biso   1.000  H
  C51      1.0000 0.37210  0.54630  0.06180  Biso   1.000  C
  H60      1.0000 0.41450  0.60430  0.08590  Biso   1.000  H
  N17      1.0000 0.58760  0.81730  0.86739  Biso   1.000  N
  N18      1.0000 0.40745  0.79020  0.82632  Biso   1.000  N
  N19      1.0000 0.95621  0.72660  0.96075  Biso   1.000  N
  N20      1.0000 0.13054  0.71610  0.95519  Biso   1.000  N
  N21      1.0000 0.17930  0.43870  0.62335  Biso   1.000  N
  N22      1.0000 0.15564  0.56370  0.71630  Biso   1.000  N
  N23      1.0000 0.27960  0.39490  0.04862  Biso   1.000  N
  N24      1.0000 0.32943  0.52350  0.97111  Biso   1.000  N
  Cd4      1.0000 0.22658  0.27441  0.58202  Biso   1.000  Cd
  C52      1.0000 0.49160  0.25160  0.67009  Biso   1.000  C
  H61      1.0000 0.47920  0.18570  0.69170  Biso   1.000  H
  C53      1.0000 0.46650  0.40450  0.61250  Biso   1.000  C
  H62      1.0000 0.43220  0.46550  0.58580  Biso   1.000  H
  C54      1.0000 0.57720  0.38820  0.63760  Biso   1.000  C
  H63      1.0000 0.63190  0.43480  0.63130  Biso   1.000  H
  C55      1.0000 0.69610  0.23460  0.71321  Biso   1.000  C
  H64      1.0000 0.68480  0.18890  0.76090  Biso   1.000  H
  H65      1.0000 0.75180  0.28570  0.74120  Biso   1.000  H
  C56      1.0000 0.76890  0.24170  0.57336  Biso   1.000  C
  H66      1.0000 0.70660  0.24090  0.52030  Biso   1.000  H
  H67      1.0000 0.77590  0.31270  0.59710  Biso   1.000  H
  C57      1.0000 0.96740  0.26450  0.57653  Biso   1.000  C
  H68      1.0000 0.97990  0.31790  0.61940  Biso   1.000  H
  C58      1.0000 0.88500  0.14250  0.48300  Biso   1.000  C
  H69      1.0000 0.83230  0.09680  0.44950  Biso   1.000  H
  C59      1.0000 0.99200  0.15000  0.48110  Biso   1.000  C
  H70      1.0000 0.02570  0.10900  0.44530  Biso   1.000  H
  C60      1.0000 0.85560  0.02800  0.92490  Biso   1.000  C
  H71      1.0000 0.86720  0.03470  0.98730  Biso   1.000  H
  C61      1.0000 0.87080  0.10450  0.86910  Biso   1.000  C
  H72      1.0000 0.89480  0.17240  0.88550  Biso   1.000  H
  C62      1.0000 0.81590  0.96350  0.79240  Biso   1.000  C
  H73      1.0000 0.79520  0.91700  0.74410  Biso   1.000  H
  C63      1.0000 0.85140  0.11770  0.70021  Biso   1.000  C
  H74      1.0000 0.87590  0.06780  0.66150  Biso   1.000  H
  H75      1.0000 0.90710  0.17220  0.71600  Biso   1.000  H
  C64      1.0000 0.74200  0.16770  0.64597  Biso   1.000  C
  C65      1.0000 0.65240  0.08610  0.60440  Biso   1.000  C
  H76      1.0000 0.64520  0.03850  0.65210  Biso   1.000  H
  H77      1.0000 0.58240  0.12260  0.58360  Biso   1.000  H
  C66      1.0000 0.72420  0.93240  0.53210  Biso   1.000  C
  H78      1.0000 0.76020  0.89910  0.58580  Biso   1.000  H
  C67      1.0000 0.66000  0.96760  0.39190  Biso   1.000  C
  H79      1.0000 0.64390  0.96290  0.32900  Biso   1.000  H
  C68      1.0000 0.62790  0.04630  0.43820  Biso   1.000  C
  H80      1.0000 0.58550  0.10430  0.41410  Biso   1.000  H
  N25      1.0000 0.41240  0.31730  0.63261  Biso   1.000  N
  N26      1.0000 0.59255  0.29020  0.67368  Biso   1.000  N
  N27      1.0000 0.04379  0.22660  0.53925  Biso   1.000  N
  N28      1.0000 0.86946  0.21610  0.54481  Biso   1.000  N
  N29      1.0000 0.82070  0.93870  0.87665  Biso   1.000  N
  N30      1.0000 0.84436  0.06370  0.78370  Biso   1.000  N
  N31      1.0000 0.72040  0.89490  0.45138  Biso   1.000  N
  N32      1.0000 0.67057  0.02350  0.52889  Biso   1.000  N
