data_PUNFIO_clean
_audit_creation_date              2014-07-02
_audit_creation_method            'Materials Studio'
_symmetry_space_group_name_H-M    'P1'
_symmetry_Int_Tables_number       1
_symmetry_cell_setting            triclinic
loop_
_symmetry_equiv_pos_as_xyz
  x,y,z
_cell_length_a                    7.5090
_cell_length_b                    11.8810
_cell_length_c                    20.9420
_cell_angle_alpha                 96.6230
_cell_angle_beta                  92.4740
_cell_angle_gamma                 102.0150
loop_
_atom_site_label
_atom_site_type_symbol
_atom_site_fract_x
_atom_site_fract_y
_atom_site_fract_z
_atom_site_U_iso_or_equiv
_atom_site_adp_type
_atom_site_occupancy
Cd1    Cd    0.65169   0.85364   0.09578   0.01267  Uiso   1.00
Cd2    Cd    0.74880   0.01980   0.47812   0.01267  Uiso   1.00
Cd3    Cd    0.39373   0.17181   0.08465   0.01267  Uiso   1.00
Cd4    Cd    0.34831   0.14636   0.90422   0.01267  Uiso   1.00
Cd5    Cd    0.25120   0.98020   0.52188   0.01267  Uiso   1.00
Cd6    Cd    0.60627   0.82819   0.91535   0.01267  Uiso   1.00
Cd7    Cd    0.00000   0.00000   0.00000   0.01267  Uiso   1.00
H1     H     0.05460   0.79380   0.14210   0.01267  Uiso   1.00
H2     H     0.59930   0.56150   0.12800   0.01267  Uiso   1.00
H3     H     0.84040   0.46920   0.16300   0.01267  Uiso   1.00
H4     H     0.22480   0.54840   0.15860   0.01267  Uiso   1.00
H5     H     0.28530   0.68360   0.16560   0.01267  Uiso   1.00
H6     H     0.98820   0.65940   0.27270   0.01267  Uiso   1.00
H7     H     0.13840   0.77160   0.27140   0.01267  Uiso   1.00
H8     H     0.96850   0.57240   0.39050   0.01267  Uiso   1.00
H9     H     0.03030   0.68470   0.49600   0.01267  Uiso   1.00
H10    H     0.26770   0.88210   0.37530   0.01267  Uiso   1.00
H11    H     0.06850   0.46480   0.26160   0.01267  Uiso   1.00
H12    H     0.21100   0.50580   0.32080   0.01267  Uiso   1.00
H13    H     0.52670   0.43860   0.31240   0.01267  Uiso   1.00
H14    H     0.17460   0.35110   0.16080   0.01267  Uiso   1.00
H15    H     0.63600   0.30340   0.23440   0.01267  Uiso   1.00
H16    H     0.62690   0.89160   0.32560   0.01267  Uiso   1.00
H17    H     0.64440   0.72280   0.47400   0.01267  Uiso   1.00
H18    H     0.47310   0.58640   0.38730   0.01267  Uiso   1.00
H19    H     0.46830   0.74560   0.24160   0.01267  Uiso   1.00
H20    H     0.51230   0.62470   0.24840   0.01267  Uiso   1.00
H21    H     0.93650   0.05960   0.26950   0.01267  Uiso   1.00
H22    H     0.55110   0.07040   0.29770   0.01267  Uiso   1.00
H23    H     0.29490   0.48130   0.02020   0.01267  Uiso   1.00
H24    H     0.66100   0.01200   0.01900   0.01267  Uiso   1.00
H25    H     0.94540   0.20620   0.85790   0.01267  Uiso   1.00
H26    H     0.40070   0.43850   0.87200   0.01267  Uiso   1.00
H27    H     0.15960   0.53080   0.83700   0.01267  Uiso   1.00
H28    H     0.77520   0.45160   0.84140   0.01267  Uiso   1.00
H29    H     0.71470   0.31640   0.83440   0.01267  Uiso   1.00
H30    H     0.01180   0.34060   0.72730   0.01267  Uiso   1.00
H31    H     0.86160   0.22840   0.72860   0.01267  Uiso   1.00
H32    H     0.03150   0.42760   0.60950   0.01267  Uiso   1.00
H33    H     0.96970   0.31530   0.50400   0.01267  Uiso   1.00
H34    H     0.73230   0.11790   0.62470   0.01267  Uiso   1.00
H35    H     0.93150   0.53520   0.73840   0.01267  Uiso   1.00
H36    H     0.78900   0.49420   0.67920   0.01267  Uiso   1.00
H37    H     0.47330   0.56140   0.68760   0.01267  Uiso   1.00
H38    H     0.82540   0.64890   0.83920   0.01267  Uiso   1.00
H39    H     0.36400   0.69660   0.76560   0.01267  Uiso   1.00
H40    H     0.37310   0.10840   0.67440   0.01267  Uiso   1.00
H41    H     0.35560   0.27720   0.52600   0.01267  Uiso   1.00
H42    H     0.52690   0.41360   0.61270   0.01267  Uiso   1.00
H43    H     0.53170   0.25440   0.75840   0.01267  Uiso   1.00
H44    H     0.48770   0.37530   0.75160   0.01267  Uiso   1.00
H45    H     0.06350   0.94040   0.73050   0.01267  Uiso   1.00
H46    H     0.44890   0.92960   0.70230   0.01267  Uiso   1.00
H47    H     0.70510   0.51870   0.97980   0.01267  Uiso   1.00
H48    H     0.33900   0.98800   0.98100   0.01267  Uiso   1.00
C1     C     0.97000   0.72460   0.14286   0.01267  Uiso   1.00
C2     C     0.72190   0.59780   0.13540   0.01267  Uiso   1.00
C3     C     0.85450   0.54560   0.15450   0.01267  Uiso   1.00
C4     C     0.20010   0.61990   0.17998   0.01267  Uiso   1.00
C5     C     0.23880   0.62320   0.25423   0.01267  Uiso   1.00
C6     C     0.11330   0.69670   0.28720   0.01267  Uiso   1.00
C7     C     0.03670   0.64790   0.40000   0.01267  Uiso   1.00
C8     C     0.07040   0.71070   0.45780   0.01267  Uiso   1.00
C9     C     0.20090   0.81870   0.39220   0.01267  Uiso   1.00
C10    C     0.19560   0.49970   0.27420   0.01267  Uiso   1.00
C11    C     0.46920   0.40510   0.27250   0.01267  Uiso   1.00
C12    C     0.27650   0.35610   0.18870   0.01267  Uiso   1.00
C13    C     0.52900   0.33020   0.22930   0.01267  Uiso   1.00
C14    C     0.60990   0.83290   0.35200   0.01267  Uiso   1.00
C15    C     0.61830   0.73990   0.43290   0.01267  Uiso   1.00
C16    C     0.52500   0.66400   0.38530   0.01267  Uiso   1.00
C17    C     0.44420   0.68040   0.26629   0.01267  Uiso   1.00
C18    C     0.43800   0.13140   0.40920   0.01267  Uiso   1.00
C19    C     0.33140   0.09280   0.34478   0.01267  Uiso   1.00
C20    C     0.14220   0.08330   0.33708   0.01267  Uiso   1.00
C21    C     0.06040   0.06050   0.27520   0.01267  Uiso   1.00
C22    C     0.15510   0.03900   0.22112   0.01267  Uiso   1.00
C23    C     0.34160   0.03650   0.22932   0.01267  Uiso   1.00
C24    C     0.42660   0.06720   0.29177   0.01267  Uiso   1.00
C25    C     0.44980   0.99190   0.17712   0.01267  Uiso   1.00
C26    C     0.04730   0.01560   0.15670   0.01267  Uiso   1.00
C27    C     0.02370   0.08570   0.39340   0.01267  Uiso   1.00
C28    C     0.31150   0.69490   0.00580   0.01267  Uiso   1.00
C29    C     0.14530   0.59680   0.00378   0.01267  Uiso   1.00
C30    C     0.96630   0.60920   0.99112   0.01267  Uiso   1.00
C31    C     0.17570   0.48910   0.01210   0.01267  Uiso   1.00
C32    C     0.91740   0.72370   0.98590   0.01267  Uiso   1.00
C33    C     0.03000   0.27540   0.85714   0.01267  Uiso   1.00
C34    C     0.27810   0.40220   0.86460   0.01267  Uiso   1.00
C35    C     0.14550   0.45440   0.84550   0.01267  Uiso   1.00
C36    C     0.79990   0.38010   0.82002   0.01267  Uiso   1.00
C37    C     0.76120   0.37680   0.74577   0.01267  Uiso   1.00
C38    C     0.88670   0.30330   0.71280   0.01267  Uiso   1.00
C39    C     0.96330   0.35210   0.60000   0.01267  Uiso   1.00
C40    C     0.92960   0.28930   0.54220   0.01267  Uiso   1.00
C41    C     0.79910   0.18130   0.60780   0.01267  Uiso   1.00
C42    C     0.80440   0.50030   0.72580   0.01267  Uiso   1.00
C43    C     0.53080   0.59490   0.72750   0.01267  Uiso   1.00
C44    C     0.72350   0.64390   0.81130   0.01267  Uiso   1.00
C45    C     0.47100   0.66980   0.77070   0.01267  Uiso   1.00
C46    C     0.39010   0.16710   0.64800   0.01267  Uiso   1.00
C47    C     0.38170   0.26010   0.56710   0.01267  Uiso   1.00
C48    C     0.47500   0.33600   0.61470   0.01267  Uiso   1.00
C49    C     0.55580   0.31960   0.73371   0.01267  Uiso   1.00
C50    C     0.56200   0.86860   0.59080   0.01267  Uiso   1.00
C51    C     0.66860   0.90720   0.65522   0.01267  Uiso   1.00
C52    C     0.85780   0.91670   0.66292   0.01267  Uiso   1.00
C53    C     0.93960   0.93950   0.72480   0.01267  Uiso   1.00
C54    C     0.84490   0.96100   0.77888   0.01267  Uiso   1.00
C55    C     0.65840   0.96350   0.77068   0.01267  Uiso   1.00
C56    C     0.57340   0.93280   0.70823   0.01267  Uiso   1.00
C57    C     0.55020   0.00810   0.82288   0.01267  Uiso   1.00
C58    C     0.95270   0.98440   0.84330   0.01267  Uiso   1.00
C59    C     0.97630   0.91430   0.60660   0.01267  Uiso   1.00
C60    C     0.68850   0.30510   0.99420   0.01267  Uiso   1.00
C61    C     0.85470   0.40320   0.99622   0.01267  Uiso   1.00
C62    C     0.03370   0.39080   0.00888   0.01267  Uiso   1.00
C63    C     0.82430   0.51090   0.98790   0.01267  Uiso   1.00
C64    C     0.08260   0.27630   0.01410   0.01267  Uiso   1.00
N1     N     0.79170   0.71170   0.12832   0.01267  Uiso   1.00
N2     N     0.01430   0.62740   0.15871   0.01267  Uiso   1.00
N3     N     0.30780   0.42220   0.24647   0.01267  Uiso   1.00
N4     N     0.40480   0.30030   0.17647   0.01267  Uiso   1.00
N5     N     0.67040   0.84690   0.41279   0.01267  Uiso   1.00
N6     N     0.51990   0.72250   0.33242   0.01267  Uiso   1.00
N7     N     0.17120   0.81770   0.45321   0.01267  Uiso   1.00
N8     N     0.12360   0.71740   0.35695   0.01267  Uiso   1.00
N9     N     0.20830   0.28830   0.87168   0.01267  Uiso   1.00
N10    N     0.98570   0.37260   0.84129   0.01267  Uiso   1.00
N11    N     0.69220   0.57780   0.75353   0.01267  Uiso   1.00
N12    N     0.59520   0.69970   0.82353   0.01267  Uiso   1.00
N13    N     0.32960   0.15310   0.58721   0.01267  Uiso   1.00
N14    N     0.48010   0.27750   0.66758   0.01267  Uiso   1.00
N15    N     0.82880   0.18230   0.54679   0.01267  Uiso   1.00
N16    N     0.87640   0.28260   0.64305   0.01267  Uiso   1.00
O1     O     0.08220   0.07250   0.44740   0.01267  Uiso   1.00
O2     O     0.86010   0.09560   0.38153   0.01267  Uiso   1.00
O3     O     0.49570   0.23700   0.42244   0.01267  Uiso   1.00
O4     O     0.46820   0.05310   0.44219   0.01267  Uiso   1.00
O5     O     0.88020   0.97940   0.15708   0.01267  Uiso   1.00
O6     O     0.13150   0.03460   0.10693   0.01267  Uiso   1.00
O7     O     0.46800   0.88950   0.17855   0.01267  Uiso   1.00
O8     O     0.52440   0.05280   0.13706   0.01267  Uiso   1.00
O9     O     0.40620   0.71820   0.05728   0.01267  Uiso   1.00
O10    O     0.34520   0.73880   0.95417   0.01267  Uiso   1.00
O11    O     0.76020   0.71730   0.96157   0.01267  Uiso   1.00
O12    O     0.02940   0.81480   0.00632   0.01267  Uiso   1.00
O13    O     0.69550   0.94740   0.01155   0.01267  Uiso   1.00
O14    O     0.91780   0.92750   0.55260   0.01267  Uiso   1.00
O15    O     0.13990   0.90440   0.61847   0.01267  Uiso   1.00
O16    O     0.50430   0.76300   0.57756   0.01267  Uiso   1.00
O17    O     0.53180   0.94690   0.55781   0.01267  Uiso   1.00
O18    O     0.11980   0.02060   0.84292   0.01267  Uiso   1.00
O19    O     0.86850   0.96540   0.89307   0.01267  Uiso   1.00
O20    O     0.53200   0.11050   0.82145   0.01267  Uiso   1.00
O21    O     0.47560   0.94720   0.86294   0.01267  Uiso   1.00
O22    O     0.59380   0.28180   0.94272   0.01267  Uiso   1.00
O23    O     0.65480   0.26120   0.04583   0.01267  Uiso   1.00
O24    O     0.23980   0.28270   0.03843   0.01267  Uiso   1.00
O25    O     0.97060   0.18520   0.99368   0.01267  Uiso   1.00
O26    O     0.30450   0.05260   0.98845   0.01267  Uiso   1.00
