data_PUPHUE_clean
_audit_creation_date              2014-07-02
_audit_creation_method            'Materials Studio'
_symmetry_space_group_name_H-M    'P1'
_symmetry_Int_Tables_number       1
_symmetry_cell_setting            triclinic
loop_
_symmetry_equiv_pos_as_xyz
  x,y,z
_cell_length_a                    8.8460
_cell_length_b                    22.0006
_cell_length_c                    22.5475
_cell_angle_alpha                 119.2010
_cell_angle_beta                  96.0092
_cell_angle_gamma                 90.0000
loop_
_atom_site_label
_atom_site_type_symbol
_atom_site_fract_x
_atom_site_fract_y
_atom_site_fract_z
_atom_site_U_iso_or_equiv
_atom_site_adp_type
_atom_site_occupancy
Na1    Na    0.64370   0.31983   0.41104   0.01267  Uiso   1.00
Na2    Na    0.85630   0.90879   0.58896   0.01267  Uiso   1.00
Na3    Na    0.35630   0.68017   0.58896   0.01267  Uiso   1.00
Na4    Na    0.14370   0.09121   0.41104   0.01267  Uiso   1.00
H1     H     0.39470   0.23050   0.55840   0.01267  Uiso   1.00
H2     H     0.25270   0.25520   0.52980   0.01267  Uiso   1.00
H3     H     0.47920   0.45400   0.66160   0.01267  Uiso   1.00
H4     H     0.38370   0.52460   0.76300   0.01267  Uiso   1.00
H5     H     0.13850   0.36240   0.74260   0.01267  Uiso   1.00
H6     H     0.22970   0.29110   0.64060   0.01267  Uiso   1.00
H7     H     0.35960   0.57400   0.87080   0.01267  Uiso   1.00
H8     H     0.25110   0.58250   0.92460   0.01267  Uiso   1.00
H9     H     0.36180   0.52150   0.89900   0.01267  Uiso   1.00
H10    H     0.05340   0.49540   0.89820   0.01267  Uiso   1.00
H11    H     0.00130   0.43670   0.82300   0.01267  Uiso   1.00
H12    H     0.15330   0.43140   0.86240   0.01267  Uiso   1.00
H13    H     0.19680   0.63320   0.84520   0.01267  Uiso   1.00
H14    H     0.05270   0.68750   0.79660   0.01267  Uiso   1.00
H15    H     0.75680   0.52150   0.70580   0.01267  Uiso   1.00
H16    H     0.90390   0.46720   0.75300   0.01267  Uiso   1.00
H17    H     0.01610   0.97360   0.22260   0.01267  Uiso   1.00
H18    H     0.13060   0.94020   0.25500   0.01267  Uiso   1.00
H19    H     0.13740   0.81760   0.03720   0.01267  Uiso   1.00
H20    H     0.98090   0.71860   0.97180   0.01267  Uiso   1.00
H21    H     0.77420   0.75990   0.13560   0.01267  Uiso   1.00
H22    H     0.92890   0.85980   0.20040   0.01267  Uiso   1.00
H23    H     0.90690   0.61170   0.93280   0.01267  Uiso   1.00
H24    H     0.90460   0.58840   0.98820   0.01267  Uiso   1.00
H25    H     0.77470   0.56080   0.92660   0.01267  Uiso   1.00
H26    H     0.89310   0.72940   0.75100   0.01267  Uiso   1.00
H27    H     0.94550   0.67860   0.67940   0.01267  Uiso   1.00
H28    H     0.10530   0.67210   0.44160   0.01267  Uiso   1.00
H29    H     0.24730   0.72540   0.47020   0.01267  Uiso   1.00
H30    H     0.02080   0.79240   0.33840   0.01267  Uiso   1.00
H31    H     0.11630   0.76160   0.23700   0.01267  Uiso   1.00
H32    H     0.36150   0.61980   0.25740   0.01267  Uiso   1.00
H33    H     0.27030   0.65050   0.35940   0.01267  Uiso   1.00
H34    H     0.14040   0.70320   0.12920   0.01267  Uiso   1.00
H35    H     0.24890   0.65790   0.07540   0.01267  Uiso   1.00
H36    H     0.13820   0.62250   0.10100   0.01267  Uiso   1.00
H37    H     0.44660   0.59720   0.10180   0.01267  Uiso   1.00
H38    H     0.49870   0.61370   0.17700   0.01267  Uiso   1.00
H39    H     0.34670   0.56900   0.13760   0.01267  Uiso   1.00
H40    H     0.30320   0.78800   0.15480   0.01267  Uiso   1.00
H41    H     0.44730   0.89090   0.20340   0.01267  Uiso   1.00
H42    H     0.74320   0.81570   0.29420   0.01267  Uiso   1.00
H43    H     0.59610   0.71420   0.24700   0.01267  Uiso   1.00
H44    H     0.48390   0.75100   0.77740   0.01267  Uiso   1.00
H45    H     0.36940   0.68520   0.74500   0.01267  Uiso   1.00
H46    H     0.36260   0.78040   0.96280   0.01267  Uiso   1.00
H47    H     0.51910   0.74680   0.02820   0.01267  Uiso   1.00
H48    H     0.72580   0.62430   0.86440   0.01267  Uiso   1.00
H49    H     0.57110   0.65940   0.79960   0.01267  Uiso   1.00
H50    H     0.59310   0.67890   0.06720   0.01267  Uiso   1.00
H51    H     0.59540   0.60020   0.01180   0.01267  Uiso   1.00
H52    H     0.72530   0.63420   0.07340   0.01267  Uiso   1.00
H53    H     0.60690   0.97840   0.24900   0.01267  Uiso   1.00
H54    H     0.55450   0.99920   0.32060   0.01267  Uiso   1.00
H55    H     0.60530   0.76950   0.44160   0.01267  Uiso   1.00
H56    H     0.74730   0.74480   0.47020   0.01267  Uiso   1.00
H57    H     0.52080   0.54600   0.33840   0.01267  Uiso   1.00
H58    H     0.61630   0.47540   0.23700   0.01267  Uiso   1.00
H59    H     0.86150   0.63760   0.25740   0.01267  Uiso   1.00
H60    H     0.77030   0.70890   0.35940   0.01267  Uiso   1.00
H61    H     0.64040   0.42600   0.12920   0.01267  Uiso   1.00
H62    H     0.74890   0.41750   0.07540   0.01267  Uiso   1.00
H63    H     0.63820   0.47850   0.10100   0.01267  Uiso   1.00
H64    H     0.94660   0.50460   0.10180   0.01267  Uiso   1.00
H65    H     0.99870   0.56330   0.17700   0.01267  Uiso   1.00
H66    H     0.84670   0.56860   0.13760   0.01267  Uiso   1.00
H67    H     0.80320   0.36680   0.15480   0.01267  Uiso   1.00
H68    H     0.94730   0.31250   0.20340   0.01267  Uiso   1.00
H69    H     0.24320   0.47850   0.29420   0.01267  Uiso   1.00
H70    H     0.09610   0.53280   0.24700   0.01267  Uiso   1.00
H71    H     0.98390   0.02640   0.77740   0.01267  Uiso   1.00
H72    H     0.86940   0.05980   0.74500   0.01267  Uiso   1.00
H73    H     0.86260   0.18240   0.96280   0.01267  Uiso   1.00
H74    H     0.01910   0.28140   0.02820   0.01267  Uiso   1.00
H75    H     0.22580   0.24010   0.86440   0.01267  Uiso   1.00
H76    H     0.07110   0.14020   0.79960   0.01267  Uiso   1.00
H77    H     0.09310   0.38830   0.06720   0.01267  Uiso   1.00
H78    H     0.09540   0.41160   0.01180   0.01267  Uiso   1.00
H79    H     0.22530   0.43920   0.07340   0.01267  Uiso   1.00
H80    H     0.10690   0.27060   0.24900   0.01267  Uiso   1.00
H81    H     0.05450   0.32140   0.32060   0.01267  Uiso   1.00
H82    H     0.89470   0.32790   0.55840   0.01267  Uiso   1.00
H83    H     0.75270   0.27460   0.52980   0.01267  Uiso   1.00
H84    H     0.97920   0.20760   0.66160   0.01267  Uiso   1.00
H85    H     0.88370   0.23840   0.76300   0.01267  Uiso   1.00
H86    H     0.63850   0.38020   0.74260   0.01267  Uiso   1.00
H87    H     0.72970   0.34950   0.64060   0.01267  Uiso   1.00
H88    H     0.85960   0.29680   0.87080   0.01267  Uiso   1.00
H89    H     0.75110   0.34210   0.92460   0.01267  Uiso   1.00
H90    H     0.86180   0.37750   0.89900   0.01267  Uiso   1.00
H91    H     0.55340   0.40280   0.89820   0.01267  Uiso   1.00
H92    H     0.50130   0.38630   0.82300   0.01267  Uiso   1.00
H93    H     0.65330   0.43100   0.86240   0.01267  Uiso   1.00
H94    H     0.69680   0.21200   0.84520   0.01267  Uiso   1.00
H95    H     0.55270   0.10910   0.79660   0.01267  Uiso   1.00
H96    H     0.25680   0.18430   0.70580   0.01267  Uiso   1.00
H97    H     0.40390   0.28580   0.75300   0.01267  Uiso   1.00
H98    H     0.51610   0.24900   0.22260   0.01267  Uiso   1.00
H99    H     0.63060   0.31480   0.25500   0.01267  Uiso   1.00
H100   H     0.63740   0.21960   0.03720   0.01267  Uiso   1.00
H101   H     0.48090   0.25320   0.97180   0.01267  Uiso   1.00
H102   H     0.27420   0.37570   0.13560   0.01267  Uiso   1.00
H103   H     0.42890   0.34060   0.20040   0.01267  Uiso   1.00
H104   H     0.40690   0.32110   0.93280   0.01267  Uiso   1.00
H105   H     0.40460   0.39980   0.98820   0.01267  Uiso   1.00
H106   H     0.27470   0.36580   0.92660   0.01267  Uiso   1.00
H107   H     0.39310   0.02160   0.75100   0.01267  Uiso   1.00
H108   H     0.44550   0.00080   0.67940   0.01267  Uiso   1.00
C1     C     0.42070   0.22559   0.46758   0.01267  Uiso   1.00
C2     C     0.36310   0.25717   0.53594   0.01267  Uiso   1.00
C3     C     0.36150   0.36478   0.63876   0.01267  Uiso   1.00
C4     C     0.40900   0.43531   0.67722   0.01267  Uiso   1.00
C5     C     0.35200   0.47755   0.73850   0.01267  Uiso   1.00
C6     C     0.24960   0.45195   0.76430   0.01267  Uiso   1.00
C7     C     0.20630   0.38130   0.72620   0.01267  Uiso   1.00
C8     C     0.26090   0.33825   0.66470   0.01267  Uiso   1.00
C9     C     0.17590   0.50260   0.82820   0.01267  Uiso   1.00
C10    C     0.29850   0.54950   0.88600   0.01267  Uiso   1.00
C11    C     0.08760   0.46277   0.85554   0.01267  Uiso   1.00
C12    C     0.06970   0.54394   0.80468   0.01267  Uiso   1.00
C13    C     0.10850   0.60985   0.81630   0.01267  Uiso   1.00
C14    C     0.02300   0.64285   0.78710   0.01267  Uiso   1.00
C15    C     0.89240   0.60845   0.74350   0.01267  Uiso   1.00
C16    C     0.84760   0.54369   0.73298   0.01267  Uiso   1.00
C17    C     0.93500   0.51160   0.76200   0.01267  Uiso   1.00
C18    C     0.22960   0.02031   0.24902   0.01267  Uiso   1.00
C19    C     0.11930   0.95904   0.22388   0.01267  Uiso   1.00
C20    C     0.04800   0.84857   0.12474   0.01267  Uiso   1.00
C21    C     0.06320   0.80617   0.05694   0.01267  Uiso   1.00
C22    C     0.96930   0.74653   0.01786   0.01267  Uiso   1.00
C23    C     0.85670   0.72719   0.04598   0.01267  Uiso   1.00
C24    C     0.84660   0.77127   0.11494   0.01267  Uiso   1.00
C25    C     0.93960   0.83140   0.15440   0.01267  Uiso   1.00
C26    C     0.84280   0.59999   0.95798   0.01267  Uiso   1.00
C27    C     0.73890   0.71781   0.67122   0.01267  Uiso   1.00
C28    C     0.85860   0.69210   0.70520   0.01267  Uiso   1.00
C29    C     0.07930   0.75801   0.53242   0.01267  Uiso   1.00
C30    C     0.13690   0.72123   0.46406   0.01267  Uiso   1.00
C31    C     0.13850   0.72602   0.36124   0.01267  Uiso   1.00
C32    C     0.09100   0.75809   0.32278   0.01267  Uiso   1.00
C33    C     0.14800   0.73905   0.26150   0.01267  Uiso   1.00
C34    C     0.25040   0.68765   0.23570   0.01267  Uiso   1.00
C35    C     0.29370   0.65510   0.27380   0.01267  Uiso   1.00
C36    C     0.23910   0.67355   0.33530   0.01267  Uiso   1.00
C37    C     0.32410   0.67440   0.17180   0.01267  Uiso   1.00
C38    C     0.20150   0.66350   0.11400   0.01267  Uiso   1.00
C39    C     0.41240   0.60723   0.14446   0.01267  Uiso   1.00
C40    C     0.43030   0.73926   0.19532   0.01267  Uiso   1.00
C41    C     0.39150   0.79355   0.18370   0.01267  Uiso   1.00
C42    C     0.47700   0.85575   0.21290   0.01267  Uiso   1.00
C43    C     0.60760   0.86495   0.25650   0.01267  Uiso   1.00
C44    C     0.65240   0.81071   0.26702   0.01267  Uiso   1.00
C45    C     0.56500   0.74960   0.23800   0.01267  Uiso   1.00
C46    C     0.27040   0.77129   0.75098   0.01267  Uiso   1.00
C47    C     0.38070   0.73516   0.77612   0.01267  Uiso   1.00
C48    C     0.45200   0.72383   0.87526   0.01267  Uiso   1.00
C49    C     0.43680   0.74923   0.94306   0.01267  Uiso   1.00
C50    C     0.53070   0.72867   0.98214   0.01267  Uiso   1.00
C51    C     0.64330   0.68121   0.95402   0.01267  Uiso   1.00
C52    C     0.65340   0.65633   0.88506   0.01267  Uiso   1.00
C53    C     0.56040   0.67700   0.84560   0.01267  Uiso   1.00
C54    C     0.65720   0.64201   0.04202   0.01267  Uiso   1.00
C55    C     0.76110   0.04659   0.32878   0.01267  Uiso   1.00
C56    C     0.64140   0.98690   0.29480   0.01267  Uiso   1.00
C57    C     0.57930   0.77441   0.53242   0.01267  Uiso   1.00
C58    C     0.63690   0.74283   0.46406   0.01267  Uiso   1.00
C59    C     0.63850   0.63522   0.36124   0.01267  Uiso   1.00
C60    C     0.59100   0.56469   0.32278   0.01267  Uiso   1.00
C61    C     0.64800   0.52245   0.26150   0.01267  Uiso   1.00
C62    C     0.75040   0.54805   0.23570   0.01267  Uiso   1.00
C63    C     0.79370   0.61870   0.27380   0.01267  Uiso   1.00
C64    C     0.73910   0.66175   0.33530   0.01267  Uiso   1.00
C65    C     0.82410   0.49740   0.17180   0.01267  Uiso   1.00
C66    C     0.70150   0.45050   0.11400   0.01267  Uiso   1.00
C67    C     0.91240   0.53723   0.14446   0.01267  Uiso   1.00
C68    C     0.93030   0.45606   0.19532   0.01267  Uiso   1.00
C69    C     0.89150   0.39015   0.18370   0.01267  Uiso   1.00
C70    C     0.97700   0.35715   0.21290   0.01267  Uiso   1.00
C71    C     0.10760   0.39155   0.25650   0.01267  Uiso   1.00
C72    C     0.15240   0.45631   0.26702   0.01267  Uiso   1.00
C73    C     0.06500   0.48840   0.23800   0.01267  Uiso   1.00
C74    C     0.77040   0.97969   0.75098   0.01267  Uiso   1.00
C75    C     0.88070   0.04096   0.77612   0.01267  Uiso   1.00
C76    C     0.95200   0.15143   0.87526   0.01267  Uiso   1.00
C77    C     0.93680   0.19383   0.94306   0.01267  Uiso   1.00
C78    C     0.03070   0.25347   0.98214   0.01267  Uiso   1.00
C79    C     0.14330   0.27281   0.95402   0.01267  Uiso   1.00
C80    C     0.15340   0.22873   0.88506   0.01267  Uiso   1.00
C81    C     0.06040   0.16860   0.84560   0.01267  Uiso   1.00
C82    C     0.15720   0.40001   0.04202   0.01267  Uiso   1.00
C83    C     0.26110   0.28219   0.32878   0.01267  Uiso   1.00
C84    C     0.14140   0.30790   0.29480   0.01267  Uiso   1.00
C85    C     0.92070   0.24199   0.46758   0.01267  Uiso   1.00
C86    C     0.86310   0.27877   0.53594   0.01267  Uiso   1.00
C87    C     0.86150   0.27398   0.63876   0.01267  Uiso   1.00
C88    C     0.90900   0.24191   0.67722   0.01267  Uiso   1.00
C89    C     0.85200   0.26095   0.73850   0.01267  Uiso   1.00
C90    C     0.74960   0.31235   0.76430   0.01267  Uiso   1.00
C91    C     0.70630   0.34490   0.72620   0.01267  Uiso   1.00
C92    C     0.76090   0.32645   0.66470   0.01267  Uiso   1.00
C93    C     0.67590   0.32560   0.82820   0.01267  Uiso   1.00
C94    C     0.79850   0.33650   0.88600   0.01267  Uiso   1.00
C95    C     0.58760   0.39277   0.85554   0.01267  Uiso   1.00
C96    C     0.56970   0.26074   0.80468   0.01267  Uiso   1.00
C97    C     0.60850   0.20645   0.81630   0.01267  Uiso   1.00
C98    C     0.52300   0.14425   0.78710   0.01267  Uiso   1.00
C99    C     0.39240   0.13505   0.74350   0.01267  Uiso   1.00
C100   C     0.34760   0.18929   0.73298   0.01267  Uiso   1.00
C101   C     0.43500   0.25040   0.76200   0.01267  Uiso   1.00
C102   C     0.72960   0.22871   0.24902   0.01267  Uiso   1.00
C103   C     0.61930   0.26484   0.22388   0.01267  Uiso   1.00
C104   C     0.54800   0.27617   0.12474   0.01267  Uiso   1.00
C105   C     0.56320   0.25077   0.05694   0.01267  Uiso   1.00
C106   C     0.46930   0.27133   0.01786   0.01267  Uiso   1.00
C107   C     0.35670   0.31879   0.04598   0.01267  Uiso   1.00
C108   C     0.34660   0.34367   0.11494   0.01267  Uiso   1.00
C109   C     0.43960   0.32300   0.15440   0.01267  Uiso   1.00
C110   C     0.34280   0.35799   0.95798   0.01267  Uiso   1.00
C111   C     0.23890   0.95341   0.67122   0.01267  Uiso   1.00
C112   C     0.35860   0.01310   0.70520   0.01267  Uiso   1.00
C113   C     0.75000   0.66270   0.00000   0.01267  Uiso   1.00
C114   C     0.25000   0.33730   0.00000   0.01267  Uiso   1.00
O1     O     0.50830   0.25946   0.45368   0.01267  Uiso   1.00
O2     O     0.36850   0.16364   0.42622   0.01267  Uiso   1.00
O3     O     0.19760   0.07674   0.29972   0.01267  Uiso   1.00
O4     O     0.34640   0.01478   0.22116   0.01267  Uiso   1.00
O5     O     0.41950   0.32765   0.57794   0.01267  Uiso   1.00
O6     O     0.79940   0.63438   0.70858   0.01267  Uiso   1.00
O7     O     0.14590   0.90711   0.15762   0.01267  Uiso   1.00
O8     O     0.60800   0.69200   0.65444   0.01267  Uiso   1.00
O9     O     0.78750   0.76834   0.66454   0.01267  Uiso   1.00
O10    O     0.99170   0.80578   0.54632   0.01267  Uiso   1.00
O11    O     0.13150   0.73742   0.57378   0.01267  Uiso   1.00
O12    O     0.30240   0.77702   0.70028   0.01267  Uiso   1.00
O13    O     0.15360   0.79362   0.77884   0.01267  Uiso   1.00
O14    O     0.08050   0.74971   0.42206   0.01267  Uiso   1.00
O15    O     0.70060   0.92580   0.29142   0.01267  Uiso   1.00
O16    O     0.35410   0.74949   0.84238   0.01267  Uiso   1.00
O17    O     0.89200   0.03756   0.34556   0.01267  Uiso   1.00
O18    O     0.71250   0.10380   0.33546   0.01267  Uiso   1.00
O19    O     0.49170   0.74054   0.54632   0.01267  Uiso   1.00
O20    O     0.63150   0.83636   0.57378   0.01267  Uiso   1.00
O21    O     0.80240   0.92326   0.70028   0.01267  Uiso   1.00
O22    O     0.65360   0.98522   0.77884   0.01267  Uiso   1.00
O23    O     0.58050   0.67235   0.42206   0.01267  Uiso   1.00
O24    O     0.20060   0.36562   0.29142   0.01267  Uiso   1.00
O25    O     0.85410   0.09289   0.84238   0.01267  Uiso   1.00
O26    O     0.39200   0.30800   0.34556   0.01267  Uiso   1.00
O27    O     0.21250   0.23166   0.33546   0.01267  Uiso   1.00
O28    O     0.00830   0.19422   0.45368   0.01267  Uiso   1.00
O29    O     0.86850   0.26258   0.42622   0.01267  Uiso   1.00
O30    O     0.69760   0.22298   0.29972   0.01267  Uiso   1.00
O31    O     0.84640   0.20638   0.22116   0.01267  Uiso   1.00
O32    O     0.91950   0.25029   0.57794   0.01267  Uiso   1.00
O33    O     0.29940   0.07420   0.70858   0.01267  Uiso   1.00
O34    O     0.64590   0.25051   0.15762   0.01267  Uiso   1.00
O35    O     0.10800   0.96244   0.65444   0.01267  Uiso   1.00
O36    O     0.28750   0.89620   0.66454   0.01267  Uiso   1.00
