data_image0
_cell_length_a       7.8401
_cell_length_b       10.3176
_cell_length_c       15.8809
_cell_angle_alpha    90
_cell_angle_beta     90
_cell_angle_gamma    90

_symmetry_space_group_name_H-M    "P 1"
_symmetry_int_tables_number       1

loop_
  _symmetry_equiv_pos_as_xyz
  'x, y, z'

loop_
  _atom_site_label
  _atom_site_occupancy
  _atom_site_fract_x
  _atom_site_fract_y
  _atom_site_fract_z
  _atom_site_thermal_displace_type
  _atom_site_B_iso_or_equiv
  _atom_site_type_symbol
  Mn1      1.0000 0.35574  0.02704  0.46966  Biso   1.000  Mn
  O1       1.0000 0.84990  0.85930  0.92261  Biso   1.000  O
  O2       1.0000 0.96610  0.66380  0.91519  Biso   1.000  O
  O3       1.0000 0.93190  0.42267  0.01617  Biso   1.000  O
  O4       1.0000 0.66570  0.36470  0.04215  Biso   1.000  O
  N1       1.0000 0.38420  0.92410  0.34353  Biso   1.000  N
  N2       1.0000 0.68340  0.79910  0.06908  Biso   1.000  N
  N3       1.0000 0.63020  0.60760  0.12522  Biso   1.000  N
  H1       1.0000 0.58790  0.55000  0.15830  Biso   1.000  H
  C1       1.0000 0.45040  0.99100  0.27940  Biso   1.000  C
  H2       1.0000 0.44910  0.08100  0.28240  Biso   1.000  H
  C2       1.0000 0.52040  0.93390  0.20903  Biso   1.000  C
  H3       1.0000 0.56720  0.98460  0.16640  Biso   1.000  H
  C3       1.0000 0.52030  0.79980  0.20250  Biso   1.000  C
  C4       1.0000 0.44610  0.73010  0.26744  Biso   1.000  C
  H4       1.0000 0.44000  0.64020  0.26470  Biso   1.000  H
  C5       1.0000 0.38150  0.79500  0.33610  Biso   1.000  C
  H5       1.0000 0.33350  0.74670  0.37950  Biso   1.000  H
  C6       1.0000 0.60690  0.73740  0.13149  Biso   1.000  C
  C7       1.0000 0.76590  0.70460  0.02278  Biso   1.000  C
  C8       1.0000 0.73220  0.58430  0.05765  Biso   1.000  C
  C9       1.0000 0.78160  0.44690  0.03549  Biso   1.000  C
  C10      1.0000 0.86760  0.74430  0.94821  Biso   1.000  C
  Mn2      1.0000 0.64426  0.97296  0.96966  Biso   1.000  Mn
  O5       1.0000 0.15010  0.14070  0.42261  Biso   1.000  O
  O6       1.0000 0.03390  0.33620  0.41519  Biso   1.000  O
  O7       1.0000 0.06810  0.57733  0.51617  Biso   1.000  O
  O8       1.0000 0.33430  0.63530  0.54215  Biso   1.000  O
  N4       1.0000 0.61580  0.07590  0.84353  Biso   1.000  N
  N5       1.0000 0.31660  0.20090  0.56908  Biso   1.000  N
  N6       1.0000 0.36980  0.39240  0.62522  Biso   1.000  N
  H6       1.0000 0.41210  0.45000  0.65830  Biso   1.000  H
  C11      1.0000 0.54960  0.00900  0.77940  Biso   1.000  C
  H7       1.0000 0.55090  0.91900  0.78240  Biso   1.000  H
  C12      1.0000 0.47960  0.06610  0.70903  Biso   1.000  C
  H8       1.0000 0.43280  0.01540  0.66640  Biso   1.000  H
  C13      1.0000 0.47970  0.20020  0.70250  Biso   1.000  C
  C14      1.0000 0.55390  0.26990  0.76744  Biso   1.000  C
  H9       1.0000 0.56000  0.35980  0.76470  Biso   1.000  H
  C15      1.0000 0.61850  0.20500  0.83610  Biso   1.000  C
  H10      1.0000 0.66650  0.25330  0.87950  Biso   1.000  H
  C16      1.0000 0.39310  0.26260  0.63149  Biso   1.000  C
  C17      1.0000 0.23410  0.29540  0.52278  Biso   1.000  C
  C18      1.0000 0.26780  0.41570  0.55765  Biso   1.000  C
  C19      1.0000 0.21840  0.55310  0.53549  Biso   1.000  C
  C20      1.0000 0.13240  0.25570  0.44821  Biso   1.000  C
  Mn3      1.0000 0.85574  0.47296  0.46966  Biso   1.000  Mn
  O9       1.0000 0.34990  0.64070  0.92261  Biso   1.000  O
  O10      1.0000 0.46610  0.83620  0.91519  Biso   1.000  O
  O11      1.0000 0.43190  0.07733  0.01617  Biso   1.000  O
  O12      1.0000 0.16570  0.13530  0.04215  Biso   1.000  O
  N7       1.0000 0.88420  0.57590  0.34353  Biso   1.000  N
  N8       1.0000 0.18340  0.70090  0.06908  Biso   1.000  N
  N9       1.0000 0.13020  0.89240  0.12522  Biso   1.000  N
  H11      1.0000 0.08790  0.95000  0.15830  Biso   1.000  H
  C21      1.0000 0.95040  0.50900  0.27940  Biso   1.000  C
  H12      1.0000 0.94910  0.41900  0.28240  Biso   1.000  H
  C22      1.0000 0.02040  0.56610  0.20903  Biso   1.000  C
  H13      1.0000 0.06720  0.51540  0.16640  Biso   1.000  H
  C23      1.0000 0.02030  0.70020  0.20250  Biso   1.000  C
  C24      1.0000 0.94610  0.76990  0.26744  Biso   1.000  C
  H14      1.0000 0.94000  0.85980  0.26470  Biso   1.000  H
  C25      1.0000 0.88150  0.70500  0.33610  Biso   1.000  C
  H15      1.0000 0.83350  0.75330  0.37950  Biso   1.000  H
  C26      1.0000 0.10690  0.76260  0.13149  Biso   1.000  C
  C27      1.0000 0.26590  0.79540  0.02278  Biso   1.000  C
  C28      1.0000 0.23220  0.91570  0.05765  Biso   1.000  C
  C29      1.0000 0.28160  0.05310  0.03549  Biso   1.000  C
  C30      1.0000 0.36760  0.75570  0.94821  Biso   1.000  C
  Mn4      1.0000 0.14426  0.52704  0.96966  Biso   1.000  Mn
  O13      1.0000 0.65010  0.35930  0.42261  Biso   1.000  O
  O14      1.0000 0.53390  0.16380  0.41519  Biso   1.000  O
  O15      1.0000 0.56810  0.92267  0.51617  Biso   1.000  O
  O16      1.0000 0.83430  0.86470  0.54215  Biso   1.000  O
  N10      1.0000 0.11580  0.42410  0.84353  Biso   1.000  N
  N11      1.0000 0.81660  0.29910  0.56908  Biso   1.000  N
  N12      1.0000 0.86980  0.10760  0.62522  Biso   1.000  N
  H16      1.0000 0.91210  0.05000  0.65830  Biso   1.000  H
  C31      1.0000 0.04960  0.49100  0.77940  Biso   1.000  C
  H17      1.0000 0.05090  0.58100  0.78240  Biso   1.000  H
  C32      1.0000 0.97960  0.43390  0.70903  Biso   1.000  C
  H18      1.0000 0.93280  0.48460  0.66640  Biso   1.000  H
  C33      1.0000 0.97970  0.29980  0.70250  Biso   1.000  C
  C34      1.0000 0.05390  0.23010  0.76744  Biso   1.000  C
  H19      1.0000 0.06000  0.14020  0.76470  Biso   1.000  H
  C35      1.0000 0.11850  0.29500  0.83610  Biso   1.000  C
  H20      1.0000 0.16650  0.24670  0.87950  Biso   1.000  H
  C36      1.0000 0.89310  0.23740  0.63149  Biso   1.000  C
  C37      1.0000 0.73410  0.20460  0.52278  Biso   1.000  C
  C38      1.0000 0.76780  0.08430  0.55765  Biso   1.000  C
  C39      1.0000 0.71840  0.94690  0.53549  Biso   1.000  C
  C40      1.0000 0.63240  0.24430  0.44821  Biso   1.000  C
