data_image0
_cell_length_a       22.8411
_cell_length_b       12.5825
_cell_length_c       22.9745
_cell_angle_alpha    90
_cell_angle_beta     90
_cell_angle_gamma    90

_symmetry_space_group_name_H-M    "P 1"
_symmetry_int_tables_number       1

loop_
  _symmetry_equiv_pos_as_xyz
  'x, y, z'

loop_
  _atom_site_label
  _atom_site_occupancy
  _atom_site_fract_x
  _atom_site_fract_y
  _atom_site_fract_z
  _atom_site_thermal_displace_type
  _atom_site_B_iso_or_equiv
  _atom_site_type_symbol
  Ag1      1.0000 0.75343  0.87435  0.53106  Biso   1.000  Ag
  S1       1.0000 0.74824  0.25431  0.67837  Biso   1.000  S
  S2       1.0000 0.83192  0.50861  0.77557  Biso   1.000  S
  S3       1.0000 0.73886  0.75280  0.87308  Biso   1.000  S
  S4       1.0000 0.59818  0.49870  0.52039  Biso   1.000  S
  S5       1.0000 0.50303  0.26560  0.41699  Biso   1.000  S
  S6       1.0000 0.40225  0.00437  0.48830  Biso   1.000  S
  N1       1.0000 0.76910  0.00170  0.59960  Biso   1.000  N
  N2       1.0000 0.75730  0.00630  0.95560  Biso   1.000  N
  N3       1.0000 0.67860  0.75690  0.51650  Biso   1.000  N
  N4       1.0000 0.32210  0.75420  0.45780  Biso   1.000  N
  C1       1.0000 0.78410  0.07230  0.62560  Biso   1.000  C
  C2       1.0000 0.80060  0.16290  0.65870  Biso   1.000  C
  C3       1.0000 0.79970  0.32730  0.71530  Biso   1.000  C
  C4       1.0000 0.85410  0.28220  0.71120  Biso   1.000  C
  H1       1.0000 0.88790  0.31140  0.72810  Biso   1.000  H
  C5       1.0000 0.85380  0.18840  0.67920  Biso   1.000  C
  H2       1.0000 0.88750  0.14710  0.67260  Biso   1.000  H
  C6       1.0000 0.78080  0.42180  0.74660  Biso   1.000  C
  C7       1.0000 0.72570  0.45440  0.75960  Biso   1.000  C
  H3       1.0000 0.69200  0.41710  0.74790  Biso   1.000  H
  C8       1.0000 0.72360  0.54840  0.79190  Biso   1.000  C
  H4       1.0000 0.68840  0.58100  0.80350  Biso   1.000  H
  C9       1.0000 0.77790  0.58830  0.80500  Biso   1.000  C
  C10      1.0000 0.79250  0.68250  0.83640  Biso   1.000  C
  C11      1.0000 0.78930  0.84570  0.89590  Biso   1.000  C
  C12      1.0000 0.84370  0.82360  0.87700  Biso   1.000  C
  H5       1.0000 0.87640  0.86620  0.88540  Biso   1.000  H
  C13      1.0000 0.84670  0.73010  0.84340  Biso   1.000  C
  H6       1.0000 0.88150  0.70310  0.82750  Biso   1.000  H
  C14      1.0000 0.77110  0.93440  0.92880  Biso   1.000  C
  C15      1.0000 0.65230  0.68730  0.49850  Biso   1.000  C
  C16      1.0000 0.61940  0.59990  0.47570  Biso   1.000  C
  C17      1.0000 0.60090  0.58520  0.41970  Biso   1.000  C
  H7       1.0000 0.60860  0.63310  0.38920  Biso   1.000  H
  C18      1.0000 0.57000  0.49280  0.41300  Biso   1.000  C
  H8       1.0000 0.55480  0.47030  0.37710  Biso   1.000  H
  C19      1.0000 0.56340  0.43620  0.46330  Biso   1.000  C
  C20      1.0000 0.53150  0.33780  0.47410  Biso   1.000  C
  C21      1.0000 0.47440  0.17090  0.46420  Biso   1.000  C
  C22      1.0000 0.48710  0.19690  0.52020  Biso   1.000  C
  H9       1.0000 0.47510  0.15580  0.55220  Biso   1.000  H
  C23      1.0000 0.52000  0.29160  0.52580  Biso   1.000  C
  H10      1.0000 0.53250  0.31940  0.56170  Biso   1.000  H
  C24      1.0000 0.44350  0.08020  0.44200  Biso   1.000  C
  C25      1.0000 0.44260  0.04040  0.38760  Biso   1.000  C
  H11      1.0000 0.46270  0.07170  0.35640  Biso   1.000  H
  C26      1.0000 0.40840  0.94700  0.38190  Biso   1.000  C
  H12      1.0000 0.40320  0.90970  0.34680  Biso   1.000  H
  C27      1.0000 0.38430  0.91850  0.43330  Biso   1.000  C
  C28      1.0000 0.34920  0.82580  0.44620  Biso   1.000  C
  Ag2      1.0000 0.74657  0.12565  0.03106  Biso   1.000  Ag
  S7       1.0000 0.75176  0.74569  0.17837  Biso   1.000  S
  S8       1.0000 0.66808  0.49139  0.27557  Biso   1.000  S
  S9       1.0000 0.76114  0.24720  0.37308  Biso   1.000  S
  S10      1.0000 0.90182  0.50130  0.02039  Biso   1.000  S
  S11      1.0000 0.99697  0.73440  0.91699  Biso   1.000  S
  S12      1.0000 0.09775  0.99563  0.98830  Biso   1.000  S
  N5       1.0000 0.73090  0.99830  0.09960  Biso   1.000  N
  N6       1.0000 0.74270  0.99370  0.45560  Biso   1.000  N
  N7       1.0000 0.82140  0.24310  0.01650  Biso   1.000  N
  N8       1.0000 0.17790  0.24580  0.95780  Biso   1.000  N
  C29      1.0000 0.71590  0.92770  0.12560  Biso   1.000  C
  C30      1.0000 0.69940  0.83710  0.15870  Biso   1.000  C
  C31      1.0000 0.70030  0.67270  0.21530  Biso   1.000  C
  C32      1.0000 0.64590  0.71780  0.21120  Biso   1.000  C
  H13      1.0000 0.61210  0.68860  0.22810  Biso   1.000  H
  C33      1.0000 0.64620  0.81160  0.17920  Biso   1.000  C
  H14      1.0000 0.61250  0.85290  0.17260  Biso   1.000  H
  C34      1.0000 0.71920  0.57820  0.24660  Biso   1.000  C
  C35      1.0000 0.77430  0.54560  0.25960  Biso   1.000  C
  H15      1.0000 0.80800  0.58290  0.24790  Biso   1.000  H
  C36      1.0000 0.77640  0.45160  0.29190  Biso   1.000  C
  H16      1.0000 0.81160  0.41900  0.30350  Biso   1.000  H
  C37      1.0000 0.72210  0.41170  0.30500  Biso   1.000  C
  C38      1.0000 0.70750  0.31750  0.33640  Biso   1.000  C
  C39      1.0000 0.71070  0.15430  0.39590  Biso   1.000  C
  C40      1.0000 0.65630  0.17640  0.37700  Biso   1.000  C
  H17      1.0000 0.62360  0.13380  0.38540  Biso   1.000  H
  C41      1.0000 0.65330  0.26990  0.34340  Biso   1.000  C
  H18      1.0000 0.61850  0.29690  0.32750  Biso   1.000  H
  C42      1.0000 0.72890  0.06560  0.42880  Biso   1.000  C
  C43      1.0000 0.84770  0.31270  0.99850  Biso   1.000  C
  C44      1.0000 0.88060  0.40010  0.97570  Biso   1.000  C
  C45      1.0000 0.89910  0.41480  0.91970  Biso   1.000  C
  H19      1.0000 0.89140  0.36690  0.88920  Biso   1.000  H
  C46      1.0000 0.93000  0.50720  0.91300  Biso   1.000  C
  H20      1.0000 0.94520  0.52970  0.87710  Biso   1.000  H
  C47      1.0000 0.93660  0.56380  0.96330  Biso   1.000  C
  C48      1.0000 0.96850  0.66220  0.97410  Biso   1.000  C
  C49      1.0000 0.02560  0.82910  0.96420  Biso   1.000  C
  C50      1.0000 0.01290  0.80310  0.02020  Biso   1.000  C
  H21      1.0000 0.02490  0.84420  0.05220  Biso   1.000  H
  C51      1.0000 0.98000  0.70840  0.02580  Biso   1.000  C
  H22      1.0000 0.96750  0.68060  0.06170  Biso   1.000  H
  C52      1.0000 0.05650  0.91980  0.94200  Biso   1.000  C
  C53      1.0000 0.05740  0.95960  0.88760  Biso   1.000  C
  H23      1.0000 0.03730  0.92830  0.85640  Biso   1.000  H
  C54      1.0000 0.09160  0.05300  0.88190  Biso   1.000  C
  H24      1.0000 0.09680  0.09030  0.84680  Biso   1.000  H
  C55      1.0000 0.11570  0.08150  0.93330  Biso   1.000  C
  C56      1.0000 0.15080  0.17420  0.94620  Biso   1.000  C
  Ag3      1.0000 0.24657  0.37435  0.96894  Biso   1.000  Ag
  S13      1.0000 0.25176  0.75431  0.82163  Biso   1.000  S
  S14      1.0000 0.16808  0.00861  0.72443  Biso   1.000  S
  S15      1.0000 0.26114  0.25280  0.62692  Biso   1.000  S
  S16      1.0000 0.40182  0.99870  0.97961  Biso   1.000  S
  S17      1.0000 0.49697  0.76560  0.08301  Biso   1.000  S
  S18      1.0000 0.59775  0.50437  0.01170  Biso   1.000  S
  N9       1.0000 0.23090  0.50170  0.90040  Biso   1.000  N
  N10      1.0000 0.24270  0.50630  0.54440  Biso   1.000  N
  N11      1.0000 0.32140  0.25690  0.98350  Biso   1.000  N
  N12      1.0000 0.67790  0.25420  0.04220  Biso   1.000  N
  C57      1.0000 0.21590  0.57230  0.87440  Biso   1.000  C
  C58      1.0000 0.19940  0.66290  0.84130  Biso   1.000  C
  C59      1.0000 0.20030  0.82730  0.78470  Biso   1.000  C
  C60      1.0000 0.14590  0.78220  0.78880  Biso   1.000  C
  H25      1.0000 0.11210  0.81140  0.77190  Biso   1.000  H
  C61      1.0000 0.14620  0.68840  0.82080  Biso   1.000  C
  H26      1.0000 0.11250  0.64710  0.82740  Biso   1.000  H
  C62      1.0000 0.21920  0.92180  0.75340  Biso   1.000  C
  C63      1.0000 0.27430  0.95440  0.74040  Biso   1.000  C
  H27      1.0000 0.30800  0.91710  0.75210  Biso   1.000  H
  C64      1.0000 0.27640  0.04840  0.70810  Biso   1.000  C
  H28      1.0000 0.31160  0.08100  0.69650  Biso   1.000  H
  C65      1.0000 0.22210  0.08830  0.69500  Biso   1.000  C
  C66      1.0000 0.20750  0.18250  0.66360  Biso   1.000  C
  C67      1.0000 0.21070  0.34570  0.60410  Biso   1.000  C
  C68      1.0000 0.15630  0.32360  0.62300  Biso   1.000  C
  H29      1.0000 0.12360  0.36620  0.61460  Biso   1.000  H
  C69      1.0000 0.15330  0.23010  0.65660  Biso   1.000  C
  H30      1.0000 0.11850  0.20310  0.67250  Biso   1.000  H
  C70      1.0000 0.22890  0.43440  0.57120  Biso   1.000  C
  C71      1.0000 0.34770  0.18730  0.00150  Biso   1.000  C
  C72      1.0000 0.38060  0.09990  0.02430  Biso   1.000  C
  C73      1.0000 0.39910  0.08520  0.08030  Biso   1.000  C
  H31      1.0000 0.39140  0.13310  0.11080  Biso   1.000  H
  C74      1.0000 0.43000  0.99280  0.08700  Biso   1.000  C
  H32      1.0000 0.44520  0.97030  0.12290  Biso   1.000  H
  C75      1.0000 0.43660  0.93620  0.03670  Biso   1.000  C
  C76      1.0000 0.46850  0.83780  0.02590  Biso   1.000  C
  C77      1.0000 0.52560  0.67090  0.03580  Biso   1.000  C
  C78      1.0000 0.51290  0.69690  0.97980  Biso   1.000  C
  H33      1.0000 0.52490  0.65580  0.94780  Biso   1.000  H
  C79      1.0000 0.48000  0.79160  0.97420  Biso   1.000  C
  H34      1.0000 0.46750  0.81940  0.93830  Biso   1.000  H
  C80      1.0000 0.55650  0.58020  0.05800  Biso   1.000  C
  C81      1.0000 0.55740  0.54040  0.11240  Biso   1.000  C
  H35      1.0000 0.53730  0.57170  0.14360  Biso   1.000  H
  C82      1.0000 0.59160  0.44700  0.11810  Biso   1.000  C
  H36      1.0000 0.59680  0.40970  0.15320  Biso   1.000  H
  C83      1.0000 0.61570  0.41850  0.06670  Biso   1.000  C
  C84      1.0000 0.65080  0.32580  0.05380  Biso   1.000  C
  Ag4      1.0000 0.25343  0.62565  0.46894  Biso   1.000  Ag
  S19      1.0000 0.24824  0.24569  0.32163  Biso   1.000  S
  S20      1.0000 0.33192  0.99139  0.22443  Biso   1.000  S
  S21      1.0000 0.23886  0.74720  0.12692  Biso   1.000  S
  S22      1.0000 0.09818  0.00130  0.47961  Biso   1.000  S
  S23      1.0000 0.00303  0.23440  0.58301  Biso   1.000  S
  S24      1.0000 0.90225  0.49563  0.51170  Biso   1.000  S
  N13      1.0000 0.26910  0.49830  0.40040  Biso   1.000  N
  N14      1.0000 0.25730  0.49370  0.04440  Biso   1.000  N
  N15      1.0000 0.17860  0.74310  0.48350  Biso   1.000  N
  N16      1.0000 0.82210  0.74580  0.54220  Biso   1.000  N
  C85      1.0000 0.28410  0.42770  0.37440  Biso   1.000  C
  C86      1.0000 0.30060  0.33710  0.34130  Biso   1.000  C
  C87      1.0000 0.29970  0.17270  0.28470  Biso   1.000  C
  C88      1.0000 0.35410  0.21780  0.28880  Biso   1.000  C
  H37      1.0000 0.38790  0.18860  0.27190  Biso   1.000  H
  C89      1.0000 0.35380  0.31160  0.32080  Biso   1.000  C
  H38      1.0000 0.38750  0.35290  0.32740  Biso   1.000  H
  C90      1.0000 0.28080  0.07820  0.25340  Biso   1.000  C
  C91      1.0000 0.22570  0.04560  0.24040  Biso   1.000  C
  H39      1.0000 0.19200  0.08290  0.25210  Biso   1.000  H
  C92      1.0000 0.22360  0.95160  0.20810  Biso   1.000  C
  H40      1.0000 0.18840  0.91900  0.19650  Biso   1.000  H
  C93      1.0000 0.27790  0.91170  0.19500  Biso   1.000  C
  C94      1.0000 0.29250  0.81750  0.16360  Biso   1.000  C
  C95      1.0000 0.28930  0.65430  0.10410  Biso   1.000  C
  C96      1.0000 0.34370  0.67640  0.12300  Biso   1.000  C
  H41      1.0000 0.37640  0.63380  0.11460  Biso   1.000  H
  C97      1.0000 0.34670  0.76990  0.15660  Biso   1.000  C
  H42      1.0000 0.38150  0.79690  0.17250  Biso   1.000  H
  C98      1.0000 0.27110  0.56560  0.07120  Biso   1.000  C
  C99      1.0000 0.15230  0.81270  0.50150  Biso   1.000  C
  C100     1.0000 0.11940  0.90010  0.52430  Biso   1.000  C
  C101     1.0000 0.10090  0.91480  0.58030  Biso   1.000  C
  H43      1.0000 0.10860  0.86690  0.61080  Biso   1.000  H
  C102     1.0000 0.07000  0.00720  0.58700  Biso   1.000  C
  H44      1.0000 0.05480  0.02970  0.62290  Biso   1.000  H
  C103     1.0000 0.06340  0.06380  0.53670  Biso   1.000  C
  C104     1.0000 0.03150  0.16220  0.52590  Biso   1.000  C
  C105     1.0000 0.97440  0.32910  0.53580  Biso   1.000  C
  C106     1.0000 0.98710  0.30310  0.47980  Biso   1.000  C
  H45      1.0000 0.97510  0.34420  0.44780  Biso   1.000  H
  C107     1.0000 0.02000  0.20840  0.47420  Biso   1.000  C
  H46      1.0000 0.03250  0.18060  0.43830  Biso   1.000  H
  C108     1.0000 0.94350  0.41980  0.55800  Biso   1.000  C
  C109     1.0000 0.94260  0.45960  0.61240  Biso   1.000  C
  H47      1.0000 0.96270  0.42830  0.64360  Biso   1.000  H
  C110     1.0000 0.90840  0.55300  0.61810  Biso   1.000  C
  H48      1.0000 0.90320  0.59030  0.65320  Biso   1.000  H
  C111     1.0000 0.88430  0.58150  0.56670  Biso   1.000  C
  C112     1.0000 0.84920  0.67420  0.55380  Biso   1.000  C
  Ag5      1.0000 0.24657  0.12565  0.46894  Biso   1.000  Ag
  S25      1.0000 0.25176  0.74569  0.32163  Biso   1.000  S
  S26      1.0000 0.16808  0.49139  0.22443  Biso   1.000  S
  S27      1.0000 0.26114  0.24720  0.12692  Biso   1.000  S
  S28      1.0000 0.40182  0.50130  0.47961  Biso   1.000  S
  S29      1.0000 0.49697  0.73440  0.58301  Biso   1.000  S
  S30      1.0000 0.59775  0.99563  0.51170  Biso   1.000  S
  N17      1.0000 0.23090  0.99830  0.40040  Biso   1.000  N
  N18      1.0000 0.24270  0.99370  0.04440  Biso   1.000  N
  N19      1.0000 0.32140  0.24310  0.48350  Biso   1.000  N
  N20      1.0000 0.67790  0.24580  0.54220  Biso   1.000  N
  C113     1.0000 0.21590  0.92770  0.37440  Biso   1.000  C
  C114     1.0000 0.19940  0.83710  0.34130  Biso   1.000  C
  C115     1.0000 0.20030  0.67270  0.28470  Biso   1.000  C
  C116     1.0000 0.14590  0.71780  0.28880  Biso   1.000  C
  H49      1.0000 0.11210  0.68860  0.27190  Biso   1.000  H
  C117     1.0000 0.14620  0.81160  0.32080  Biso   1.000  C
  H50      1.0000 0.11250  0.85290  0.32740  Biso   1.000  H
  C118     1.0000 0.21920  0.57820  0.25340  Biso   1.000  C
  C119     1.0000 0.27430  0.54560  0.24040  Biso   1.000  C
  H51      1.0000 0.30800  0.58290  0.25210  Biso   1.000  H
  C120     1.0000 0.27640  0.45160  0.20810  Biso   1.000  C
  H52      1.0000 0.31160  0.41900  0.19650  Biso   1.000  H
  C121     1.0000 0.22210  0.41170  0.19500  Biso   1.000  C
  C122     1.0000 0.20750  0.31750  0.16360  Biso   1.000  C
  C123     1.0000 0.21070  0.15430  0.10410  Biso   1.000  C
  C124     1.0000 0.15630  0.17640  0.12300  Biso   1.000  C
  H53      1.0000 0.12360  0.13380  0.11460  Biso   1.000  H
  C125     1.0000 0.15330  0.26990  0.15660  Biso   1.000  C
  H54      1.0000 0.11850  0.29690  0.17250  Biso   1.000  H
  C126     1.0000 0.22890  0.06560  0.07120  Biso   1.000  C
  C127     1.0000 0.34770  0.31270  0.50150  Biso   1.000  C
  C128     1.0000 0.38060  0.40010  0.52430  Biso   1.000  C
  C129     1.0000 0.39910  0.41480  0.58030  Biso   1.000  C
  H55      1.0000 0.39140  0.36690  0.61080  Biso   1.000  H
  C130     1.0000 0.43000  0.50720  0.58700  Biso   1.000  C
  H56      1.0000 0.44520  0.52970  0.62290  Biso   1.000  H
  C131     1.0000 0.43660  0.56380  0.53670  Biso   1.000  C
  C132     1.0000 0.46850  0.66220  0.52590  Biso   1.000  C
  C133     1.0000 0.52560  0.82910  0.53580  Biso   1.000  C
  C134     1.0000 0.51290  0.80310  0.47980  Biso   1.000  C
  H57      1.0000 0.52490  0.84420  0.44780  Biso   1.000  H
  C135     1.0000 0.48000  0.70840  0.47420  Biso   1.000  C
  H58      1.0000 0.46750  0.68060  0.43830  Biso   1.000  H
  C136     1.0000 0.55650  0.91980  0.55800  Biso   1.000  C
  C137     1.0000 0.55740  0.95960  0.61240  Biso   1.000  C
  H59      1.0000 0.53730  0.92830  0.64360  Biso   1.000  H
  C138     1.0000 0.59160  0.05300  0.61810  Biso   1.000  C
  H60      1.0000 0.59680  0.09030  0.65320  Biso   1.000  H
  C139     1.0000 0.61570  0.08150  0.56670  Biso   1.000  C
  C140     1.0000 0.65080  0.17420  0.55380  Biso   1.000  C
  Ag6      1.0000 0.25343  0.87435  0.96894  Biso   1.000  Ag
  S31      1.0000 0.24824  0.25431  0.82163  Biso   1.000  S
  S32      1.0000 0.33192  0.50861  0.72443  Biso   1.000  S
  S33      1.0000 0.23886  0.75280  0.62692  Biso   1.000  S
  S34      1.0000 0.09818  0.49870  0.97961  Biso   1.000  S
  S35      1.0000 0.00303  0.26560  0.08301  Biso   1.000  S
  S36      1.0000 0.90225  0.00437  0.01170  Biso   1.000  S
  N21      1.0000 0.26910  0.00170  0.90040  Biso   1.000  N
  N22      1.0000 0.25730  0.00630  0.54440  Biso   1.000  N
  N23      1.0000 0.17860  0.75690  0.98350  Biso   1.000  N
  N24      1.0000 0.82210  0.75420  0.04220  Biso   1.000  N
  C141     1.0000 0.28410  0.07230  0.87440  Biso   1.000  C
  C142     1.0000 0.30060  0.16290  0.84130  Biso   1.000  C
  C143     1.0000 0.29970  0.32730  0.78470  Biso   1.000  C
  C144     1.0000 0.35410  0.28220  0.78880  Biso   1.000  C
  H61      1.0000 0.38790  0.31140  0.77190  Biso   1.000  H
  C145     1.0000 0.35380  0.18840  0.82080  Biso   1.000  C
  H62      1.0000 0.38750  0.14710  0.82740  Biso   1.000  H
  C146     1.0000 0.28080  0.42180  0.75340  Biso   1.000  C
  C147     1.0000 0.22570  0.45440  0.74040  Biso   1.000  C
  H63      1.0000 0.19200  0.41710  0.75210  Biso   1.000  H
  C148     1.0000 0.22360  0.54840  0.70810  Biso   1.000  C
  H64      1.0000 0.18840  0.58100  0.69650  Biso   1.000  H
  C149     1.0000 0.27790  0.58830  0.69500  Biso   1.000  C
  C150     1.0000 0.29250  0.68250  0.66360  Biso   1.000  C
  C151     1.0000 0.28930  0.84570  0.60410  Biso   1.000  C
  C152     1.0000 0.34370  0.82360  0.62300  Biso   1.000  C
  H65      1.0000 0.37640  0.86620  0.61460  Biso   1.000  H
  C153     1.0000 0.34670  0.73010  0.65660  Biso   1.000  C
  H66      1.0000 0.38150  0.70310  0.67250  Biso   1.000  H
  C154     1.0000 0.27110  0.93440  0.57120  Biso   1.000  C
  C155     1.0000 0.15230  0.68730  0.00150  Biso   1.000  C
  C156     1.0000 0.11940  0.59990  0.02430  Biso   1.000  C
  C157     1.0000 0.10090  0.58520  0.08030  Biso   1.000  C
  H67      1.0000 0.10860  0.63310  0.11080  Biso   1.000  H
  C158     1.0000 0.07000  0.49280  0.08700  Biso   1.000  C
  H68      1.0000 0.05480  0.47030  0.12290  Biso   1.000  H
  C159     1.0000 0.06340  0.43620  0.03670  Biso   1.000  C
  C160     1.0000 0.03150  0.33780  0.02590  Biso   1.000  C
  C161     1.0000 0.97440  0.17090  0.03580  Biso   1.000  C
  C162     1.0000 0.98710  0.19690  0.97980  Biso   1.000  C
  H69      1.0000 0.97510  0.15580  0.94780  Biso   1.000  H
  C163     1.0000 0.02000  0.29160  0.97420  Biso   1.000  C
  H70      1.0000 0.03250  0.31940  0.93830  Biso   1.000  H
  C164     1.0000 0.94350  0.08020  0.05800  Biso   1.000  C
  C165     1.0000 0.94260  0.04040  0.11240  Biso   1.000  C
  H71      1.0000 0.96270  0.07170  0.14360  Biso   1.000  H
  C166     1.0000 0.90840  0.94700  0.11810  Biso   1.000  C
  H72      1.0000 0.90320  0.90970  0.15320  Biso   1.000  H
  C167     1.0000 0.88430  0.91850  0.06670  Biso   1.000  C
  C168     1.0000 0.84920  0.82580  0.05380  Biso   1.000  C
  Ag7      1.0000 0.75343  0.62565  0.03106  Biso   1.000  Ag
  S37      1.0000 0.74824  0.24569  0.17837  Biso   1.000  S
  S38      1.0000 0.83192  0.99139  0.27557  Biso   1.000  S
  S39      1.0000 0.73886  0.74720  0.37308  Biso   1.000  S
  S40      1.0000 0.59818  0.00130  0.02039  Biso   1.000  S
  S41      1.0000 0.50303  0.23440  0.91699  Biso   1.000  S
  S42      1.0000 0.40225  0.49563  0.98830  Biso   1.000  S
  N25      1.0000 0.76910  0.49830  0.09960  Biso   1.000  N
  N26      1.0000 0.75730  0.49370  0.45560  Biso   1.000  N
  N27      1.0000 0.67860  0.74310  0.01650  Biso   1.000  N
  N28      1.0000 0.32210  0.74580  0.95780  Biso   1.000  N
  C169     1.0000 0.78410  0.42770  0.12560  Biso   1.000  C
  C170     1.0000 0.80060  0.33710  0.15870  Biso   1.000  C
  C171     1.0000 0.79970  0.17270  0.21530  Biso   1.000  C
  C172     1.0000 0.85410  0.21780  0.21120  Biso   1.000  C
  H73      1.0000 0.88790  0.18860  0.22810  Biso   1.000  H
  C173     1.0000 0.85380  0.31160  0.17920  Biso   1.000  C
  H74      1.0000 0.88750  0.35290  0.17260  Biso   1.000  H
  C174     1.0000 0.78080  0.07820  0.24660  Biso   1.000  C
  C175     1.0000 0.72570  0.04560  0.25960  Biso   1.000  C
  H75      1.0000 0.69200  0.08290  0.24790  Biso   1.000  H
  C176     1.0000 0.72360  0.95160  0.29190  Biso   1.000  C
  H76      1.0000 0.68840  0.91900  0.30350  Biso   1.000  H
  C177     1.0000 0.77790  0.91170  0.30500  Biso   1.000  C
  C178     1.0000 0.79250  0.81750  0.33640  Biso   1.000  C
  C179     1.0000 0.78930  0.65430  0.39590  Biso   1.000  C
  C180     1.0000 0.84370  0.67640  0.37700  Biso   1.000  C
  H77      1.0000 0.87640  0.63380  0.38540  Biso   1.000  H
  C181     1.0000 0.84670  0.76990  0.34340  Biso   1.000  C
  H78      1.0000 0.88150  0.79690  0.32750  Biso   1.000  H
  C182     1.0000 0.77110  0.56560  0.42880  Biso   1.000  C
  C183     1.0000 0.65230  0.81270  0.99850  Biso   1.000  C
  C184     1.0000 0.61940  0.90010  0.97570  Biso   1.000  C
  C185     1.0000 0.60090  0.91480  0.91970  Biso   1.000  C
  H79      1.0000 0.60860  0.86690  0.88920  Biso   1.000  H
  C186     1.0000 0.57000  0.00720  0.91300  Biso   1.000  C
  H80      1.0000 0.55480  0.02970  0.87710  Biso   1.000  H
  C187     1.0000 0.56340  0.06380  0.96330  Biso   1.000  C
  C188     1.0000 0.53150  0.16220  0.97410  Biso   1.000  C
  C189     1.0000 0.47440  0.32910  0.96420  Biso   1.000  C
  C190     1.0000 0.48710  0.30310  0.02020  Biso   1.000  C
  H81      1.0000 0.47510  0.34420  0.05220  Biso   1.000  H
  C191     1.0000 0.52000  0.20840  0.02580  Biso   1.000  C
  H82      1.0000 0.53250  0.18060  0.06170  Biso   1.000  H
  C192     1.0000 0.44350  0.41980  0.94200  Biso   1.000  C
  C193     1.0000 0.44260  0.45960  0.88760  Biso   1.000  C
  H83      1.0000 0.46270  0.42830  0.85640  Biso   1.000  H
  C194     1.0000 0.40840  0.55300  0.88190  Biso   1.000  C
  H84      1.0000 0.40320  0.59030  0.84680  Biso   1.000  H
  C195     1.0000 0.38430  0.58150  0.93330  Biso   1.000  C
  C196     1.0000 0.34920  0.67420  0.94620  Biso   1.000  C
  Ag8      1.0000 0.74657  0.37435  0.53106  Biso   1.000  Ag
  S43      1.0000 0.75176  0.75431  0.67837  Biso   1.000  S
  S44      1.0000 0.66808  0.00861  0.77557  Biso   1.000  S
  S45      1.0000 0.76114  0.25280  0.87308  Biso   1.000  S
  S46      1.0000 0.90182  0.99870  0.52039  Biso   1.000  S
  S47      1.0000 0.99697  0.76560  0.41699  Biso   1.000  S
  S48      1.0000 0.09775  0.50437  0.48830  Biso   1.000  S
  N29      1.0000 0.73090  0.50170  0.59960  Biso   1.000  N
  N30      1.0000 0.74270  0.50630  0.95560  Biso   1.000  N
  N31      1.0000 0.82140  0.25690  0.51650  Biso   1.000  N
  N32      1.0000 0.17790  0.25420  0.45780  Biso   1.000  N
  C197     1.0000 0.71590  0.57230  0.62560  Biso   1.000  C
  C198     1.0000 0.69940  0.66290  0.65870  Biso   1.000  C
  C199     1.0000 0.70030  0.82730  0.71530  Biso   1.000  C
  C200     1.0000 0.64590  0.78220  0.71120  Biso   1.000  C
  H85      1.0000 0.61210  0.81140  0.72810  Biso   1.000  H
  C201     1.0000 0.64620  0.68840  0.67920  Biso   1.000  C
  H86      1.0000 0.61250  0.64710  0.67260  Biso   1.000  H
  C202     1.0000 0.71920  0.92180  0.74660  Biso   1.000  C
  C203     1.0000 0.77430  0.95440  0.75960  Biso   1.000  C
  H87      1.0000 0.80800  0.91710  0.74790  Biso   1.000  H
  C204     1.0000 0.77640  0.04840  0.79190  Biso   1.000  C
  H88      1.0000 0.81160  0.08100  0.80350  Biso   1.000  H
  C205     1.0000 0.72210  0.08830  0.80500  Biso   1.000  C
  C206     1.0000 0.70750  0.18250  0.83640  Biso   1.000  C
  C207     1.0000 0.71070  0.34570  0.89590  Biso   1.000  C
  C208     1.0000 0.65630  0.32360  0.87700  Biso   1.000  C
  H89      1.0000 0.62360  0.36620  0.88540  Biso   1.000  H
  C209     1.0000 0.65330  0.23010  0.84340  Biso   1.000  C
  H90      1.0000 0.61850  0.20310  0.82750  Biso   1.000  H
  C210     1.0000 0.72890  0.43440  0.92880  Biso   1.000  C
  C211     1.0000 0.84770  0.18730  0.49850  Biso   1.000  C
  C212     1.0000 0.88060  0.09990  0.47570  Biso   1.000  C
  C213     1.0000 0.89910  0.08520  0.41970  Biso   1.000  C
  H91      1.0000 0.89140  0.13310  0.38920  Biso   1.000  H
  C214     1.0000 0.93000  0.99280  0.41300  Biso   1.000  C
  H92      1.0000 0.94520  0.97030  0.37710  Biso   1.000  H
  C215     1.0000 0.93660  0.93620  0.46330  Biso   1.000  C
  C216     1.0000 0.96850  0.83780  0.47410  Biso   1.000  C
  C217     1.0000 0.02560  0.67090  0.46420  Biso   1.000  C
  C218     1.0000 0.01290  0.69690  0.52020  Biso   1.000  C
  H93      1.0000 0.02490  0.65580  0.55220  Biso   1.000  H
  C219     1.0000 0.98000  0.79160  0.52580  Biso   1.000  C
  H94      1.0000 0.96750  0.81940  0.56170  Biso   1.000  H
  C220     1.0000 0.05650  0.58020  0.44200  Biso   1.000  C
  C221     1.0000 0.05740  0.54040  0.38760  Biso   1.000  C
  H95      1.0000 0.03730  0.57170  0.35640  Biso   1.000  H
  C222     1.0000 0.09160  0.44700  0.38190  Biso   1.000  C
  H96      1.0000 0.09680  0.40970  0.34680  Biso   1.000  H
  C223     1.0000 0.11570  0.41850  0.43330  Biso   1.000  C
  C224     1.0000 0.15080  0.32580  0.44620  Biso   1.000  C
