data_PUQHIT_clean
_audit_creation_date              2015-05-14
_audit_creation_method            'Materials Studio'
_symmetry_space_group_name_H-M    'P1'
_symmetry_Int_Tables_number       1
_symmetry_cell_setting            triclinic
loop_
_symmetry_equiv_pos_as_xyz
  x,y,z
_cell_length_a                    9.8401
_cell_length_b                    11.0617
_cell_length_c                    13.5307
_cell_angle_alpha                 66.1810
_cell_angle_beta                  85.8230
_cell_angle_gamma                 69.8900
loop_
_atom_site_label
_atom_site_type_symbol
_atom_site_fract_x
_atom_site_fract_y
_atom_site_fract_z
_atom_site_U_iso_or_equiv
_atom_site_adp_type
_atom_site_occupancy
Zn1    Zn    0.11134   0.47295   0.20420   0.01267  Uiso   1.00
Zn2    Zn    0.16858   0.44590   0.98252   0.01267  Uiso   1.00
Zn3    Zn    0.88866   0.52705   0.79580   0.01267  Uiso   1.00
Zn4    Zn    0.83142   0.55410   0.01748   0.01267  Uiso   1.00
H5     H     0.12280   0.90630   0.10390   0.01267  Uiso   1.00
H6     H     0.32710   0.13560   0.87130   0.01267  Uiso   1.00
H7     H     0.35340   0.75060   0.89520   0.01267  Uiso   1.00
H8     H     0.41810   0.83720   0.73200   0.01267  Uiso   1.00
H9     H     0.52260   0.91900   0.66410   0.01267  Uiso   1.00
H10    H     0.20430   0.67310   0.76790   0.01267  Uiso   1.00
H11    H     0.35230   0.70170   0.62590   0.01267  Uiso   1.00
H12    H     0.60280   0.29360   0.78110   0.01267  Uiso   1.00
H13    H     0.44720   0.27600   0.91920   0.01267  Uiso   1.00
H14    H     0.55930   0.61030   0.53640   0.01267  Uiso   1.00
H15    H     0.74860   0.34690   0.65540   0.01267  Uiso   1.00
H16    H     0.71140   0.66140   0.40870   0.01267  Uiso   1.00
H17    H     0.86890   0.67190   0.26940   0.01267  Uiso   1.00
H18    H     0.08060   0.26670   0.41920   0.01267  Uiso   1.00
H19    H     0.93890   0.24740   0.56130   0.01267  Uiso   1.00
H20    H     0.87720   0.09370   0.89610   0.01267  Uiso   1.00
H21    H     0.67290   0.86440   0.12870   0.01267  Uiso   1.00
H22    H     0.64660   0.24940   0.10480   0.01267  Uiso   1.00
H23    H     0.58190   0.16280   0.26800   0.01267  Uiso   1.00
H24    H     0.47740   0.08100   0.33590   0.01267  Uiso   1.00
H25    H     0.79570   0.32690   0.23210   0.01267  Uiso   1.00
H26    H     0.64770   0.29830   0.37410   0.01267  Uiso   1.00
H27    H     0.39720   0.70640   0.21890   0.01267  Uiso   1.00
H28    H     0.55280   0.72400   0.08080   0.01267  Uiso   1.00
H29    H     0.44070   0.38970   0.46360   0.01267  Uiso   1.00
H30    H     0.25140   0.65310   0.34460   0.01267  Uiso   1.00
H31    H     0.28860   0.33860   0.59130   0.01267  Uiso   1.00
H32    H     0.13110   0.32810   0.73060   0.01267  Uiso   1.00
H33    H     0.91940   0.73330   0.58080   0.01267  Uiso   1.00
H34    H     0.06110   0.75260   0.43870   0.01267  Uiso   1.00
C35    C     0.19100   0.68160   0.05460   0.01267  Uiso   1.00
C36    C     0.22940   0.81370   0.00430   0.01267  Uiso   1.00
C37    C     0.17970   0.91750   0.04320   0.01267  Uiso   1.00
C38    C     0.21500   0.04100   0.99110   0.01267  Uiso   1.00
C39    C     0.30350   0.05250   0.90630   0.01267  Uiso   1.00
C40    C     0.35850   0.94350   0.87170   0.01267  Uiso   1.00
C41    C     0.31900   0.82410   0.92000   0.01267  Uiso   1.00
C42    C     0.49740   0.87020   0.73840   0.01267  Uiso   1.00
C43    C     0.62870   0.74290   0.79940   0.01267  Uiso   1.00
C44    C     0.15520   0.16430   0.02560   0.01267  Uiso   1.00
C45    C     0.28630   0.59460   0.77080   0.01267  Uiso   1.00
C46    C     0.37490   0.61290   0.68570   0.01267  Uiso   1.00
C47    C     0.49620   0.50150   0.68800   0.01267  Uiso   1.00
C48    C     0.52160   0.37360   0.77670   0.01267  Uiso   1.00
C49    C     0.42770   0.36370   0.85870   0.01267  Uiso   1.00
C50    C     0.59180   0.52250   0.59730   0.01267  Uiso   1.00
C51    C     0.71470   0.43310   0.59320   0.01267  Uiso   1.00
C52    C     0.80940   0.45050   0.50090   0.01267  Uiso   1.00
C53    C     0.78840   0.57890   0.41230   0.01267  Uiso   1.00
C54    C     0.88220   0.58440   0.32910   0.01267  Uiso   1.00
C55    C     0.00510   0.34920   0.41720   0.01267  Uiso   1.00
C56    C     0.92050   0.33600   0.50190   0.01267  Uiso   1.00
C57    C     0.80900   0.31840   0.94540   0.01267  Uiso   1.00
C58    C     0.77060   0.18630   0.99570   0.01267  Uiso   1.00
C59    C     0.82030   0.08250   0.95680   0.01267  Uiso   1.00
C60    C     0.78500   0.95900   0.00890   0.01267  Uiso   1.00
C61    C     0.69650   0.94750   0.09370   0.01267  Uiso   1.00
C62    C     0.64150   0.05650   0.12830   0.01267  Uiso   1.00
C63    C     0.68100   0.17590   0.08000   0.01267  Uiso   1.00
C64    C     0.50260   0.12980   0.26160   0.01267  Uiso   1.00
C65    C     0.37130   0.25710   0.20060   0.01267  Uiso   1.00
C66    C     0.84480   0.83570   0.97440   0.01267  Uiso   1.00
C67    C     0.71370   0.40540   0.22920   0.01267  Uiso   1.00
C68    C     0.62510   0.38710   0.31430   0.01267  Uiso   1.00
C69    C     0.50380   0.49850   0.31200   0.01267  Uiso   1.00
C70    C     0.47840   0.62640   0.22330   0.01267  Uiso   1.00
C71    C     0.57230   0.63630   0.14130   0.01267  Uiso   1.00
C72    C     0.40820   0.47750   0.40270   0.01267  Uiso   1.00
C73    C     0.28530   0.56690   0.40680   0.01267  Uiso   1.00
C74    C     0.19060   0.54950   0.49910   0.01267  Uiso   1.00
C75    C     0.21160   0.42110   0.58770   0.01267  Uiso   1.00
C76    C     0.11780   0.41560   0.67090   0.01267  Uiso   1.00
C77    C     0.99490   0.65080   0.58280   0.01267  Uiso   1.00
C78    C     0.07950   0.66400   0.49810   0.01267  Uiso   1.00
N79    N     0.30960   0.47330   0.85620   0.01267  Uiso   1.00
N80    N     0.99040   0.46910   0.33130   0.01267  Uiso   1.00
N81    N     0.69040   0.52670   0.14380   0.01267  Uiso   1.00
N82    N     0.00960   0.53090   0.66870   0.01267  Uiso   1.00
O83    O     0.14210   0.65410   0.14750   0.01267  Uiso   1.00
O84    O     0.21110   0.60820   0.00160   0.01267  Uiso   1.00
O85    O     0.44530   0.96860   0.78680   0.01267  Uiso   1.00
O86    O     0.65430   0.70720   0.89620   0.01267  Uiso   1.00
O87    O     0.70150   0.68210   0.73900   0.01267  Uiso   1.00
O88    O     0.15930   0.27930   0.95640   0.01267  Uiso   1.00
O89    O     0.10930   0.14310   0.11750   0.01267  Uiso   1.00
O90    O     0.02570   0.41880   0.11030   0.01267  Uiso   1.00
O91    O     0.85790   0.34590   0.85250   0.01267  Uiso   1.00
O92    O     0.78890   0.39180   0.99840   0.01267  Uiso   1.00
O93    O     0.55470   0.03140   0.21320   0.01267  Uiso   1.00
O94    O     0.34570   0.29280   0.10380   0.01267  Uiso   1.00
O95    O     0.29850   0.31790   0.26100   0.01267  Uiso   1.00
O96    O     0.84070   0.72070   0.04360   0.01267  Uiso   1.00
O97    O     0.89070   0.85690   0.88250   0.01267  Uiso   1.00
O98    O     0.97430   0.58120   0.88970   0.01267  Uiso   1.00
H99    H     0.02570   0.31998   0.14293   0.01267  Uiso   1.00
H100   H     0.97430   0.68002   0.85707   0.01267  Uiso   1.00
