data_PUQHEP_clean
_audit_creation_date              2014-07-02
_audit_creation_method            'Materials Studio'
_symmetry_space_group_name_H-M    'P1'
_symmetry_Int_Tables_number       1
_symmetry_cell_setting            triclinic
loop_
_symmetry_equiv_pos_as_xyz
  x,y,z
_cell_length_a                    9.8385
_cell_length_b                    11.0629
_cell_length_c                    13.5398
_cell_angle_alpha                 66.6100
_cell_angle_beta                  85.8980
_cell_angle_gamma                 69.7170
loop_
_atom_site_label
_atom_site_type_symbol
_atom_site_fract_x
_atom_site_fract_y
_atom_site_fract_z
_atom_site_U_iso_or_equiv
_atom_site_adp_type
_atom_site_occupancy
Co1    Co    0.89257   0.02323   0.79748   0.01267  Uiso   1.00
Co2    Co    0.82947   0.05518   0.01434   0.01267  Uiso   1.00
Co3    Co    0.10743   0.97677   0.20252   0.01267  Uiso   1.00
Co4    Co    0.17053   0.94482   0.98566   0.01267  Uiso   1.00
H1     H     0.95790   0.17200   0.87070   0.01267  Uiso   1.00
H2     H     0.64740   0.74990   0.10400   0.01267  Uiso   1.00
H3     H     0.67010   0.36690   0.12530   0.01267  Uiso   1.00
H4     H     0.87850   0.59130   0.89540   0.01267  Uiso   1.00
H5     H     0.47840   0.58540   0.33450   0.01267  Uiso   1.00
H6     H     0.58180   0.66710   0.26570   0.01267  Uiso   1.00
H7     H     0.79230   0.82930   0.23120   0.01267  Uiso   1.00
H8     H     0.64190   0.80510   0.36950   0.01267  Uiso   1.00
H9     H     0.39560   0.21180   0.21600   0.01267  Uiso   1.00
H10    H     0.55370   0.22700   0.07940   0.01267  Uiso   1.00
H11    H     0.44190   0.89160   0.45990   0.01267  Uiso   1.00
H12    H     0.24920   0.15790   0.34440   0.01267  Uiso   1.00
H13    H     0.29470   0.83120   0.59170   0.01267  Uiso   1.00
H14    H     0.13590   0.82160   0.73450   0.01267  Uiso   1.00
H15    H     0.91910   0.22410   0.57940   0.01267  Uiso   1.00
H16    H     0.06520   0.24460   0.44100   0.01267  Uiso   1.00
H17    H     0.04210   0.82800   0.12930   0.01267  Uiso   1.00
H18    H     0.35260   0.25010   0.89600   0.01267  Uiso   1.00
H19    H     0.32990   0.63310   0.87470   0.01267  Uiso   1.00
H20    H     0.12150   0.40870   0.10460   0.01267  Uiso   1.00
H21    H     0.52160   0.41460   0.66550   0.01267  Uiso   1.00
H22    H     0.41820   0.33290   0.73430   0.01267  Uiso   1.00
H23    H     0.20770   0.17070   0.76880   0.01267  Uiso   1.00
H24    H     0.35810   0.19490   0.63050   0.01267  Uiso   1.00
H25    H     0.60440   0.78820   0.78400   0.01267  Uiso   1.00
H26    H     0.44630   0.77300   0.92060   0.01267  Uiso   1.00
H27    H     0.55810   0.10840   0.54010   0.01267  Uiso   1.00
H28    H     0.75080   0.84210   0.65560   0.01267  Uiso   1.00
H29    H     0.70530   0.16880   0.40830   0.01267  Uiso   1.00
H30    H     0.86410   0.17840   0.26550   0.01267  Uiso   1.00
H31    H     0.08090   0.77590   0.42060   0.01267  Uiso   1.00
H32    H     0.93480   0.75540   0.55900   0.01267  Uiso   1.00
C1     C     0.81130   0.81530   0.94420   0.01267  Uiso   1.00
C2     C     0.77150   0.68670   0.99460   0.01267  Uiso   1.00
C3     C     0.68190   0.67640   0.07900   0.01267  Uiso   1.00
C4     C     0.64290   0.55740   0.12690   0.01267  Uiso   1.00
C5     C     0.69620   0.44830   0.09170   0.01267  Uiso   1.00
C6     C     0.78750   0.45780   0.00770   0.01267  Uiso   1.00
C7     C     0.82170   0.58080   0.95600   0.01267  Uiso   1.00
C8     C     0.50240   0.63380   0.26030   0.01267  Uiso   1.00
C9     C     0.36920   0.76100   0.19980   0.01267  Uiso   1.00
C10    C     0.84540   0.33570   0.97380   0.01267  Uiso   1.00
C11    C     0.71050   0.90870   0.22750   0.01267  Uiso   1.00
C12    C     0.62100   0.89360   0.31040   0.01267  Uiso   1.00
C13    C     0.50110   0.00530   0.30900   0.01267  Uiso   1.00
C14    C     0.47690   0.13140   0.22080   0.01267  Uiso   1.00
C15    C     0.57200   0.13970   0.13930   0.01267  Uiso   1.00
C16    C     0.40860   0.98000   0.40040   0.01267  Uiso   1.00
C17    C     0.28480   0.07070   0.40470   0.01267  Uiso   1.00
C18    C     0.19420   0.04470   0.50070   0.01267  Uiso   1.00
C19    C     0.21760   0.91330   0.58920   0.01267  Uiso   1.00
C20    C     0.12220   0.90790   0.67430   0.01267  Uiso   1.00
C21    C     0.99760   0.14240   0.58290   0.01267  Uiso   1.00
C22    C     0.08370   0.15610   0.49970   0.01267  Uiso   1.00
C23    C     0.18870   0.18470   0.05580   0.01267  Uiso   1.00
C24    C     0.22850   0.31330   0.00540   0.01267  Uiso   1.00
C25    C     0.31810   0.32360   0.92100   0.01267  Uiso   1.00
C26    C     0.35710   0.44260   0.87310   0.01267  Uiso   1.00
C27    C     0.30380   0.55170   0.90830   0.01267  Uiso   1.00
C28    C     0.21250   0.54220   0.99230   0.01267  Uiso   1.00
C29    C     0.17830   0.41920   0.04400   0.01267  Uiso   1.00
C30    C     0.49760   0.36620   0.73970   0.01267  Uiso   1.00
C31    C     0.63080   0.23900   0.80020   0.01267  Uiso   1.00
C32    C     0.15460   0.66430   0.02620   0.01267  Uiso   1.00
C33    C     0.28950   0.09130   0.77250   0.01267  Uiso   1.00
C34    C     0.37900   0.10640   0.68960   0.01267  Uiso   1.00
C35    C     0.49890   0.99470   0.69100   0.01267  Uiso   1.00
C36    C     0.52310   0.86860   0.77920   0.01267  Uiso   1.00
C37    C     0.42800   0.86030   0.86070   0.01267  Uiso   1.00
C38    C     0.59140   0.02000   0.59960   0.01267  Uiso   1.00
C39    C     0.71520   0.92930   0.59530   0.01267  Uiso   1.00
C40    C     0.80580   0.95530   0.49930   0.01267  Uiso   1.00
C41    C     0.78240   0.08670   0.41080   0.01267  Uiso   1.00
C42    C     0.87780   0.09210   0.32570   0.01267  Uiso   1.00
C43    C     0.00240   0.85760   0.41710   0.01267  Uiso   1.00
C44    C     0.91630   0.84390   0.50030   0.01267  Uiso   1.00
N1     N     0.68870   0.02960   0.14150   0.01267  Uiso   1.00
N2     N     0.01340   0.02440   0.66940   0.01267  Uiso   1.00
N3     N     0.31130   0.97040   0.85850   0.01267  Uiso   1.00
N4     N     0.98660   0.97560   0.33060   0.01267  Uiso   1.00
O1     O     0.86420   0.84040   0.85330   0.01267  Uiso   1.00
O2     O     0.79010   0.89140   0.99650   0.01267  Uiso   1.00
O3     O     0.55410   0.53440   0.21120   0.01267  Uiso   1.00
O4     O     0.29500   0.82000   0.25930   0.01267  Uiso   1.00
O5     O     0.34530   0.79430   0.10230   0.01267  Uiso   1.00
O6     O     0.84100   0.22030   0.04290   0.01267  Uiso   1.00
O7     O     0.89030   0.35470   0.88180   0.01267  Uiso   1.00
O8     O     0.97750   0.07940   0.89040   0.01267  Uiso   1.00
O9     O     0.13580   0.15960   0.14670   0.01267  Uiso   1.00
O10    O     0.20990   0.10860   0.00350   0.01267  Uiso   1.00
O11    O     0.44590   0.46560   0.78880   0.01267  Uiso   1.00
O12    O     0.70500   0.18000   0.74070   0.01267  Uiso   1.00
O13    O     0.65470   0.20570   0.89770   0.01267  Uiso   1.00
O14    O     0.15900   0.77970   0.95710   0.01267  Uiso   1.00
O15    O     0.10970   0.64530   0.11820   0.01267  Uiso   1.00
O16    O     0.02250   0.92060   0.10960   0.01267  Uiso   1.00
