data_PURJIW_clean
_audit_creation_date              2014-07-02
_audit_creation_method            'Materials Studio'
_symmetry_space_group_name_H-M    'P1'
_symmetry_Int_Tables_number       1
_symmetry_cell_setting            triclinic
loop_
_symmetry_equiv_pos_as_xyz
  x,y,z
_cell_length_a                    12.4580
_cell_length_b                    17.2089
_cell_length_c                    28.3873
_cell_angle_alpha                 81.6004
_cell_angle_beta                  77.3245
_cell_angle_gamma                 68.7791
loop_
_atom_site_label
_atom_site_type_symbol
_atom_site_fract_x
_atom_site_fract_y
_atom_site_fract_z
_atom_site_U_iso_or_equiv
_atom_site_adp_type
_atom_site_occupancy
Zn1    Zn    0.72055   0.86369   0.82821   0.01267  Uiso   1.00
Zn2    Zn    0.79628   0.43084   0.25622   0.01267  Uiso   1.00
Zn3    Zn    0.58755   0.36369   0.32821   0.01267  Uiso   1.00
Zn4    Zn    0.51666   0.93084   0.75622   0.01267  Uiso   1.00
H1     H     0.88140   0.04730   0.76050   0.01267  Uiso   1.00
H2     H     0.94100   0.15790   0.72050   0.01267  Uiso   1.00
H3     H     0.64120   0.25160   0.66460   0.01267  Uiso   1.00
H4     H     0.58440   0.13990   0.70510   0.01267  Uiso   1.00
H5     H     0.95720   0.29090   0.68510   0.01267  Uiso   1.00
H6     H     0.99870   0.22590   0.64390   0.01267  Uiso   1.00
H7     H     0.63470   0.70580   0.68720   0.01267  Uiso   1.00
H8     H     0.71560   0.57860   0.65300   0.01267  Uiso   1.00
H9     H     0.97170   0.50720   0.73400   0.01267  Uiso   1.00
H10    H     0.88820   0.63580   0.76820   0.01267  Uiso   1.00
H11    H     0.36340   0.22480   0.42980   0.01267  Uiso   1.00
H12    H     0.23380   0.20010   0.50010   0.01267  Uiso   1.00
H13    H     0.22680   0.40920   0.55060   0.01267  Uiso   1.00
H14    H     0.34840   0.43390   0.48090   0.01267  Uiso   1.00
H15    H     0.71990   0.34070   0.44190   0.01267  Uiso   1.00
H16    H     0.78150   0.32940   0.51480   0.01267  Uiso   1.00
H17    H     0.01380   0.44300   0.44940   0.01267  Uiso   1.00
H18    H     0.95430   0.45210   0.37610   0.01267  Uiso   1.00
H19    H     0.81900   0.34970   0.57950   0.01267  Uiso   1.00
H20    H     0.94200   0.27660   0.56500   0.01267  Uiso   1.00
H21    H     0.10410   0.34660   0.63200   0.01267  Uiso   1.00
H22    H     0.07230   0.40610   0.58430   0.01267  Uiso   1.00
H23    H     0.78410   0.43390   0.64530   0.01267  Uiso   1.00
H24    H     0.86110   0.47950   0.60650   0.01267  Uiso   1.00
H25    H     0.31080   0.54730   0.26050   0.01267  Uiso   1.00
H26    H     0.18060   0.65790   0.22050   0.01267  Uiso   1.00
H27    H     0.44260   0.75160   0.16460   0.01267  Uiso   1.00
H28    H     0.57060   0.63990   0.20510   0.01267  Uiso   1.00
H29    H     0.06680   0.79090   0.18510   0.01267  Uiso   1.00
H30    H     0.13150   0.72590   0.14390   0.01267  Uiso   1.00
H31    H     0.97230   0.20580   0.18720   0.01267  Uiso   1.00
H32    H     0.05280   0.07860   0.15300   0.01267  Uiso   1.00
H33    H     0.78710   0.00720   0.23400   0.01267  Uiso   1.00
H34    H     0.70780   0.13580   0.26820   0.01267  Uiso   1.00
H35    H     0.98200   0.72480   0.92980   0.01267  Uiso   1.00
H36    H     0.06600   0.70010   0.00010   0.01267  Uiso   1.00
H37    H     0.81340   0.90920   0.05060   0.01267  Uiso   1.00
H38    H     0.73680   0.93390   0.98090   0.01267  Uiso   1.00
H39    H     0.49750   0.84070   0.94190   0.01267  Uiso   1.00
H40    H     0.37430   0.82940   0.01480   0.01267  Uiso   1.00
H41    H     0.09380   0.94300   0.94940   0.01267  Uiso   1.00
H42    H     0.21750   0.95210   0.87610   0.01267  Uiso   1.00
H43    H     0.25180   0.84970   0.07950   0.01267  Uiso   1.00
H44    H     0.21640   0.77660   0.06500   0.01267  Uiso   1.00
H45    H     0.91730   0.84660   0.13200   0.01267  Uiso   1.00
H46    H     0.93730   0.90610   0.08430   0.01267  Uiso   1.00
H47    H     0.13670   0.93390   0.14530   0.01267  Uiso   1.00
H48    H     0.05290   0.97950   0.10650   0.01267  Uiso   1.00
C1     C     0.68892   0.01204   0.76132   0.01267  Uiso   1.00
C2     C     0.72669   0.08350   0.73692   0.01267  Uiso   1.00
C3     C     0.83280   0.08879   0.74101   0.01267  Uiso   1.00
C4     C     0.86915   0.15388   0.71702   0.01267  Uiso   1.00
C5     C     0.79800   0.21294   0.68786   0.01267  Uiso   1.00
C6     C     0.69051   0.20964   0.68374   0.01267  Uiso   1.00
C7     C     0.65669   0.14363   0.70819   0.01267  Uiso   1.00
C8     C     0.94081   0.27997   0.65461   0.01267  Uiso   1.00
C9     C     0.94636   0.35074   0.61554   0.01267  Uiso   1.00
C10    C     0.70518   0.76723   0.75161   0.01267  Uiso   1.00
C11    C     0.75430   0.68487   0.73053   0.01267  Uiso   1.00
C12    C     0.70366   0.66554   0.69654   0.01267  Uiso   1.00
C13    C     0.75114   0.59000   0.67632   0.01267  Uiso   1.00
C14    C     0.85028   0.53077   0.68987   0.01267  Uiso   1.00
C15    C     0.90318   0.54771   0.72453   0.01267  Uiso   1.00
C16    C     0.85376   0.62435   0.74453   0.01267  Uiso   1.00
C17    C     0.44941   0.35041   0.40297   0.01267  Uiso   1.00
C18    C     0.36659   0.33227   0.44855   0.01267  Uiso   1.00
C19    C     0.33407   0.26305   0.45441   0.01267  Uiso   1.00
C20    C     0.25747   0.24764   0.49642   0.01267  Uiso   1.00
C21    C     0.21825   0.30306   0.53184   0.01267  Uiso   1.00
C22    C     0.25338   0.37147   0.52577   0.01267  Uiso   1.00
C23    C     0.32589   0.38587   0.48455   0.01267  Uiso   1.00
C24    C     0.79330   0.40121   0.35479   0.01267  Uiso   1.00
C25    C     0.78000   0.36146   0.44334   0.01267  Uiso   1.00
C26    C     0.81563   0.35541   0.48673   0.01267  Uiso   1.00
C27    C     0.90145   0.38732   0.48938   0.01267  Uiso   1.00
C28    C     0.95357   0.42237   0.44789   0.01267  Uiso   1.00
C29    C     0.91832   0.42763   0.40433   0.01267  Uiso   1.00
C30    C     0.90503   0.33602   0.57232   0.01267  Uiso   1.00
C31    C     0.07204   0.35227   0.60225   0.01267  Uiso   1.00
C32    C     0.86424   0.43555   0.63337   0.01267  Uiso   1.00
C33    C     0.83136   0.39768   0.40140   0.01267  Uiso   1.00
C34    C     0.53772   0.51204   0.26132   0.01267  Uiso   1.00
C35    C     0.45289   0.58350   0.23692   0.01267  Uiso   1.00
C36    C     0.33740   0.58879   0.24101   0.01267  Uiso   1.00
C37    C     0.25995   0.65388   0.21702   0.01267  Uiso   1.00
C38    C     0.30120   0.71294   0.18786   0.01267  Uiso   1.00
C39    C     0.41611   0.70964   0.18374   0.01267  Uiso   1.00
C40    C     0.49149   0.64363   0.20819   0.01267  Uiso   1.00
C41    C     0.12461   0.77997   0.15461   0.01267  Uiso   1.00
C42    C     0.08736   0.85074   0.11554   0.01267  Uiso   1.00
C43    C     0.77598   0.26723   0.25161   0.01267  Uiso   1.00
C44    C     0.83030   0.18487   0.23053   0.01267  Uiso   1.00
C45    C     0.93426   0.16554   0.19654   0.01267  Uiso   1.00
C46    C     0.98254   0.09000   0.17632   0.01267  Uiso   1.00
C47    C     0.92908   0.03077   0.18987   0.01267  Uiso   1.00
C48    C     0.82458   0.04771   0.22453   0.01267  Uiso   1.00
C49    C     0.77736   0.12435   0.24453   0.01267  Uiso   1.00
C50    C     0.79721   0.85041   0.90297   0.01267  Uiso   1.00
C51    C     0.85259   0.83227   0.94855   0.01267  Uiso   1.00
C52    C     0.94847   0.76305   0.95441   0.01267  Uiso   1.00
C53    C     0.99847   0.74764   0.99642   0.01267  Uiso   1.00
C54    C     0.94685   0.80306   0.03184   0.01267  Uiso   1.00
C55    C     0.84938   0.87147   0.02577   0.01267  Uiso   1.00
C56    C     0.80369   0.88587   0.98455   0.01267  Uiso   1.00
C57    C     0.45070   0.90121   0.85479   0.01267  Uiso   1.00
C58    C     0.41520   0.86146   0.94334   0.01267  Uiso   1.00
C59    C     0.34223   0.85541   0.98673   0.01267  Uiso   1.00
C60    C     0.22185   0.88732   0.98938   0.01267  Uiso   1.00
C61    C     0.17617   0.92237   0.94789   0.01267  Uiso   1.00
C62    C     0.24972   0.92763   0.90433   0.01267  Uiso   1.00
C63    C     0.18663   0.83602   0.07232   0.01267  Uiso   1.00
C64    C     0.97344   0.85227   0.10225   0.01267  Uiso   1.00
C65    C     0.06684   0.93555   0.13337   0.01267  Uiso   1.00
C66    C     0.36956   0.89768   0.90140   0.01267  Uiso   1.00
O1     O     0.75908   0.78024   0.78040   0.01267  Uiso   1.00
O2     O     0.75241   0.95857   0.78853   0.01267  Uiso   1.00
O3     O     0.90734   0.45385   0.67165   0.01267  Uiso   1.00
O4     O     0.71847   0.36785   0.35495   0.01267  Uiso   1.00
O5     O     0.83929   0.43517   0.31763   0.01267  Uiso   1.00
O6     O     0.14338   0.28422   0.57262   0.01267  Uiso   1.00
O7     O     0.46456   0.41870   0.39758   0.01267  Uiso   1.00
O8     O     0.93712   0.38898   0.53122   0.01267  Uiso   1.00
O9     O     0.59390   0.01062   0.75318   0.01267  Uiso   1.00
O10    O     0.49797   0.29628   0.37338   0.01267  Uiso   1.00
O11    O     0.61230   0.82013   0.73807   0.01267  Uiso   1.00
O12    O     0.82437   0.27858   0.66142   0.01267  Uiso   1.00
O13    O     0.68028   0.28024   0.28040   0.01267  Uiso   1.00
O14    O     0.50049   0.45857   0.28853   0.01267  Uiso   1.00
O15    O     0.96716   0.95385   0.17165   0.01267  Uiso   1.00
O16    O     0.55873   0.86785   0.85495   0.01267  Uiso   1.00
O17    O     0.40791   0.93517   0.81763   0.01267  Uiso   1.00
O18    O     0.99978   0.78422   0.07262   0.01267  Uiso   1.00
O19    O     0.71916   0.91870   0.89758   0.01267  Uiso   1.00
O20    O     0.14268   0.88898   0.03122   0.01267  Uiso   1.00
O21    O     0.64230   0.51062   0.25318   0.01267  Uiso   1.00
O22    O     0.83237   0.79628   0.87338   0.01267  Uiso   1.00
O23    O     0.82950   0.32013   0.23807   0.01267  Uiso   1.00
O24    O     0.23563   0.77858   0.16142   0.01267  Uiso   1.00
Zn5    Zn    0.41245   0.63631   0.67179   0.01267  Uiso   1.00
Zn6    Zn    0.48334   0.06916   0.24378   0.01267  Uiso   1.00
Zn7    Zn    0.27945   0.13631   0.17179   0.01267  Uiso   1.00
Zn8    Zn    0.20372   0.56916   0.74378   0.01267  Uiso   1.00
H49    H     0.68920   0.45270   0.73950   0.01267  Uiso   1.00
H50    H     0.81940   0.34210   0.77950   0.01267  Uiso   1.00
H51    H     0.55740   0.24840   0.83540   0.01267  Uiso   1.00
H52    H     0.42940   0.36010   0.79490   0.01267  Uiso   1.00
H53    H     0.93320   0.20910   0.81490   0.01267  Uiso   1.00
H54    H     0.86850   0.27410   0.85610   0.01267  Uiso   1.00
H55    H     0.02770   0.79420   0.81280   0.01267  Uiso   1.00
H56    H     0.94720   0.92140   0.84700   0.01267  Uiso   1.00
H57    H     0.21290   0.99280   0.76600   0.01267  Uiso   1.00
H58    H     0.29220   0.86420   0.73180   0.01267  Uiso   1.00
H59    H     0.01800   0.27520   0.07020   0.01267  Uiso   1.00
H60    H     0.93400   0.29990   0.99990   0.01267  Uiso   1.00
H61    H     0.18660   0.09080   0.94940   0.01267  Uiso   1.00
H62    H     0.26320   0.06610   0.01910   0.01267  Uiso   1.00
H63    H     0.50250   0.15930   0.05810   0.01267  Uiso   1.00
H64    H     0.62570   0.17060   0.98520   0.01267  Uiso   1.00
H65    H     0.90620   0.05700   0.05060   0.01267  Uiso   1.00
H66    H     0.78250   0.04790   0.12390   0.01267  Uiso   1.00
H67    H     0.74820   0.15030   0.92050   0.01267  Uiso   1.00
H68    H     0.78360   0.22340   0.93500   0.01267  Uiso   1.00
H69    H     0.08270   0.15340   0.86800   0.01267  Uiso   1.00
H70    H     0.06270   0.09390   0.91570   0.01267  Uiso   1.00
H71    H     0.86330   0.06610   0.85470   0.01267  Uiso   1.00
H72    H     0.94710   0.02050   0.89350   0.01267  Uiso   1.00
H73    H     0.11860   0.95270   0.23950   0.01267  Uiso   1.00
H74    H     0.05900   0.84210   0.27950   0.01267  Uiso   1.00
H75    H     0.35880   0.74840   0.33540   0.01267  Uiso   1.00
H76    H     0.41560   0.86010   0.29490   0.01267  Uiso   1.00
H77    H     0.04280   0.70910   0.31490   0.01267  Uiso   1.00
H78    H     0.00130   0.77410   0.35610   0.01267  Uiso   1.00
H79    H     0.36530   0.29420   0.31280   0.01267  Uiso   1.00
H80    H     0.28440   0.42140   0.34700   0.01267  Uiso   1.00
H81    H     0.02830   0.49280   0.26600   0.01267  Uiso   1.00
H82    H     0.11180   0.36420   0.23180   0.01267  Uiso   1.00
H83    H     0.63660   0.77520   0.57020   0.01267  Uiso   1.00
H84    H     0.76620   0.79990   0.49990   0.01267  Uiso   1.00
H85    H     0.77320   0.59080   0.44940   0.01267  Uiso   1.00
H86    H     0.65160   0.56610   0.51910   0.01267  Uiso   1.00
H87    H     0.28010   0.65930   0.55810   0.01267  Uiso   1.00
H88    H     0.21850   0.67060   0.48520   0.01267  Uiso   1.00
H89    H     0.98620   0.55700   0.55060   0.01267  Uiso   1.00
H90    H     0.04570   0.54790   0.62390   0.01267  Uiso   1.00
H91    H     0.18100   0.65030   0.42050   0.01267  Uiso   1.00
H92    H     0.05800   0.72340   0.43500   0.01267  Uiso   1.00
H93    H     0.89590   0.65340   0.36800   0.01267  Uiso   1.00
H94    H     0.92770   0.59390   0.41570   0.01267  Uiso   1.00
H95    H     0.21590   0.56610   0.35470   0.01267  Uiso   1.00
H96    H     0.13890   0.52050   0.39350   0.01267  Uiso   1.00
C67    C     0.46228   0.48796   0.73868   0.01267  Uiso   1.00
C68    C     0.54711   0.41650   0.76308   0.01267  Uiso   1.00
C69    C     0.66260   0.41121   0.75899   0.01267  Uiso   1.00
C70    C     0.74005   0.34612   0.78298   0.01267  Uiso   1.00
C71    C     0.69880   0.28706   0.81214   0.01267  Uiso   1.00
C72    C     0.58389   0.29036   0.81626   0.01267  Uiso   1.00
C73    C     0.50851   0.35637   0.79181   0.01267  Uiso   1.00
C74    C     0.87539   0.22003   0.84539   0.01267  Uiso   1.00
C75    C     0.91264   0.14926   0.88446   0.01267  Uiso   1.00
C76    C     0.22402   0.73277   0.74839   0.01267  Uiso   1.00
C77    C     0.16970   0.81513   0.76947   0.01267  Uiso   1.00
C78    C     0.06574   0.83446   0.80346   0.01267  Uiso   1.00
C79    C     0.01746   0.91000   0.82368   0.01267  Uiso   1.00
C80    C     0.07092   0.96923   0.81013   0.01267  Uiso   1.00
C81    C     0.17542   0.95229   0.77547   0.01267  Uiso   1.00
C82    C     0.22264   0.87565   0.75547   0.01267  Uiso   1.00
C83    C     0.20279   0.14959   0.09703   0.01267  Uiso   1.00
C84    C     0.14741   0.16773   0.05145   0.01267  Uiso   1.00
C85    C     0.05153   0.23695   0.04559   0.01267  Uiso   1.00
C86    C     0.00153   0.25236   0.00358   0.01267  Uiso   1.00
C87    C     0.05315   0.19694   0.96816   0.01267  Uiso   1.00
C88    C     0.15062   0.12853   0.97423   0.01267  Uiso   1.00
C89    C     0.19631   0.11413   0.01545   0.01267  Uiso   1.00
C90    C     0.54930   0.09879   0.14521   0.01267  Uiso   1.00
C91    C     0.58480   0.13854   0.05666   0.01267  Uiso   1.00
C92    C     0.65777   0.14459   0.01327   0.01267  Uiso   1.00
C93    C     0.77815   0.11268   0.01062   0.01267  Uiso   1.00
C94    C     0.82383   0.07763   0.05211   0.01267  Uiso   1.00
C95    C     0.75028   0.07237   0.09567   0.01267  Uiso   1.00
C96    C     0.81337   0.16398   0.92768   0.01267  Uiso   1.00
C97    C     0.02656   0.14773   0.89775   0.01267  Uiso   1.00
C98    C     0.93316   0.06445   0.86663   0.01267  Uiso   1.00
C99    C     0.63044   0.10232   0.09860   0.01267  Uiso   1.00
C100   C     0.31108   0.98796   0.23868   0.01267  Uiso   1.00
C101   C     0.27331   0.91650   0.26308   0.01267  Uiso   1.00
C102   C     0.16720   0.91121   0.25899   0.01267  Uiso   1.00
C103   C     0.13085   0.84612   0.28298   0.01267  Uiso   1.00
C104   C     0.20200   0.78706   0.31214   0.01267  Uiso   1.00
C105   C     0.30949   0.79036   0.31626   0.01267  Uiso   1.00
C106   C     0.34331   0.85637   0.29181   0.01267  Uiso   1.00
C107   C     0.05919   0.72003   0.34539   0.01267  Uiso   1.00
C108   C     0.05364   0.64926   0.38446   0.01267  Uiso   1.00
C109   C     0.29482   0.23277   0.24839   0.01267  Uiso   1.00
C110   C     0.24570   0.31513   0.26947   0.01267  Uiso   1.00
C111   C     0.29634   0.33446   0.30346   0.01267  Uiso   1.00
C112   C     0.24886   0.41000   0.32368   0.01267  Uiso   1.00
C113   C     0.14972   0.46923   0.31013   0.01267  Uiso   1.00
C114   C     0.09682   0.45229   0.27547   0.01267  Uiso   1.00
C115   C     0.14624   0.37565   0.25547   0.01267  Uiso   1.00
C116   C     0.55059   0.64959   0.59703   0.01267  Uiso   1.00
C117   C     0.63341   0.66773   0.55145   0.01267  Uiso   1.00
C118   C     0.66593   0.73695   0.54559   0.01267  Uiso   1.00
C119   C     0.74253   0.75236   0.50358   0.01267  Uiso   1.00
C120   C     0.78175   0.69694   0.46816   0.01267  Uiso   1.00
C121   C     0.74662   0.62853   0.47423   0.01267  Uiso   1.00
C122   C     0.67411   0.61413   0.51545   0.01267  Uiso   1.00
C123   C     0.20670   0.59879   0.64521   0.01267  Uiso   1.00
C124   C     0.22000   0.63854   0.55666   0.01267  Uiso   1.00
C125   C     0.18437   0.64459   0.51327   0.01267  Uiso   1.00
C126   C     0.09855   0.61268   0.51062   0.01267  Uiso   1.00
C127   C     0.04643   0.57763   0.55211   0.01267  Uiso   1.00
C128   C     0.08168   0.57237   0.59567   0.01267  Uiso   1.00
C129   C     0.09497   0.66398   0.42768   0.01267  Uiso   1.00
C130   C     0.92796   0.64773   0.39775   0.01267  Uiso   1.00
C131   C     0.13576   0.56445   0.36663   0.01267  Uiso   1.00
C132   C     0.16864   0.60232   0.59860   0.01267  Uiso   1.00
O25    O     0.31972   0.71976   0.71960   0.01267  Uiso   1.00
O26    O     0.49951   0.54143   0.71147   0.01267  Uiso   1.00
O27    O     0.03284   0.04615   0.82835   0.01267  Uiso   1.00
O28    O     0.44127   0.13215   0.14505   0.01267  Uiso   1.00
O29    O     0.59209   0.06483   0.18237   0.01267  Uiso   1.00
O30    O     0.00022   0.21578   0.92738   0.01267  Uiso   1.00
O31    O     0.28084   0.08130   0.10242   0.01267  Uiso   1.00
O32    O     0.85732   0.11102   0.96878   0.01267  Uiso   1.00
O33    O     0.35770   0.48938   0.74682   0.01267  Uiso   1.00
O34    O     0.16763   0.20372   0.12662   0.01267  Uiso   1.00
O35    O     0.17050   0.67987   0.76193   0.01267  Uiso   1.00
O36    O     0.76437   0.22142   0.83858   0.01267  Uiso   1.00
O37    O     0.24092   0.21976   0.21960   0.01267  Uiso   1.00
O38    O     0.24759   0.04143   0.21147   0.01267  Uiso   1.00
O39    O     0.09266   0.54615   0.32835   0.01267  Uiso   1.00
O40    O     0.28153   0.63215   0.64505   0.01267  Uiso   1.00
O41    O     0.16071   0.56483   0.68237   0.01267  Uiso   1.00
O42    O     0.85662   0.71578   0.42738   0.01267  Uiso   1.00
O43    O     0.53544   0.58130   0.60242   0.01267  Uiso   1.00
O44    O     0.06288   0.61102   0.46878   0.01267  Uiso   1.00
O45    O     0.40610   0.98938   0.24682   0.01267  Uiso   1.00
O46    O     0.50203   0.70372   0.62662   0.01267  Uiso   1.00
O47    O     0.38770   0.17987   0.26193   0.01267  Uiso   1.00
O48    O     0.17563   0.72142   0.33858   0.01267  Uiso   1.00
