data_PURJES_clean
_audit_creation_date              2014-07-02
_audit_creation_method            'Materials Studio'
_symmetry_space_group_name_H-M    'P1'
_symmetry_Int_Tables_number       1
_symmetry_cell_setting            triclinic
loop_
_symmetry_equiv_pos_as_xyz
  x,y,z
_cell_length_a                    6.9314
_cell_length_b                    12.3820
_cell_length_c                    27.7380
_cell_angle_alpha                 96.6410
_cell_angle_beta                  91.2310
_cell_angle_gamma                 104.2210
loop_
_atom_site_label
_atom_site_type_symbol
_atom_site_fract_x
_atom_site_fract_y
_atom_site_fract_z
_atom_site_U_iso_or_equiv
_atom_site_adp_type
_atom_site_occupancy
Zn1    Zn    0.29653   0.42769   0.49637   0.01267  Uiso   1.00
Zn2    Zn    0.01110   0.63517   0.99101   0.01267  Uiso   1.00
Zn3    Zn    0.70347   0.57231   0.50363   0.01267  Uiso   1.00
Zn4    Zn    0.98890   0.36483   0.00899   0.01267  Uiso   1.00
H1     H     0.95390   0.38430   0.60240   0.01267  Uiso   1.00
H2     H     0.04010   0.27570   0.65880   0.01267  Uiso   1.00
H3     H     0.46080   0.10950   0.66020   0.01267  Uiso   1.00
H4     H     0.37760   0.21390   0.60330   0.01267  Uiso   1.00
H5     H     0.09140   0.13990   0.69820   0.01267  Uiso   1.00
H6     H     0.01360   0.21200   0.74200   0.01267  Uiso   1.00
H7     H     0.91050   0.91810   0.69560   0.01267  Uiso   1.00
H8     H     0.97990   0.87540   0.74390   0.01267  Uiso   1.00
H9     H     0.53810   0.93830   0.68000   0.01267  Uiso   1.00
H10    H     0.62280   0.80830   0.62280   0.01267  Uiso   1.00
H11    H     0.04980   0.62910   0.60860   0.01267  Uiso   1.00
H12    H     0.96310   0.76070   0.66450   0.01267  Uiso   1.00
H13    H     0.29630   0.12030   0.77220   0.01267  Uiso   1.00
H14    H     0.19850   0.03080   0.80800   0.01267  Uiso   1.00
H15    H     0.12490   0.35520   0.87730   0.01267  Uiso   1.00
H16    H     0.38240   0.47660   0.92750   0.01267  Uiso   1.00
H17    H     0.74280   0.27140   0.89310   0.01267  Uiso   1.00
H18    H     0.48930   0.15210   0.84080   0.01267  Uiso   1.00
H19    H     0.68530   0.98080   0.75880   0.01267  Uiso   1.00
H20    H     0.77430   0.08670   0.79910   0.01267  Uiso   1.00
H21    H     0.44700   0.93550   0.80750   0.01267  Uiso   1.00
H22    H     0.19750   0.83850   0.85310   0.01267  Uiso   1.00
H23    H     0.60480   0.71420   0.92040   0.01267  Uiso   1.00
H24    H     0.84920   0.80540   0.87280   0.01267  Uiso   1.00
H25    H     0.04610   0.61570   0.39760   0.01267  Uiso   1.00
H26    H     0.95990   0.72430   0.34120   0.01267  Uiso   1.00
H27    H     0.53920   0.89050   0.33980   0.01267  Uiso   1.00
H28    H     0.62240   0.78610   0.39670   0.01267  Uiso   1.00
H29    H     0.90860   0.86010   0.30180   0.01267  Uiso   1.00
H30    H     0.98640   0.78800   0.25800   0.01267  Uiso   1.00
H31    H     0.08950   0.08190   0.30440   0.01267  Uiso   1.00
H32    H     0.02010   0.12460   0.25610   0.01267  Uiso   1.00
H33    H     0.46190   0.06170   0.32000   0.01267  Uiso   1.00
H34    H     0.37720   0.19170   0.37720   0.01267  Uiso   1.00
H35    H     0.95020   0.37090   0.39140   0.01267  Uiso   1.00
H36    H     0.03690   0.23930   0.33550   0.01267  Uiso   1.00
H37    H     0.70370   0.87970   0.22780   0.01267  Uiso   1.00
H38    H     0.80150   0.96920   0.19200   0.01267  Uiso   1.00
H39    H     0.87510   0.64480   0.12270   0.01267  Uiso   1.00
H40    H     0.61760   0.52340   0.07250   0.01267  Uiso   1.00
H41    H     0.25720   0.72860   0.10690   0.01267  Uiso   1.00
H42    H     0.51070   0.84790   0.15920   0.01267  Uiso   1.00
H43    H     0.31470   0.01920   0.24120   0.01267  Uiso   1.00
H44    H     0.22570   0.91330   0.20090   0.01267  Uiso   1.00
H45    H     0.55300   0.06450   0.19250   0.01267  Uiso   1.00
H46    H     0.80250   0.16150   0.14690   0.01267  Uiso   1.00
H47    H     0.39520   0.28580   0.07960   0.01267  Uiso   1.00
H48    H     0.15080   0.19460   0.12720   0.01267  Uiso   1.00
C1     C     0.60180   0.37840   0.56060   0.01267  Uiso   1.00
C2     C     0.65690   0.30990   0.59660   0.01267  Uiso   1.00
C3     C     0.85330   0.32750   0.61380   0.01267  Uiso   1.00
C4     C     0.90500   0.26350   0.64770   0.01267  Uiso   1.00
C5     C     0.76000   0.18290   0.66470   0.01267  Uiso   1.00
C6     C     0.56170   0.16510   0.64810   0.01267  Uiso   1.00
C7     C     0.51270   0.22720   0.61460   0.01267  Uiso   1.00
C8     C     0.98670   0.13770   0.72200   0.01267  Uiso   1.00
C9     C     0.98810   0.04730   0.75400   0.01267  Uiso   1.00
C10    C     0.00860   0.93770   0.72370   0.01267  Uiso   1.00
C11    C     0.23950   0.86360   0.67630   0.01267  Uiso   1.00
C12    C     0.43790   0.87620   0.66470   0.01267  Uiso   1.00
C13    C     0.48780   0.79830   0.63110   0.01267  Uiso   1.00
C14    C     0.34760   0.70670   0.60930   0.01267  Uiso   1.00
C15    C     0.14910   0.69300   0.62270   0.01267  Uiso   1.00
C16    C     0.09750   0.77090   0.65580   0.01267  Uiso   1.00
C17    C     0.40220   0.62590   0.57040   0.01267  Uiso   1.00
C18    C     0.17600   0.09160   0.79010   0.01267  Uiso   1.00
C19    C     0.29040   0.24650   0.85280   0.01267  Uiso   1.00
C20    C     0.25220   0.33980   0.87970   0.01267  Uiso   1.00
C21    C     0.40450   0.41020   0.91030   0.01267  Uiso   1.00
C22    C     0.58400   0.38660   0.91610   0.01267  Uiso   1.00
C23    C     0.61770   0.28900   0.88950   0.01267  Uiso   1.00
C24    C     0.46830   0.21860   0.85820   0.01267  Uiso   1.00
C25    C     0.75500   0.46270   0.94730   0.01267  Uiso   1.00
C26    C     0.80080   0.01800   0.78150   0.01267  Uiso   1.00
C27    C     0.67110   0.88440   0.83800   0.01267  Uiso   1.00
C28    C     0.47900   0.89150   0.83090   0.01267  Uiso   1.00
C29    C     0.33110   0.83390   0.85810   0.01267  Uiso   1.00
C30    C     0.37640   0.77000   0.89250   0.01267  Uiso   1.00
C31    C     0.57240   0.75960   0.89770   0.01267  Uiso   1.00
C32    C     0.71760   0.81470   0.87000   0.01267  Uiso   1.00
C33    C     0.22220   0.71850   0.92580   0.01267  Uiso   1.00
C34    C     0.39820   0.62160   0.43940   0.01267  Uiso   1.00
C35    C     0.34310   0.69010   0.40340   0.01267  Uiso   1.00
C36    C     0.14670   0.67250   0.38620   0.01267  Uiso   1.00
C37    C     0.09500   0.73650   0.35230   0.01267  Uiso   1.00
C38    C     0.24000   0.81710   0.33530   0.01267  Uiso   1.00
C39    C     0.43830   0.83490   0.35190   0.01267  Uiso   1.00
C40    C     0.48730   0.77280   0.38540   0.01267  Uiso   1.00
C41    C     0.01330   0.86230   0.27800   0.01267  Uiso   1.00
C42    C     0.01190   0.95270   0.24600   0.01267  Uiso   1.00
C43    C     0.99140   0.06230   0.27630   0.01267  Uiso   1.00
C44    C     0.76050   0.13640   0.32370   0.01267  Uiso   1.00
C45    C     0.56210   0.12380   0.33530   0.01267  Uiso   1.00
C46    C     0.51220   0.20170   0.36890   0.01267  Uiso   1.00
C47    C     0.65240   0.29330   0.39070   0.01267  Uiso   1.00
C48    C     0.85090   0.30700   0.37730   0.01267  Uiso   1.00
C49    C     0.90250   0.22910   0.34420   0.01267  Uiso   1.00
C50    C     0.59780   0.37410   0.42960   0.01267  Uiso   1.00
C51    C     0.82400   0.90840   0.20990   0.01267  Uiso   1.00
C52    C     0.70960   0.75350   0.14720   0.01267  Uiso   1.00
C53    C     0.74780   0.66020   0.12030   0.01267  Uiso   1.00
C54    C     0.59550   0.58980   0.08970   0.01267  Uiso   1.00
C55    C     0.41600   0.61340   0.08390   0.01267  Uiso   1.00
C56    C     0.38230   0.71100   0.11050   0.01267  Uiso   1.00
C57    C     0.53170   0.78140   0.14180   0.01267  Uiso   1.00
C58    C     0.24500   0.53730   0.05270   0.01267  Uiso   1.00
C59    C     0.19920   0.98200   0.21850   0.01267  Uiso   1.00
C60    C     0.32890   0.11560   0.16200   0.01267  Uiso   1.00
C61    C     0.52100   0.10850   0.16910   0.01267  Uiso   1.00
C62    C     0.66890   0.16610   0.14190   0.01267  Uiso   1.00
C63    C     0.62360   0.23000   0.10750   0.01267  Uiso   1.00
C64    C     0.42760   0.24040   0.10230   0.01267  Uiso   1.00
C65    C     0.28240   0.18530   0.13000   0.01267  Uiso   1.00
C66    C     0.77780   0.28150   0.07420   0.01267  Uiso   1.00
O1     O     0.42610   0.35370   0.54440   0.01267  Uiso   1.00
O2     O     0.73260   0.45680   0.54810   0.01267  Uiso   1.00
O3     O     0.79380   0.11270   0.69720   0.01267  Uiso   1.00
O4     O     0.20430   0.95170   0.70680   0.01267  Uiso   1.00
O5     O     0.27200   0.54600   0.55250   0.01267  Uiso   1.00
O6     O     0.58070   0.65000   0.55820   0.01267  Uiso   1.00
O7     O     0.13380   0.18080   0.82320   0.01267  Uiso   1.00
O8     O     0.73170   0.55300   0.96740   0.01267  Uiso   1.00
O9     O     0.91940   0.43330   0.95070   0.01267  Uiso   1.00
O10    O     0.83230   0.94310   0.81540   0.01267  Uiso   1.00
O11    O     0.04570   0.71680   0.91790   0.01267  Uiso   1.00
O12    O     0.27830   0.67720   0.96210   0.01267  Uiso   1.00
O13    O     0.57390   0.64630   0.45560   0.01267  Uiso   1.00
O14    O     0.26740   0.54320   0.45190   0.01267  Uiso   1.00
O15    O     0.20620   0.88730   0.30280   0.01267  Uiso   1.00
O16    O     0.79570   0.04830   0.29320   0.01267  Uiso   1.00
O17    O     0.72800   0.45400   0.44750   0.01267  Uiso   1.00
O18    O     0.41930   0.35000   0.44180   0.01267  Uiso   1.00
O19    O     0.86620   0.81920   0.17680   0.01267  Uiso   1.00
O20    O     0.26830   0.44700   0.03260   0.01267  Uiso   1.00
O21    O     0.08060   0.56670   0.04930   0.01267  Uiso   1.00
O22    O     0.16770   0.05690   0.18460   0.01267  Uiso   1.00
O23    O     0.95430   0.28320   0.08210   0.01267  Uiso   1.00
O24    O     0.72170   0.32280   0.03790   0.01267  Uiso   1.00
