data_image0
_cell_length_a       24.6803
_cell_length_b       10.5966
_cell_length_c       19.9825
_cell_angle_alpha    90
_cell_angle_beta     99.515
_cell_angle_gamma    90

_symmetry_space_group_name_H-M    "P 1"
_symmetry_int_tables_number       1

loop_
  _symmetry_equiv_pos_as_xyz
  'x, y, z'

loop_
  _atom_site_label
  _atom_site_occupancy
  _atom_site_fract_x
  _atom_site_fract_y
  _atom_site_fract_z
  _atom_site_thermal_displace_type
  _atom_site_B_iso_or_equiv
  _atom_site_type_symbol
  W1       1.0000 0.39665  0.77149  0.71032  Biso   1.000  W
  W2       1.0000 0.38151  0.98954  0.82811  Biso   1.000  W
  W3       1.0000 0.48530  0.24111  0.86776  Biso   1.000  W
  W4       1.0000 0.39832  0.22945  0.69858  Biso   1.000  W
  W5       1.0000 0.47565  0.75997  0.86331  Biso   1.000  W
  W6       1.0000 0.42312  0.01187  0.58521  Biso   1.000  W
  O1       1.0000 0.45580  0.90770  0.77820  Biso   1.000  O
  O2       1.0000 0.37570  0.13890  0.61720  Biso   1.000  O
  O3       1.0000 0.52980  0.08700  0.81030  Biso   1.000  O
  O4       1.0000 0.54900  0.31470  0.84740  Biso   1.000  O
  O5       1.0000 0.35130  0.85810  0.76130  Biso   1.000  O
  O6       1.0000 0.37270  0.10230  0.75070  Biso   1.000  O
  O7       1.0000 0.53680  0.72180  0.82140  Biso   1.000  O
  O8       1.0000 0.42710  0.68140  0.79360  Biso   1.000  O
  O9       1.0000 0.46830  0.14190  0.56310  Biso   1.000  O
  O10      1.0000 0.41300  0.85370  0.88410  Biso   1.000  O
  O11      1.0000 0.44430  0.27830  0.78230  Biso   1.000  O
  O12      1.0000 0.52000  0.89170  0.90860  Biso   1.000  O
  O13      1.0000 0.43180  0.10840  0.87220  Biso   1.000  O
  O14      1.0000 0.39100  0.89580  0.64540  Biso   1.000  O
  O15      1.0000 0.46420  0.35510  0.92050  Biso   1.000  O
  O16      1.0000 0.48030  0.64540  0.92400  Biso   1.000  O
  N1       1.0000 0.57300  0.47560  0.98030  Biso   1.000  N
  C1       1.0000 0.60680  0.37230  0.99680  Biso   1.000  C
  H1       1.0000 0.59790  0.29950  0.01860  Biso   1.000  H
  N2       1.0000 0.65620  0.39610  0.97510  Biso   1.000  N
  C2       1.0000 0.65290  0.51410  0.94510  Biso   1.000  C
  H2       1.0000 0.68040  0.55350  0.92620  Biso   1.000  H
  C3       1.0000 0.60150  0.56320  0.94830  Biso   1.000  C
  H3       1.0000 0.58840  0.64150  0.93190  Biso   1.000  H
  C4       1.0000 0.70990  0.23280  0.03960  Biso   1.000  C
  H4       1.0000 0.68270  0.22170  0.06620  Biso   1.000  H
  C5       1.0000 0.70280  0.32050  0.98780  Biso   1.000  C
  C6       1.0000 0.74290  0.33800  0.94800  Biso   1.000  C
  H5       1.0000 0.73800  0.39770  0.91330  Biso   1.000  H
  W7       1.0000 0.89665  0.27149  0.71032  Biso   1.000  W
  W8       1.0000 0.88151  0.48954  0.82811  Biso   1.000  W
  W9       1.0000 0.98530  0.74111  0.86776  Biso   1.000  W
  W10      1.0000 0.89832  0.72945  0.69858  Biso   1.000  W
  W11      1.0000 0.97565  0.25997  0.86331  Biso   1.000  W
  W12      1.0000 0.92312  0.51187  0.58521  Biso   1.000  W
  O17      1.0000 0.95580  0.40770  0.77820  Biso   1.000  O
  O18      1.0000 0.87570  0.63890  0.61720  Biso   1.000  O
  O19      1.0000 0.02980  0.58700  0.81030  Biso   1.000  O
  O20      1.0000 0.04900  0.81470  0.84740  Biso   1.000  O
  O21      1.0000 0.85130  0.35810  0.76130  Biso   1.000  O
  O22      1.0000 0.87270  0.60230  0.75070  Biso   1.000  O
  O23      1.0000 0.03680  0.22180  0.82140  Biso   1.000  O
  O24      1.0000 0.92710  0.18140  0.79360  Biso   1.000  O
  O25      1.0000 0.96830  0.64190  0.56310  Biso   1.000  O
  O26      1.0000 0.91300  0.35370  0.88410  Biso   1.000  O
  O27      1.0000 0.94430  0.77830  0.78230  Biso   1.000  O
  O28      1.0000 0.02000  0.39170  0.90860  Biso   1.000  O
  O29      1.0000 0.93180  0.60840  0.87220  Biso   1.000  O
  O30      1.0000 0.89100  0.39580  0.64540  Biso   1.000  O
  O31      1.0000 0.96420  0.85510  0.92050  Biso   1.000  O
  O32      1.0000 0.98030  0.14540  0.92400  Biso   1.000  O
  N3       1.0000 0.07300  0.97560  0.98030  Biso   1.000  N
  C7       1.0000 0.10680  0.87230  0.99680  Biso   1.000  C
  H6       1.0000 0.09790  0.79950  0.01860  Biso   1.000  H
  N4       1.0000 0.15620  0.89610  0.97510  Biso   1.000  N
  C8       1.0000 0.15290  0.01410  0.94510  Biso   1.000  C
  H7       1.0000 0.18040  0.05350  0.92620  Biso   1.000  H
  C9       1.0000 0.10150  0.06320  0.94830  Biso   1.000  C
  H8       1.0000 0.08840  0.14150  0.93190  Biso   1.000  H
  C10      1.0000 0.20990  0.73280  0.03960  Biso   1.000  C
  H9       1.0000 0.18270  0.72170  0.06620  Biso   1.000  H
  C11      1.0000 0.20280  0.82050  0.98780  Biso   1.000  C
  C12      1.0000 0.24290  0.83800  0.94800  Biso   1.000  C
  H10      1.0000 0.23800  0.89770  0.91330  Biso   1.000  H
  W13      1.0000 0.60335  0.77149  0.78968  Biso   1.000  W
  W14      1.0000 0.61849  0.98954  0.67189  Biso   1.000  W
  W15      1.0000 0.51470  0.24111  0.63224  Biso   1.000  W
  W16      1.0000 0.60168  0.22945  0.80142  Biso   1.000  W
  W17      1.0000 0.52435  0.75997  0.63669  Biso   1.000  W
  W18      1.0000 0.57688  0.01187  0.91479  Biso   1.000  W
  O33      1.0000 0.54420  0.90770  0.72180  Biso   1.000  O
  O34      1.0000 0.62430  0.13890  0.88280  Biso   1.000  O
  O35      1.0000 0.47020  0.08700  0.68970  Biso   1.000  O
  O36      1.0000 0.45100  0.31470  0.65260  Biso   1.000  O
  O37      1.0000 0.64870  0.85810  0.73870  Biso   1.000  O
  O38      1.0000 0.62730  0.10230  0.74930  Biso   1.000  O
  O39      1.0000 0.46320  0.72180  0.67860  Biso   1.000  O
  O40      1.0000 0.57290  0.68140  0.70640  Biso   1.000  O
  O41      1.0000 0.53170  0.14190  0.93690  Biso   1.000  O
  O42      1.0000 0.58700  0.85370  0.61590  Biso   1.000  O
  O43      1.0000 0.55570  0.27830  0.71770  Biso   1.000  O
  O44      1.0000 0.48000  0.89170  0.59140  Biso   1.000  O
  O45      1.0000 0.56820  0.10840  0.62780  Biso   1.000  O
  O46      1.0000 0.60900  0.89580  0.85460  Biso   1.000  O
  O47      1.0000 0.53580  0.35510  0.57950  Biso   1.000  O
  O48      1.0000 0.51970  0.64540  0.57600  Biso   1.000  O
  N5       1.0000 0.42700  0.47560  0.51970  Biso   1.000  N
  C13      1.0000 0.39320  0.37230  0.50320  Biso   1.000  C
  H11      1.0000 0.40210  0.29950  0.48140  Biso   1.000  H
  N6       1.0000 0.34380  0.39610  0.52490  Biso   1.000  N
  C14      1.0000 0.34710  0.51410  0.55490  Biso   1.000  C
  H12      1.0000 0.31960  0.55350  0.57380  Biso   1.000  H
  C15      1.0000 0.39850  0.56320  0.55170  Biso   1.000  C
  H13      1.0000 0.41160  0.64150  0.56810  Biso   1.000  H
  C16      1.0000 0.29010  0.23280  0.46040  Biso   1.000  C
  H14      1.0000 0.31730  0.22170  0.43380  Biso   1.000  H
  C17      1.0000 0.29720  0.32050  0.51220  Biso   1.000  C
  C18      1.0000 0.25710  0.33800  0.55200  Biso   1.000  C
  H15      1.0000 0.26200  0.39770  0.58670  Biso   1.000  H
  W19      1.0000 0.10335  0.27149  0.78968  Biso   1.000  W
  W20      1.0000 0.11849  0.48954  0.67189  Biso   1.000  W
  W21      1.0000 0.01470  0.74111  0.63224  Biso   1.000  W
  W22      1.0000 0.10168  0.72945  0.80142  Biso   1.000  W
  W23      1.0000 0.02435  0.25997  0.63669  Biso   1.000  W
  W24      1.0000 0.07688  0.51187  0.91479  Biso   1.000  W
  O49      1.0000 0.04420  0.40770  0.72180  Biso   1.000  O
  O50      1.0000 0.12430  0.63890  0.88280  Biso   1.000  O
  O51      1.0000 0.97020  0.58700  0.68970  Biso   1.000  O
  O52      1.0000 0.95100  0.81470  0.65260  Biso   1.000  O
  O53      1.0000 0.14870  0.35810  0.73870  Biso   1.000  O
  O54      1.0000 0.12730  0.60230  0.74930  Biso   1.000  O
  O55      1.0000 0.96320  0.22180  0.67860  Biso   1.000  O
  O56      1.0000 0.07290  0.18140  0.70640  Biso   1.000  O
  O57      1.0000 0.03170  0.64190  0.93690  Biso   1.000  O
  O58      1.0000 0.08700  0.35370  0.61590  Biso   1.000  O
  O59      1.0000 0.05570  0.77830  0.71770  Biso   1.000  O
  O60      1.0000 0.98000  0.39170  0.59140  Biso   1.000  O
  O61      1.0000 0.06820  0.60840  0.62780  Biso   1.000  O
  O62      1.0000 0.10900  0.39580  0.85460  Biso   1.000  O
  O63      1.0000 0.03580  0.85510  0.57950  Biso   1.000  O
  O64      1.0000 0.01970  0.14540  0.57600  Biso   1.000  O
  N7       1.0000 0.92700  0.97560  0.51970  Biso   1.000  N
  C19      1.0000 0.89320  0.87230  0.50320  Biso   1.000  C
  H16      1.0000 0.90210  0.79950  0.48140  Biso   1.000  H
  N8       1.0000 0.84380  0.89610  0.52490  Biso   1.000  N
  C20      1.0000 0.84710  0.01410  0.55490  Biso   1.000  C
  H17      1.0000 0.81960  0.05350  0.57380  Biso   1.000  H
  C21      1.0000 0.89850  0.06320  0.55170  Biso   1.000  C
  H18      1.0000 0.91160  0.14150  0.56810  Biso   1.000  H
  C22      1.0000 0.79010  0.73280  0.46040  Biso   1.000  C
  H19      1.0000 0.81730  0.72170  0.43380  Biso   1.000  H
  C23      1.0000 0.79720  0.82050  0.51220  Biso   1.000  C
  C24      1.0000 0.75710  0.83800  0.55200  Biso   1.000  C
  H20      1.0000 0.76200  0.89770  0.58670  Biso   1.000  H
  W25      1.0000 0.60335  0.22851  0.28968  Biso   1.000  W
  W26      1.0000 0.61849  0.01046  0.17189  Biso   1.000  W
  W27      1.0000 0.51470  0.75889  0.13224  Biso   1.000  W
  W28      1.0000 0.60168  0.77055  0.30142  Biso   1.000  W
  W29      1.0000 0.52435  0.24003  0.13669  Biso   1.000  W
  W30      1.0000 0.57688  0.98813  0.41479  Biso   1.000  W
  O65      1.0000 0.54420  0.09230  0.22180  Biso   1.000  O
  O66      1.0000 0.62430  0.86110  0.38280  Biso   1.000  O
  O67      1.0000 0.47020  0.91300  0.18970  Biso   1.000  O
  O68      1.0000 0.45100  0.68530  0.15260  Biso   1.000  O
  O69      1.0000 0.64870  0.14190  0.23870  Biso   1.000  O
  O70      1.0000 0.62730  0.89770  0.24930  Biso   1.000  O
  O71      1.0000 0.46320  0.27820  0.17860  Biso   1.000  O
  O72      1.0000 0.57290  0.31860  0.20640  Biso   1.000  O
  O73      1.0000 0.53170  0.85810  0.43690  Biso   1.000  O
  O74      1.0000 0.58700  0.14630  0.11590  Biso   1.000  O
  O75      1.0000 0.55570  0.72170  0.21770  Biso   1.000  O
  O76      1.0000 0.48000  0.10830  0.09140  Biso   1.000  O
  O77      1.0000 0.56820  0.89160  0.12780  Biso   1.000  O
  O78      1.0000 0.60900  0.10420  0.35460  Biso   1.000  O
  O79      1.0000 0.53580  0.64490  0.07950  Biso   1.000  O
  O80      1.0000 0.51970  0.35460  0.07600  Biso   1.000  O
  N9       1.0000 0.42700  0.52440  0.01970  Biso   1.000  N
  C25      1.0000 0.39320  0.62770  0.00320  Biso   1.000  C
  H21      1.0000 0.40210  0.70050  0.98140  Biso   1.000  H
  N10      1.0000 0.34380  0.60390  0.02490  Biso   1.000  N
  C26      1.0000 0.34710  0.48590  0.05490  Biso   1.000  C
  H22      1.0000 0.31960  0.44650  0.07380  Biso   1.000  H
  C27      1.0000 0.39850  0.43680  0.05170  Biso   1.000  C
  H23      1.0000 0.41160  0.35850  0.06810  Biso   1.000  H
  C28      1.0000 0.29010  0.76720  0.96040  Biso   1.000  C
  H24      1.0000 0.31730  0.77830  0.93380  Biso   1.000  H
  C29      1.0000 0.29720  0.67950  0.01220  Biso   1.000  C
  C30      1.0000 0.25710  0.66200  0.05200  Biso   1.000  C
  H25      1.0000 0.26200  0.60230  0.08670  Biso   1.000  H
  W31      1.0000 0.10335  0.72851  0.28968  Biso   1.000  W
  W32      1.0000 0.11849  0.51046  0.17189  Biso   1.000  W
  W33      1.0000 0.01470  0.25889  0.13224  Biso   1.000  W
  W34      1.0000 0.10168  0.27055  0.30142  Biso   1.000  W
  W35      1.0000 0.02435  0.74003  0.13669  Biso   1.000  W
  W36      1.0000 0.07688  0.48813  0.41479  Biso   1.000  W
  O81      1.0000 0.04420  0.59230  0.22180  Biso   1.000  O
  O82      1.0000 0.12430  0.36110  0.38280  Biso   1.000  O
  O83      1.0000 0.97020  0.41300  0.18970  Biso   1.000  O
  O84      1.0000 0.95100  0.18530  0.15260  Biso   1.000  O
  O85      1.0000 0.14870  0.64190  0.23870  Biso   1.000  O
  O86      1.0000 0.12730  0.39770  0.24930  Biso   1.000  O
  O87      1.0000 0.96320  0.77820  0.17860  Biso   1.000  O
  O88      1.0000 0.07290  0.81860  0.20640  Biso   1.000  O
  O89      1.0000 0.03170  0.35810  0.43690  Biso   1.000  O
  O90      1.0000 0.08700  0.64630  0.11590  Biso   1.000  O
  O91      1.0000 0.05570  0.22170  0.21770  Biso   1.000  O
  O92      1.0000 0.98000  0.60830  0.09140  Biso   1.000  O
  O93      1.0000 0.06820  0.39160  0.12780  Biso   1.000  O
  O94      1.0000 0.10900  0.60420  0.35460  Biso   1.000  O
  O95      1.0000 0.03580  0.14490  0.07950  Biso   1.000  O
  O96      1.0000 0.01970  0.85460  0.07600  Biso   1.000  O
  N11      1.0000 0.92700  0.02440  0.01970  Biso   1.000  N
  C31      1.0000 0.89320  0.12770  0.00320  Biso   1.000  C
  H26      1.0000 0.90210  0.20050  0.98140  Biso   1.000  H
  N12      1.0000 0.84380  0.10390  0.02490  Biso   1.000  N
  C32      1.0000 0.84710  0.98590  0.05490  Biso   1.000  C
  H27      1.0000 0.81960  0.94650  0.07380  Biso   1.000  H
  C33      1.0000 0.89850  0.93680  0.05170  Biso   1.000  C
  H28      1.0000 0.91160  0.85850  0.06810  Biso   1.000  H
  C34      1.0000 0.79010  0.26720  0.96040  Biso   1.000  C
  H29      1.0000 0.81730  0.27830  0.93380  Biso   1.000  H
  C35      1.0000 0.79720  0.17950  0.01220  Biso   1.000  C
  C36      1.0000 0.75710  0.16200  0.05200  Biso   1.000  C
  H30      1.0000 0.76200  0.10230  0.08670  Biso   1.000  H
  W37      1.0000 0.39665  0.22851  0.21032  Biso   1.000  W
  W38      1.0000 0.38151  0.01046  0.32811  Biso   1.000  W
  W39      1.0000 0.48530  0.75889  0.36776  Biso   1.000  W
  W40      1.0000 0.39832  0.77055  0.19858  Biso   1.000  W
  W41      1.0000 0.47565  0.24003  0.36331  Biso   1.000  W
  W42      1.0000 0.42312  0.98813  0.08521  Biso   1.000  W
  O97      1.0000 0.45580  0.09230  0.27820  Biso   1.000  O
  O98      1.0000 0.37570  0.86110  0.11720  Biso   1.000  O
  O99      1.0000 0.52980  0.91300  0.31030  Biso   1.000  O
  O100     1.0000 0.54900  0.68530  0.34740  Biso   1.000  O
  O101     1.0000 0.35130  0.14190  0.26130  Biso   1.000  O
  O102     1.0000 0.37270  0.89770  0.25070  Biso   1.000  O
  O103     1.0000 0.53680  0.27820  0.32140  Biso   1.000  O
  O104     1.0000 0.42710  0.31860  0.29360  Biso   1.000  O
  O105     1.0000 0.46830  0.85810  0.06310  Biso   1.000  O
  O106     1.0000 0.41300  0.14630  0.38410  Biso   1.000  O
  O107     1.0000 0.44430  0.72170  0.28230  Biso   1.000  O
  O108     1.0000 0.52000  0.10830  0.40860  Biso   1.000  O
  O109     1.0000 0.43180  0.89160  0.37220  Biso   1.000  O
  O110     1.0000 0.39100  0.10420  0.14540  Biso   1.000  O
  O111     1.0000 0.46420  0.64490  0.42050  Biso   1.000  O
  O112     1.0000 0.48030  0.35460  0.42400  Biso   1.000  O
  N13      1.0000 0.57300  0.52440  0.48030  Biso   1.000  N
  C37      1.0000 0.60680  0.62770  0.49680  Biso   1.000  C
  H31      1.0000 0.59790  0.70050  0.51860  Biso   1.000  H
  N14      1.0000 0.65620  0.60390  0.47510  Biso   1.000  N
  C38      1.0000 0.65290  0.48590  0.44510  Biso   1.000  C
  H32      1.0000 0.68040  0.44650  0.42620  Biso   1.000  H
  C39      1.0000 0.60150  0.43680  0.44830  Biso   1.000  C
  H33      1.0000 0.58840  0.35850  0.43190  Biso   1.000  H
  C40      1.0000 0.70990  0.76720  0.53960  Biso   1.000  C
  H34      1.0000 0.68270  0.77830  0.56620  Biso   1.000  H
  C41      1.0000 0.70280  0.67950  0.48780  Biso   1.000  C
  C42      1.0000 0.74290  0.66200  0.44800  Biso   1.000  C
  H35      1.0000 0.73800  0.60230  0.41330  Biso   1.000  H
  W43      1.0000 0.89665  0.72851  0.21032  Biso   1.000  W
  W44      1.0000 0.88151  0.51046  0.32811  Biso   1.000  W
  W45      1.0000 0.98530  0.25889  0.36776  Biso   1.000  W
  W46      1.0000 0.89832  0.27055  0.19858  Biso   1.000  W
  W47      1.0000 0.97565  0.74003  0.36331  Biso   1.000  W
  W48      1.0000 0.92312  0.48813  0.08521  Biso   1.000  W
  O113     1.0000 0.95580  0.59230  0.27820  Biso   1.000  O
  O114     1.0000 0.87570  0.36110  0.11720  Biso   1.000  O
  O115     1.0000 0.02980  0.41300  0.31030  Biso   1.000  O
  O116     1.0000 0.04900  0.18530  0.34740  Biso   1.000  O
  O117     1.0000 0.85130  0.64190  0.26130  Biso   1.000  O
  O118     1.0000 0.87270  0.39770  0.25070  Biso   1.000  O
  O119     1.0000 0.03680  0.77820  0.32140  Biso   1.000  O
  O120     1.0000 0.92710  0.81860  0.29360  Biso   1.000  O
  O121     1.0000 0.96830  0.35810  0.06310  Biso   1.000  O
  O122     1.0000 0.91300  0.64630  0.38410  Biso   1.000  O
  O123     1.0000 0.94430  0.22170  0.28230  Biso   1.000  O
  O124     1.0000 0.02000  0.60830  0.40860  Biso   1.000  O
  O125     1.0000 0.93180  0.39160  0.37220  Biso   1.000  O
  O126     1.0000 0.89100  0.60420  0.14540  Biso   1.000  O
  O127     1.0000 0.96420  0.14490  0.42050  Biso   1.000  O
  O128     1.0000 0.98030  0.85460  0.42400  Biso   1.000  O
  N15      1.0000 0.07300  0.02440  0.48030  Biso   1.000  N
  C43      1.0000 0.10680  0.12770  0.49680  Biso   1.000  C
  H36      1.0000 0.09790  0.20050  0.51860  Biso   1.000  H
  N16      1.0000 0.15620  0.10390  0.47510  Biso   1.000  N
  C44      1.0000 0.15290  0.98590  0.44510  Biso   1.000  C
  H37      1.0000 0.18040  0.94650  0.42620  Biso   1.000  H
  C45      1.0000 0.10150  0.93680  0.44830  Biso   1.000  C
  H38      1.0000 0.08840  0.85850  0.43190  Biso   1.000  H
  C46      1.0000 0.20990  0.26720  0.53960  Biso   1.000  C
  H39      1.0000 0.18270  0.27830  0.56620  Biso   1.000  H
  C47      1.0000 0.20280  0.17950  0.48780  Biso   1.000  C
  C48      1.0000 0.24290  0.16200  0.44800  Biso   1.000  C
  H40      1.0000 0.23800  0.10230  0.41330  Biso   1.000  H
  Si1      1.0000 0.50000  0.00000  0.75000  Biso   1.000  Si
  Si2      1.0000 0.00000  0.50000  0.75000  Biso   1.000  Si
  Si3      1.0000 0.50000  0.00000  0.25000  Biso   1.000  Si
  Si4      1.0000 0.00000  0.50000  0.25000  Biso   1.000  Si
  Cu1      1.0000 0.50000  0.50000  0.00000  Biso   1.000  Cu
  Cu2      1.0000 0.00000  0.00000  0.00000  Biso   1.000  Cu
  Cu3      1.0000 0.50000  0.50000  0.50000  Biso   1.000  Cu
  Cu4      1.0000 0.00000  0.00000  0.50000  Biso   1.000  Cu
