data_image0
_cell_length_a       24.58
_cell_length_b       10.4454
_cell_length_c       22.4777
_cell_angle_alpha    90
_cell_angle_beta     98.322
_cell_angle_gamma    90

_symmetry_space_group_name_H-M    "P 1"
_symmetry_int_tables_number       1

loop_
  _symmetry_equiv_pos_as_xyz
  'x, y, z'

loop_
  _atom_site_label
  _atom_site_occupancy
  _atom_site_fract_x
  _atom_site_fract_y
  _atom_site_fract_z
  _atom_site_thermal_displace_type
  _atom_site_B_iso_or_equiv
  _atom_site_type_symbol
  W1       1.0000 0.36112  0.68690  0.17895  Biso   1.000  W
  W2       1.0000 0.54480  0.66486  0.10821  Biso   1.000  W
  W3       1.0000 0.45818  0.43756  0.14310  Biso   1.000  W
  W4       1.0000 0.44853  0.91431  0.14627  Biso   1.000  W
  Co1      1.0000 0.41040  0.44076  0.29176  Biso   1.000  Co
  Co2      1.0000 0.40607  0.91184  0.28033  Biso   1.000  Co
  O1       1.0000 0.38170  0.82060  0.12620  Biso   1.000  O
  O2       1.0000 0.34680  0.81840  0.23380  Biso   1.000  O
  O3       1.0000 0.58760  0.78240  0.15740  Biso   1.000  O
  O4       1.0000 0.41640  0.00390  0.20680  Biso   1.000  O
  O5       1.0000 0.36990  0.57040  0.24530  Biso   1.000  O
  O6       1.0000 0.59550  0.53390  0.13550  Biso   1.000  O
  O7       1.0000 0.47340  0.35120  0.33510  Biso   1.000  O
  O8       1.0000 0.48460  0.78260  0.10840  Biso   1.000  O
  O9       1.0000 0.51800  0.58930  0.19610  Biso   1.000  O
  O10      1.0000 0.43770  0.39120  0.21820  Biso   1.000  O
  O11      1.0000 0.49210  0.53220  0.08340  Biso   1.000  O
  O12      1.0000 0.51860  0.96130  0.18540  Biso   1.000  O
  O13      1.0000 0.44810  0.76900  0.22240  Biso   1.000  O
  O14      1.0000 0.40500  0.57090  0.14030  Biso   1.000  O
  O15      1.0000 0.43830  0.02800  0.08930  Biso   1.000  O
  O16      1.0000 0.56320  0.70410  0.03900  Biso   1.000  O
  O17      1.0000 0.42260  0.32610  0.09650  Biso   1.000  O
  Cu1      1.0000 0.43555  0.17184  0.02987  Biso   1.000  Cu
  N1       1.0000 0.35780  0.13980  0.00360  Biso   1.000  N
  C1       1.0000 0.32550  0.06150  0.03330  Biso   1.000  C
  H1       1.0000 0.33620  0.02230  0.07030  Biso   1.000  H
  N2       1.0000 0.27480  0.05130  0.99850  Biso   1.000  N
  C2       1.0000 0.27560  0.12340  0.94740  Biso   1.000  C
  H2       1.0000 0.24670  0.13330  0.91620  Biso   1.000  H
  C3       1.0000 0.32690  0.17810  0.95050  Biso   1.000  C
  H3       1.0000 0.33870  0.23150  0.92180  Biso   1.000  H
  C4       1.0000 0.23110  0.97710  0.01360  Biso   1.000  C
  C5       1.0000 0.17790  0.00980  0.98890  Biso   1.000  C
  H4       1.0000 0.17130  0.08160  0.96450  Biso   1.000  H
  C6       1.0000 0.23990  0.87220  0.05210  Biso   1.000  C
  H5       1.0000 0.27550  0.85250  0.06980  Biso   1.000  H
  N3       1.0000 0.01590  0.67590  0.04260  Biso   1.000  N
  C7       1.0000 0.04670  0.78010  0.03460  Biso   1.000  C
  H6       1.0000 0.03340  0.86080  0.02260  Biso   1.000  H
  N4       1.0000 0.10030  0.74610  0.04700  Biso   1.000  N
  C8       1.0000 0.10250  0.62100  0.06280  Biso   1.000  C
  H7       1.0000 0.13440  0.57320  0.07360  Biso   1.000  H
  C9       1.0000 0.05040  0.57760  0.06000  Biso   1.000  C
  H8       1.0000 0.04000  0.49470  0.06860  Biso   1.000  H
  C10      1.0000 0.14470  0.82810  0.03820  Biso   1.000  C
  C11      1.0000 0.13550  0.93420  0.00110  Biso   1.000  C
  H9       1.0000 0.09980  0.95440  0.98420  Biso   1.000  H
  C12      1.0000 0.19790  0.79900  0.06400  Biso   1.000  C
  H10      1.0000 0.20450  0.72890  0.08950  Biso   1.000  H
  W5       1.0000 0.58960  0.44076  0.20824  Biso   1.000  W
  W6       1.0000 0.59393  0.91184  0.21967  Biso   1.000  W
  W7       1.0000 0.86112  0.18690  0.17895  Biso   1.000  W
  W8       1.0000 0.04480  0.16486  0.10821  Biso   1.000  W
  W9       1.0000 0.95818  0.93756  0.14310  Biso   1.000  W
  W10      1.0000 0.94853  0.41431  0.14627  Biso   1.000  W
  Co3      1.0000 0.91040  0.94076  0.29176  Biso   1.000  Co
  Co4      1.0000 0.90607  0.41184  0.28033  Biso   1.000  Co
  O18      1.0000 0.88170  0.32060  0.12620  Biso   1.000  O
  O19      1.0000 0.84680  0.31840  0.23380  Biso   1.000  O
  O20      1.0000 0.08760  0.28240  0.15740  Biso   1.000  O
  O21      1.0000 0.91640  0.50390  0.20680  Biso   1.000  O
  O22      1.0000 0.86990  0.07040  0.24530  Biso   1.000  O
  O23      1.0000 0.09550  0.03390  0.13550  Biso   1.000  O
  O24      1.0000 0.97340  0.85120  0.33510  Biso   1.000  O
  O25      1.0000 0.98460  0.28260  0.10840  Biso   1.000  O
  O26      1.0000 0.01800  0.08930  0.19610  Biso   1.000  O
  O27      1.0000 0.93770  0.89120  0.21820  Biso   1.000  O
  O28      1.0000 0.99210  0.03220  0.08340  Biso   1.000  O
  O29      1.0000 0.01860  0.46130  0.18540  Biso   1.000  O
  O30      1.0000 0.94810  0.26900  0.22240  Biso   1.000  O
  O31      1.0000 0.90500  0.07090  0.14030  Biso   1.000  O
  O32      1.0000 0.93830  0.52800  0.08930  Biso   1.000  O
  O33      1.0000 0.06320  0.20410  0.03900  Biso   1.000  O
  O34      1.0000 0.92260  0.82610  0.09650  Biso   1.000  O
  Cu2      1.0000 0.93555  0.67184  0.02987  Biso   1.000  Cu
  N5       1.0000 0.85780  0.63980  0.00360  Biso   1.000  N
  C13      1.0000 0.82550  0.56150  0.03330  Biso   1.000  C
  H11      1.0000 0.83620  0.52230  0.07030  Biso   1.000  H
  N6       1.0000 0.77480  0.55130  0.99850  Biso   1.000  N
  C14      1.0000 0.77560  0.62340  0.94740  Biso   1.000  C
  H12      1.0000 0.74670  0.63330  0.91620  Biso   1.000  H
  C15      1.0000 0.82690  0.67810  0.95050  Biso   1.000  C
  H13      1.0000 0.83870  0.73150  0.92180  Biso   1.000  H
  C16      1.0000 0.73110  0.47710  0.01360  Biso   1.000  C
  C17      1.0000 0.67790  0.50980  0.98890  Biso   1.000  C
  H14      1.0000 0.67130  0.58160  0.96450  Biso   1.000  H
  C18      1.0000 0.73990  0.37220  0.05210  Biso   1.000  C
  H15      1.0000 0.77550  0.35250  0.06980  Biso   1.000  H
  N7       1.0000 0.51590  0.17590  0.04260  Biso   1.000  N
  C19      1.0000 0.54670  0.28010  0.03460  Biso   1.000  C
  H16      1.0000 0.53340  0.36080  0.02260  Biso   1.000  H
  N8       1.0000 0.60030  0.24610  0.04700  Biso   1.000  N
  C20      1.0000 0.60250  0.12100  0.06280  Biso   1.000  C
  H17      1.0000 0.63440  0.07320  0.07360  Biso   1.000  H
  C21      1.0000 0.55040  0.07760  0.06000  Biso   1.000  C
  H18      1.0000 0.54000  0.99470  0.06860  Biso   1.000  H
  C22      1.0000 0.64470  0.32810  0.03820  Biso   1.000  C
  C23      1.0000 0.63550  0.43420  0.00110  Biso   1.000  C
  H19      1.0000 0.59980  0.45440  0.98420  Biso   1.000  H
  C24      1.0000 0.69790  0.29900  0.06400  Biso   1.000  C
  H20      1.0000 0.70450  0.22890  0.08950  Biso   1.000  H
  W11      1.0000 0.08960  0.94076  0.20824  Biso   1.000  W
  W12      1.0000 0.09393  0.41184  0.21967  Biso   1.000  W
  W13      1.0000 0.63888  0.68690  0.32105  Biso   1.000  W
  W14      1.0000 0.45520  0.66486  0.39179  Biso   1.000  W
  W15      1.0000 0.54182  0.43756  0.35690  Biso   1.000  W
  W16      1.0000 0.55147  0.91431  0.35373  Biso   1.000  W
  O35      1.0000 0.61830  0.82060  0.37380  Biso   1.000  O
  O36      1.0000 0.65320  0.81840  0.26620  Biso   1.000  O
  O37      1.0000 0.41240  0.78240  0.34260  Biso   1.000  O
  O38      1.0000 0.58360  0.00390  0.29320  Biso   1.000  O
  O39      1.0000 0.63010  0.57040  0.25470  Biso   1.000  O
  O40      1.0000 0.40450  0.53390  0.36450  Biso   1.000  O
  O41      1.0000 0.52660  0.35120  0.16490  Biso   1.000  O
  O42      1.0000 0.51540  0.78260  0.39160  Biso   1.000  O
  O43      1.0000 0.48200  0.58930  0.30390  Biso   1.000  O
  O44      1.0000 0.56230  0.39120  0.28180  Biso   1.000  O
  O45      1.0000 0.50790  0.53220  0.41660  Biso   1.000  O
  O46      1.0000 0.48140  0.96130  0.31460  Biso   1.000  O
  O47      1.0000 0.55190  0.76900  0.27760  Biso   1.000  O
  O48      1.0000 0.59500  0.57090  0.35970  Biso   1.000  O
  O49      1.0000 0.56170  0.02800  0.41070  Biso   1.000  O
  O50      1.0000 0.43680  0.70410  0.46100  Biso   1.000  O
  O51      1.0000 0.57740  0.32610  0.40350  Biso   1.000  O
  Cu3      1.0000 0.56445  0.17184  0.47013  Biso   1.000  Cu
  N9       1.0000 0.64220  0.13980  0.49640  Biso   1.000  N
  C25      1.0000 0.67450  0.06150  0.46670  Biso   1.000  C
  H21      1.0000 0.66380  0.02230  0.42970  Biso   1.000  H
  N10      1.0000 0.72520  0.05130  0.50150  Biso   1.000  N
  C26      1.0000 0.72440  0.12340  0.55260  Biso   1.000  C
  H22      1.0000 0.75330  0.13330  0.58380  Biso   1.000  H
  C27      1.0000 0.67310  0.17810  0.54950  Biso   1.000  C
  H23      1.0000 0.66130  0.23150  0.57820  Biso   1.000  H
  C28      1.0000 0.76890  0.97710  0.48640  Biso   1.000  C
  C29      1.0000 0.82210  0.00980  0.51110  Biso   1.000  C
  H24      1.0000 0.82870  0.08160  0.53550  Biso   1.000  H
  C30      1.0000 0.76010  0.87220  0.44790  Biso   1.000  C
  H25      1.0000 0.72450  0.85250  0.43020  Biso   1.000  H
  N11      1.0000 0.98410  0.67590  0.45740  Biso   1.000  N
  C31      1.0000 0.95330  0.78010  0.46540  Biso   1.000  C
  H26      1.0000 0.96660  0.86080  0.47740  Biso   1.000  H
  N12      1.0000 0.89970  0.74610  0.45300  Biso   1.000  N
  C32      1.0000 0.89750  0.62100  0.43720  Biso   1.000  C
  H27      1.0000 0.86560  0.57320  0.42640  Biso   1.000  H
  C33      1.0000 0.94960  0.57760  0.44000  Biso   1.000  C
  H28      1.0000 0.96000  0.49470  0.43140  Biso   1.000  H
  C34      1.0000 0.85530  0.82810  0.46180  Biso   1.000  C
  C35      1.0000 0.86450  0.93420  0.49890  Biso   1.000  C
  H29      1.0000 0.90020  0.95440  0.51580  Biso   1.000  H
  C36      1.0000 0.80210  0.79900  0.43600  Biso   1.000  C
  H30      1.0000 0.79550  0.72890  0.41050  Biso   1.000  H
  W17      1.0000 0.13888  0.18690  0.32105  Biso   1.000  W
  W18      1.0000 0.95520  0.16486  0.39179  Biso   1.000  W
  W19      1.0000 0.04182  0.93756  0.35690  Biso   1.000  W
  W20      1.0000 0.05147  0.41431  0.35373  Biso   1.000  W
  O52      1.0000 0.11830  0.32060  0.37380  Biso   1.000  O
  O53      1.0000 0.15320  0.31840  0.26620  Biso   1.000  O
  O54      1.0000 0.91240  0.28240  0.34260  Biso   1.000  O
  O55      1.0000 0.08360  0.50390  0.29320  Biso   1.000  O
  O56      1.0000 0.13010  0.07040  0.25470  Biso   1.000  O
  O57      1.0000 0.90450  0.03390  0.36450  Biso   1.000  O
  O58      1.0000 0.02660  0.85120  0.16490  Biso   1.000  O
  O59      1.0000 0.01540  0.28260  0.39160  Biso   1.000  O
  O60      1.0000 0.98200  0.08930  0.30390  Biso   1.000  O
  O61      1.0000 0.06230  0.89120  0.28180  Biso   1.000  O
  O62      1.0000 0.00790  0.03220  0.41660  Biso   1.000  O
  O63      1.0000 0.98140  0.46130  0.31460  Biso   1.000  O
  O64      1.0000 0.05190  0.26900  0.27760  Biso   1.000  O
  O65      1.0000 0.09500  0.07090  0.35970  Biso   1.000  O
  O66      1.0000 0.06170  0.52800  0.41070  Biso   1.000  O
  O67      1.0000 0.93680  0.20410  0.46100  Biso   1.000  O
  O68      1.0000 0.07740  0.82610  0.40350  Biso   1.000  O
  Cu4      1.0000 0.06445  0.67184  0.47013  Biso   1.000  Cu
  N13      1.0000 0.14220  0.63980  0.49640  Biso   1.000  N
  C37      1.0000 0.17450  0.56150  0.46670  Biso   1.000  C
  H31      1.0000 0.16380  0.52230  0.42970  Biso   1.000  H
  N14      1.0000 0.22520  0.55130  0.50150  Biso   1.000  N
  C38      1.0000 0.22440  0.62340  0.55260  Biso   1.000  C
  H32      1.0000 0.25330  0.63330  0.58380  Biso   1.000  H
  C39      1.0000 0.17310  0.67810  0.54950  Biso   1.000  C
  H33      1.0000 0.16130  0.73150  0.57820  Biso   1.000  H
  C40      1.0000 0.26890  0.47710  0.48640  Biso   1.000  C
  C41      1.0000 0.32210  0.50980  0.51110  Biso   1.000  C
  H34      1.0000 0.32870  0.58160  0.53550  Biso   1.000  H
  C42      1.0000 0.26010  0.37220  0.44790  Biso   1.000  C
  H35      1.0000 0.22450  0.35250  0.43020  Biso   1.000  H
  N15      1.0000 0.48410  0.17590  0.45740  Biso   1.000  N
  C43      1.0000 0.45330  0.28010  0.46540  Biso   1.000  C
  H36      1.0000 0.46660  0.36080  0.47740  Biso   1.000  H
  N16      1.0000 0.39970  0.24610  0.45300  Biso   1.000  N
  C44      1.0000 0.39750  0.12100  0.43720  Biso   1.000  C
  H37      1.0000 0.36560  0.07320  0.42640  Biso   1.000  H
  C45      1.0000 0.44960  0.07760  0.44000  Biso   1.000  C
  H38      1.0000 0.46000  0.99470  0.43140  Biso   1.000  H
  C46      1.0000 0.35530  0.32810  0.46180  Biso   1.000  C
  C47      1.0000 0.36450  0.43420  0.49890  Biso   1.000  C
  H39      1.0000 0.40020  0.45440  0.51580  Biso   1.000  H
  C48      1.0000 0.30210  0.29900  0.43600  Biso   1.000  C
  H40      1.0000 0.29550  0.22890  0.41050  Biso   1.000  H
  W21      1.0000 0.63888  0.31310  0.82105  Biso   1.000  W
  W22      1.0000 0.45520  0.33514  0.89179  Biso   1.000  W
  W23      1.0000 0.54182  0.56244  0.85690  Biso   1.000  W
  W24      1.0000 0.55147  0.08569  0.85373  Biso   1.000  W
  Co5      1.0000 0.58960  0.55924  0.70824  Biso   1.000  Co
  Co6      1.0000 0.59393  0.08816  0.71967  Biso   1.000  Co
  O69      1.0000 0.61830  0.17940  0.87380  Biso   1.000  O
  O70      1.0000 0.65320  0.18160  0.76620  Biso   1.000  O
  O71      1.0000 0.41240  0.21760  0.84260  Biso   1.000  O
  O72      1.0000 0.58360  0.99610  0.79320  Biso   1.000  O
  O73      1.0000 0.63010  0.42960  0.75470  Biso   1.000  O
  O74      1.0000 0.40450  0.46610  0.86450  Biso   1.000  O
  O75      1.0000 0.52660  0.64880  0.66490  Biso   1.000  O
  O76      1.0000 0.51540  0.21740  0.89160  Biso   1.000  O
  O77      1.0000 0.48200  0.41070  0.80390  Biso   1.000  O
  O78      1.0000 0.56230  0.60880  0.78180  Biso   1.000  O
  O79      1.0000 0.50790  0.46780  0.91660  Biso   1.000  O
  O80      1.0000 0.48140  0.03870  0.81460  Biso   1.000  O
  O81      1.0000 0.55190  0.23100  0.77760  Biso   1.000  O
  O82      1.0000 0.59500  0.42910  0.85970  Biso   1.000  O
  O83      1.0000 0.56170  0.97200  0.91070  Biso   1.000  O
  O84      1.0000 0.43680  0.29590  0.96100  Biso   1.000  O
  O85      1.0000 0.57740  0.67390  0.90350  Biso   1.000  O
  Cu5      1.0000 0.56445  0.82816  0.97013  Biso   1.000  Cu
  N17      1.0000 0.64220  0.86020  0.99640  Biso   1.000  N
  C49      1.0000 0.67450  0.93850  0.96670  Biso   1.000  C
  H41      1.0000 0.66380  0.97770  0.92970  Biso   1.000  H
  N18      1.0000 0.72520  0.94870  0.00150  Biso   1.000  N
  C50      1.0000 0.72440  0.87660  0.05260  Biso   1.000  C
  H42      1.0000 0.75330  0.86670  0.08380  Biso   1.000  H
  C51      1.0000 0.67310  0.82190  0.04950  Biso   1.000  C
  H43      1.0000 0.66130  0.76850  0.07820  Biso   1.000  H
  C52      1.0000 0.76890  0.02290  0.98640  Biso   1.000  C
  C53      1.0000 0.82210  0.99020  0.01110  Biso   1.000  C
  H44      1.0000 0.82870  0.91840  0.03550  Biso   1.000  H
  C54      1.0000 0.76010  0.12780  0.94790  Biso   1.000  C
  H45      1.0000 0.72450  0.14750  0.93020  Biso   1.000  H
  N19      1.0000 0.98410  0.32410  0.95740  Biso   1.000  N
  C55      1.0000 0.95330  0.21990  0.96540  Biso   1.000  C
  H46      1.0000 0.96660  0.13920  0.97740  Biso   1.000  H
  N20      1.0000 0.89970  0.25390  0.95300  Biso   1.000  N
  C56      1.0000 0.89750  0.37900  0.93720  Biso   1.000  C
  H47      1.0000 0.86560  0.42680  0.92640  Biso   1.000  H
  C57      1.0000 0.94960  0.42240  0.94000  Biso   1.000  C
  H48      1.0000 0.96000  0.50530  0.93140  Biso   1.000  H
  C58      1.0000 0.85530  0.17190  0.96180  Biso   1.000  C
  C59      1.0000 0.86450  0.06580  0.99890  Biso   1.000  C
  H49      1.0000 0.90020  0.04560  0.01580  Biso   1.000  H
  C60      1.0000 0.80210  0.20100  0.93600  Biso   1.000  C
  H50      1.0000 0.79550  0.27110  0.91050  Biso   1.000  H
  W25      1.0000 0.41040  0.55924  0.79176  Biso   1.000  W
  W26      1.0000 0.40607  0.08816  0.78033  Biso   1.000  W
  W27      1.0000 0.13888  0.81310  0.82105  Biso   1.000  W
  W28      1.0000 0.95520  0.83514  0.89179  Biso   1.000  W
  W29      1.0000 0.04182  0.06244  0.85690  Biso   1.000  W
  W30      1.0000 0.05147  0.58569  0.85373  Biso   1.000  W
  Co7      1.0000 0.08960  0.05924  0.70824  Biso   1.000  Co
  Co8      1.0000 0.09393  0.58816  0.71967  Biso   1.000  Co
  O86      1.0000 0.11830  0.67940  0.87380  Biso   1.000  O
  O87      1.0000 0.15320  0.68160  0.76620  Biso   1.000  O
  O88      1.0000 0.91240  0.71760  0.84260  Biso   1.000  O
  O89      1.0000 0.08360  0.49610  0.79320  Biso   1.000  O
  O90      1.0000 0.13010  0.92960  0.75470  Biso   1.000  O
  O91      1.0000 0.90450  0.96610  0.86450  Biso   1.000  O
  O92      1.0000 0.02660  0.14880  0.66490  Biso   1.000  O
  O93      1.0000 0.01540  0.71740  0.89160  Biso   1.000  O
  O94      1.0000 0.98200  0.91070  0.80390  Biso   1.000  O
  O95      1.0000 0.06230  0.10880  0.78180  Biso   1.000  O
  O96      1.0000 0.00790  0.96780  0.91660  Biso   1.000  O
  O97      1.0000 0.98140  0.53870  0.81460  Biso   1.000  O
  O98      1.0000 0.05190  0.73100  0.77760  Biso   1.000  O
  O99      1.0000 0.09500  0.92910  0.85970  Biso   1.000  O
  O100     1.0000 0.06170  0.47200  0.91070  Biso   1.000  O
  O101     1.0000 0.93680  0.79590  0.96100  Biso   1.000  O
  O102     1.0000 0.07740  0.17390  0.90350  Biso   1.000  O
  Cu6      1.0000 0.06445  0.32816  0.97013  Biso   1.000  Cu
  N21      1.0000 0.14220  0.36020  0.99640  Biso   1.000  N
  C61      1.0000 0.17450  0.43850  0.96670  Biso   1.000  C
  H51      1.0000 0.16380  0.47770  0.92970  Biso   1.000  H
  N22      1.0000 0.22520  0.44870  0.00150  Biso   1.000  N
  C62      1.0000 0.22440  0.37660  0.05260  Biso   1.000  C
  H52      1.0000 0.25330  0.36670  0.08380  Biso   1.000  H
  C63      1.0000 0.17310  0.32190  0.04950  Biso   1.000  C
  H53      1.0000 0.16130  0.26850  0.07820  Biso   1.000  H
  C64      1.0000 0.26890  0.52290  0.98640  Biso   1.000  C
  C65      1.0000 0.32210  0.49020  0.01110  Biso   1.000  C
  H54      1.0000 0.32870  0.41840  0.03550  Biso   1.000  H
  C66      1.0000 0.26010  0.62780  0.94790  Biso   1.000  C
  H55      1.0000 0.22450  0.64750  0.93020  Biso   1.000  H
  N23      1.0000 0.48410  0.82410  0.95740  Biso   1.000  N
  C67      1.0000 0.45330  0.71990  0.96540  Biso   1.000  C
  H56      1.0000 0.46660  0.63920  0.97740  Biso   1.000  H
  N24      1.0000 0.39970  0.75390  0.95300  Biso   1.000  N
  C68      1.0000 0.39750  0.87900  0.93720  Biso   1.000  C
  H57      1.0000 0.36560  0.92680  0.92640  Biso   1.000  H
  C69      1.0000 0.44960  0.92240  0.94000  Biso   1.000  C
  H58      1.0000 0.46000  0.00530  0.93140  Biso   1.000  H
  C70      1.0000 0.35530  0.67190  0.96180  Biso   1.000  C
  C71      1.0000 0.36450  0.56580  0.99890  Biso   1.000  C
  H59      1.0000 0.40020  0.54560  0.01580  Biso   1.000  H
  C72      1.0000 0.30210  0.70100  0.93600  Biso   1.000  C
  H60      1.0000 0.29550  0.77110  0.91050  Biso   1.000  H
  W31      1.0000 0.91040  0.05924  0.79176  Biso   1.000  W
  W32      1.0000 0.90607  0.58816  0.78033  Biso   1.000  W
  W33      1.0000 0.36112  0.31310  0.67895  Biso   1.000  W
  W34      1.0000 0.54480  0.33514  0.60821  Biso   1.000  W
  W35      1.0000 0.45818  0.56244  0.64310  Biso   1.000  W
  W36      1.0000 0.44853  0.08569  0.64627  Biso   1.000  W
  O103     1.0000 0.38170  0.17940  0.62620  Biso   1.000  O
  O104     1.0000 0.34680  0.18160  0.73380  Biso   1.000  O
  O105     1.0000 0.58760  0.21760  0.65740  Biso   1.000  O
  O106     1.0000 0.41640  0.99610  0.70680  Biso   1.000  O
  O107     1.0000 0.36990  0.42960  0.74530  Biso   1.000  O
  O108     1.0000 0.59550  0.46610  0.63550  Biso   1.000  O
  O109     1.0000 0.47340  0.64880  0.83510  Biso   1.000  O
  O110     1.0000 0.48460  0.21740  0.60840  Biso   1.000  O
  O111     1.0000 0.51800  0.41070  0.69610  Biso   1.000  O
  O112     1.0000 0.43770  0.60880  0.71820  Biso   1.000  O
  O113     1.0000 0.49210  0.46780  0.58340  Biso   1.000  O
  O114     1.0000 0.51860  0.03870  0.68540  Biso   1.000  O
  O115     1.0000 0.44810  0.23100  0.72240  Biso   1.000  O
  O116     1.0000 0.40500  0.42910  0.64030  Biso   1.000  O
  O117     1.0000 0.43830  0.97200  0.58930  Biso   1.000  O
  O118     1.0000 0.56320  0.29590  0.53900  Biso   1.000  O
  O119     1.0000 0.42260  0.67390  0.59650  Biso   1.000  O
  Cu7      1.0000 0.43555  0.82816  0.52987  Biso   1.000  Cu
  N25      1.0000 0.35780  0.86020  0.50360  Biso   1.000  N
  C73      1.0000 0.32550  0.93850  0.53330  Biso   1.000  C
  H61      1.0000 0.33620  0.97770  0.57030  Biso   1.000  H
  N26      1.0000 0.27480  0.94870  0.49850  Biso   1.000  N
  C74      1.0000 0.27560  0.87660  0.44740  Biso   1.000  C
  H62      1.0000 0.24670  0.86670  0.41620  Biso   1.000  H
  C75      1.0000 0.32690  0.82190  0.45050  Biso   1.000  C
  H63      1.0000 0.33870  0.76850  0.42180  Biso   1.000  H
  C76      1.0000 0.23110  0.02290  0.51360  Biso   1.000  C
  C77      1.0000 0.17790  0.99020  0.48890  Biso   1.000  C
  H64      1.0000 0.17130  0.91840  0.46450  Biso   1.000  H
  C78      1.0000 0.23990  0.12780  0.55210  Biso   1.000  C
  H65      1.0000 0.27550  0.14750  0.56980  Biso   1.000  H
  N27      1.0000 0.01590  0.32410  0.54260  Biso   1.000  N
  C79      1.0000 0.04670  0.21990  0.53460  Biso   1.000  C
  H66      1.0000 0.03340  0.13920  0.52260  Biso   1.000  H
  N28      1.0000 0.10030  0.25390  0.54700  Biso   1.000  N
  C80      1.0000 0.10250  0.37900  0.56280  Biso   1.000  C
  H67      1.0000 0.13440  0.42680  0.57360  Biso   1.000  H
  C81      1.0000 0.05040  0.42240  0.56000  Biso   1.000  C
  H68      1.0000 0.04000  0.50530  0.56860  Biso   1.000  H
  C82      1.0000 0.14470  0.17190  0.53820  Biso   1.000  C
  C83      1.0000 0.13550  0.06580  0.50110  Biso   1.000  C
  H69      1.0000 0.09980  0.04560  0.48420  Biso   1.000  H
  C84      1.0000 0.19790  0.20100  0.56400  Biso   1.000  C
  H70      1.0000 0.20450  0.27110  0.58950  Biso   1.000  H
  W37      1.0000 0.86112  0.81310  0.67895  Biso   1.000  W
  W38      1.0000 0.04480  0.83514  0.60821  Biso   1.000  W
  W39      1.0000 0.95818  0.06244  0.64310  Biso   1.000  W
  W40      1.0000 0.94853  0.58569  0.64627  Biso   1.000  W
  O120     1.0000 0.88170  0.67940  0.62620  Biso   1.000  O
  O121     1.0000 0.84680  0.68160  0.73380  Biso   1.000  O
  O122     1.0000 0.08760  0.71760  0.65740  Biso   1.000  O
  O123     1.0000 0.91640  0.49610  0.70680  Biso   1.000  O
  O124     1.0000 0.86990  0.92960  0.74530  Biso   1.000  O
  O125     1.0000 0.09550  0.96610  0.63550  Biso   1.000  O
  O126     1.0000 0.97340  0.14880  0.83510  Biso   1.000  O
  O127     1.0000 0.98460  0.71740  0.60840  Biso   1.000  O
  O128     1.0000 0.01800  0.91070  0.69610  Biso   1.000  O
  O129     1.0000 0.93770  0.10880  0.71820  Biso   1.000  O
  O130     1.0000 0.99210  0.96780  0.58340  Biso   1.000  O
  O131     1.0000 0.01860  0.53870  0.68540  Biso   1.000  O
  O132     1.0000 0.94810  0.73100  0.72240  Biso   1.000  O
  O133     1.0000 0.90500  0.92910  0.64030  Biso   1.000  O
  O134     1.0000 0.93830  0.47200  0.58930  Biso   1.000  O
  O135     1.0000 0.06320  0.79590  0.53900  Biso   1.000  O
  O136     1.0000 0.92260  0.17390  0.59650  Biso   1.000  O
  Cu8      1.0000 0.93555  0.32816  0.52987  Biso   1.000  Cu
  N29      1.0000 0.85780  0.36020  0.50360  Biso   1.000  N
  C85      1.0000 0.82550  0.43850  0.53330  Biso   1.000  C
  H71      1.0000 0.83620  0.47770  0.57030  Biso   1.000  H
  N30      1.0000 0.77480  0.44870  0.49850  Biso   1.000  N
  C86      1.0000 0.77560  0.37660  0.44740  Biso   1.000  C
  H72      1.0000 0.74670  0.36670  0.41620  Biso   1.000  H
  C87      1.0000 0.82690  0.32190  0.45050  Biso   1.000  C
  H73      1.0000 0.83870  0.26850  0.42180  Biso   1.000  H
  C88      1.0000 0.73110  0.52290  0.51360  Biso   1.000  C
  C89      1.0000 0.67790  0.49020  0.48890  Biso   1.000  C
  H74      1.0000 0.67130  0.41840  0.46450  Biso   1.000  H
  C90      1.0000 0.73990  0.62780  0.55210  Biso   1.000  C
  H75      1.0000 0.77550  0.64750  0.56980  Biso   1.000  H
  N31      1.0000 0.51590  0.82410  0.54260  Biso   1.000  N
  C91      1.0000 0.54670  0.71990  0.53460  Biso   1.000  C
  H76      1.0000 0.53340  0.63920  0.52260  Biso   1.000  H
  N32      1.0000 0.60030  0.75390  0.54700  Biso   1.000  N
  C92      1.0000 0.60250  0.87900  0.56280  Biso   1.000  C
  H77      1.0000 0.63440  0.92680  0.57360  Biso   1.000  H
  C93      1.0000 0.55040  0.92240  0.56000  Biso   1.000  C
  H78      1.0000 0.54000  0.00530  0.56860  Biso   1.000  H
  C94      1.0000 0.64470  0.67190  0.53820  Biso   1.000  C
  C95      1.0000 0.63550  0.56580  0.50110  Biso   1.000  C
  H79      1.0000 0.59980  0.54560  0.48420  Biso   1.000  H
  C96      1.0000 0.69790  0.70100  0.56400  Biso   1.000  C
  H80      1.0000 0.70450  0.77110  0.58950  Biso   1.000  H
  Si1      1.0000 0.50000  0.67910  0.25000  Biso   1.000  Si
  K1       1.0000 0.50000  0.17620  0.25000  Biso   1.000  K
  Si2      1.0000 0.00000  0.17910  0.25000  Biso   1.000  Si
  K2       1.0000 0.00000  0.67620  0.25000  Biso   1.000  K
  Si3      1.0000 0.50000  0.32090  0.75000  Biso   1.000  Si
  K3       1.0000 0.50000  0.82380  0.75000  Biso   1.000  K
  Si4      1.0000 0.00000  0.82090  0.75000  Biso   1.000  Si
  K4       1.0000 0.00000  0.32380  0.75000  Biso   1.000  K
