data_image0
_cell_length_a       11.6936
_cell_length_b       11.6936
_cell_length_c       28.6993
_cell_angle_alpha    90
_cell_angle_beta     90
_cell_angle_gamma    120

_symmetry_space_group_name_H-M    "P 1"
_symmetry_int_tables_number       1

loop_
  _symmetry_equiv_pos_as_xyz
  'x, y, z'

loop_
  _atom_site_label
  _atom_site_occupancy
  _atom_site_fract_x
  _atom_site_fract_y
  _atom_site_fract_z
  _atom_site_thermal_displace_type
  _atom_site_B_iso_or_equiv
  _atom_site_type_symbol
  Ag1      1.0000 0.73361  0.71374  0.39594  Biso   1.000  Ag
  Ag2      1.0000 0.52814  0.78625  0.38383  Biso   1.000  Ag
  Ag3      1.0000 0.50019  0.48745  0.37809  Biso   1.000  Ag
  C1       1.0000 0.54880  0.63890  0.43190  Biso   1.000  C
  C2       1.0000 0.48910  0.64490  0.46510  Biso   1.000  C
  C3       1.0000 0.41100  0.64010  0.50393  Biso   1.000  C
  C4       1.0000 0.44720  0.75240  0.53050  Biso   1.000  C
  H1       1.0000 0.52130  0.83210  0.52240  Biso   1.000  H
  C5       1.0000 0.37260  0.74580  0.56920  Biso   1.000  C
  H2       1.0000 0.39690  0.82100  0.58700  Biso   1.000  H
  C6       1.0000 0.26190  0.62680  0.58135  Biso   1.000  C
  C7       1.0000 0.22570  0.51440  0.55470  Biso   1.000  C
  H3       1.0000 0.15170  0.43480  0.56290  Biso   1.000  H
  C8       1.0000 0.30030  0.52110  0.51600  Biso   1.000  C
  H4       1.0000 0.27610  0.44590  0.49820  Biso   1.000  H
  C9       1.0000 0.78220  0.24670  0.64770  Biso   1.000  C
  C10      1.0000 0.69570  0.17400  0.60330  Biso   1.000  C
  C11      1.0000 0.77570  0.20280  0.55540  Biso   1.000  C
  C12      1.0000 0.87820  0.15450  0.54770  Biso   1.000  C
  C13      1.0000 0.82230  0.00120  0.54690  Biso   1.000  C
  F1       1.0000 0.63740  0.04850  0.60740  Biso   1.000  F
  F2       1.0000 0.61290  0.21680  0.59570  Biso   1.000  F
  F3       1.0000 0.84350  0.33640  0.54880  Biso   1.000  F
  F4       1.0000 0.68350  0.14760  0.52060  Biso   1.000  F
  F5       1.0000 0.93550  0.19880  0.50660  Biso   1.000  F
  F6       1.0000 0.96690  0.21100  0.58050  Biso   1.000  F
  N1       1.0000 0.18380  0.61660  0.62250  Biso   1.000  N
  O1       1.0000 0.21380  0.70930  0.64510  Biso   1.000  O
  O2       1.0000 0.09110  0.50690  0.63160  Biso   1.000  O
  O3       1.0000 0.82050  0.18330  0.66972  Biso   1.000  O
  O4       1.0000 0.80770  0.36160  0.65460  Biso   1.000  O
  O5       1.0000 0.83140  0.95240  0.58353  Biso   1.000  O
  O6       1.0000 0.76710  0.94130  0.51050  Biso   1.000  O
  Ag4      1.0000 0.28626  0.01987  0.06261  Biso   1.000  Ag
  Ag5      1.0000 0.21375  0.74189  0.05050  Biso   1.000  Ag
  Ag6      1.0000 0.51255  0.01274  0.04476  Biso   1.000  Ag
  C14      1.0000 0.36110  0.90990  0.09857  Biso   1.000  C
  C15      1.0000 0.35510  0.84420  0.13177  Biso   1.000  C
  C16      1.0000 0.35990  0.77090  0.17060  Biso   1.000  C
  C17      1.0000 0.24760  0.69480  0.19717  Biso   1.000  C
  H5       1.0000 0.16790  0.68920  0.18907  Biso   1.000  H
  C18      1.0000 0.25420  0.62680  0.23587  Biso   1.000  C
  H6       1.0000 0.17900  0.57590  0.25367  Biso   1.000  H
  C19      1.0000 0.37320  0.63510  0.24802  Biso   1.000  C
  C20      1.0000 0.48560  0.71130  0.22137  Biso   1.000  C
  H7       1.0000 0.56520  0.71690  0.22957  Biso   1.000  H
  C21      1.0000 0.47890  0.77920  0.18267  Biso   1.000  C
  H8       1.0000 0.55410  0.83020  0.16487  Biso   1.000  H
  C22      1.0000 0.75330  0.53550  0.31437  Biso   1.000  C
  C23      1.0000 0.82600  0.52170  0.26997  Biso   1.000  C
  C24      1.0000 0.79720  0.57290  0.22207  Biso   1.000  C
  C25      1.0000 0.84550  0.72370  0.21437  Biso   1.000  C
  C26      1.0000 0.99880  0.82110  0.21357  Biso   1.000  C
  F7       1.0000 0.95150  0.58890  0.27407  Biso   1.000  F
  F8       1.0000 0.78320  0.39610  0.26237  Biso   1.000  F
  F9       1.0000 0.66360  0.50710  0.21547  Biso   1.000  F
  F10      1.0000 0.85240  0.53590  0.18727  Biso   1.000  F
  F11      1.0000 0.80120  0.73670  0.17327  Biso   1.000  F
  F12      1.0000 0.78900  0.75590  0.24717  Biso   1.000  F
  N2       1.0000 0.38340  0.56720  0.28917  Biso   1.000  N
  O7       1.0000 0.29070  0.50450  0.31177  Biso   1.000  O
  O8       1.0000 0.49310  0.58420  0.29827  Biso   1.000  O
  O9       1.0000 0.81670  0.63720  0.33639  Biso   1.000  O
  O10      1.0000 0.63840  0.44610  0.32127  Biso   1.000  O
  O11      1.0000 0.04760  0.87900  0.25020  Biso   1.000  O
  O12      1.0000 0.05870  0.82580  0.17717  Biso   1.000  O
  Ag7      1.0000 0.98013  0.26639  0.72927  Biso   1.000  Ag
  Ag8      1.0000 0.25811  0.47186  0.71716  Biso   1.000  Ag
  Ag9      1.0000 0.98726  0.49981  0.71142  Biso   1.000  Ag
  C27      1.0000 0.09010  0.45120  0.76523  Biso   1.000  C
  C28      1.0000 0.15580  0.51090  0.79843  Biso   1.000  C
  C29      1.0000 0.22910  0.58900  0.83726  Biso   1.000  C
  C30      1.0000 0.30520  0.55280  0.86383  Biso   1.000  C
  H9       1.0000 0.31080  0.47870  0.85573  Biso   1.000  H
  C31      1.0000 0.37320  0.62740  0.90253  Biso   1.000  C
  H10      1.0000 0.42410  0.60310  0.92033  Biso   1.000  H
  C32      1.0000 0.36490  0.73810  0.91468  Biso   1.000  C
  C33      1.0000 0.28870  0.77430  0.88803  Biso   1.000  C
  H11      1.0000 0.28310  0.84830  0.89623  Biso   1.000  H
  C34      1.0000 0.22080  0.69970  0.84933  Biso   1.000  C
  H12      1.0000 0.16980  0.72390  0.83153  Biso   1.000  H
  C35      1.0000 0.46450  0.21780  0.98103  Biso   1.000  C
  C36      1.0000 0.47830  0.30430  0.93663  Biso   1.000  C
  C37      1.0000 0.42710  0.22430  0.88873  Biso   1.000  C
  C38      1.0000 0.27630  0.12180  0.88103  Biso   1.000  C
  C39      1.0000 0.17890  0.17770  0.88023  Biso   1.000  C
  F13      1.0000 0.41110  0.36260  0.94073  Biso   1.000  F
  F14      1.0000 0.60390  0.38710  0.92903  Biso   1.000  F
  F15      1.0000 0.49290  0.15650  0.88213  Biso   1.000  F
  F16      1.0000 0.46410  0.31650  0.85393  Biso   1.000  F
  F17      1.0000 0.26330  0.06450  0.83993  Biso   1.000  F
  F18      1.0000 0.24410  0.03310  0.91383  Biso   1.000  F
  N3       1.0000 0.43280  0.81620  0.95583  Biso   1.000  N
  O13      1.0000 0.49550  0.78620  0.97843  Biso   1.000  O
  O14      1.0000 0.41580  0.90890  0.96493  Biso   1.000  O
  O15      1.0000 0.36280  0.17950  0.00305  Biso   1.000  O
  O16      1.0000 0.55390  0.19230  0.98793  Biso   1.000  O
  O17      1.0000 0.12100  0.16860  0.91686  Biso   1.000  O
  O18      1.0000 0.17420  0.23290  0.84383  Biso   1.000  O
  Ag10     1.0000 0.71374  0.73361  0.60406  Biso   1.000  Ag
  Ag11     1.0000 0.78625  0.52814  0.61617  Biso   1.000  Ag
  Ag12     1.0000 0.48745  0.50019  0.62191  Biso   1.000  Ag
  C40      1.0000 0.63890  0.54880  0.56810  Biso   1.000  C
  C41      1.0000 0.64490  0.48910  0.53490  Biso   1.000  C
  C42      1.0000 0.64010  0.41100  0.49607  Biso   1.000  C
  C43      1.0000 0.75240  0.44720  0.46950  Biso   1.000  C
  H13      1.0000 0.83210  0.52130  0.47760  Biso   1.000  H
  C44      1.0000 0.74580  0.37260  0.43080  Biso   1.000  C
  H14      1.0000 0.82100  0.39690  0.41300  Biso   1.000  H
  C45      1.0000 0.62680  0.26190  0.41865  Biso   1.000  C
  C46      1.0000 0.51440  0.22570  0.44530  Biso   1.000  C
  H15      1.0000 0.43480  0.15170  0.43710  Biso   1.000  H
  C47      1.0000 0.52110  0.30030  0.48400  Biso   1.000  C
  H16      1.0000 0.44590  0.27610  0.50180  Biso   1.000  H
  C48      1.0000 0.24670  0.78220  0.35230  Biso   1.000  C
  C49      1.0000 0.17400  0.69570  0.39670  Biso   1.000  C
  C50      1.0000 0.20280  0.77570  0.44460  Biso   1.000  C
  C51      1.0000 0.15450  0.87820  0.45230  Biso   1.000  C
  C52      1.0000 0.00120  0.82230  0.45310  Biso   1.000  C
  F19      1.0000 0.04850  0.63740  0.39260  Biso   1.000  F
  F20      1.0000 0.21680  0.61290  0.40430  Biso   1.000  F
  F21      1.0000 0.33640  0.84350  0.45120  Biso   1.000  F
  F22      1.0000 0.14760  0.68350  0.47940  Biso   1.000  F
  F23      1.0000 0.19880  0.93550  0.49340  Biso   1.000  F
  F24      1.0000 0.21100  0.96690  0.41950  Biso   1.000  F
  N4       1.0000 0.61660  0.18380  0.37750  Biso   1.000  N
  O19      1.0000 0.70930  0.21380  0.35490  Biso   1.000  O
  O20      1.0000 0.50690  0.09110  0.36840  Biso   1.000  O
  O21      1.0000 0.18330  0.82050  0.33028  Biso   1.000  O
  O22      1.0000 0.36160  0.80770  0.34540  Biso   1.000  O
  O23      1.0000 0.95240  0.83140  0.41647  Biso   1.000  O
  O24      1.0000 0.94130  0.76710  0.48950  Biso   1.000  O
  Ag13     1.0000 0.01987  0.28626  0.93739  Biso   1.000  Ag
  Ag14     1.0000 0.74189  0.21375  0.94950  Biso   1.000  Ag
  Ag15     1.0000 0.01274  0.51255  0.95524  Biso   1.000  Ag
  C53      1.0000 0.90990  0.36110  0.90143  Biso   1.000  C
  C54      1.0000 0.84420  0.35510  0.86823  Biso   1.000  C
  C55      1.0000 0.77090  0.35990  0.82940  Biso   1.000  C
  C56      1.0000 0.69480  0.24760  0.80283  Biso   1.000  C
  H17      1.0000 0.68920  0.16790  0.81093  Biso   1.000  H
  C57      1.0000 0.62680  0.25420  0.76413  Biso   1.000  C
  H18      1.0000 0.57590  0.17900  0.74633  Biso   1.000  H
  C58      1.0000 0.63510  0.37320  0.75198  Biso   1.000  C
  C59      1.0000 0.71130  0.48560  0.77863  Biso   1.000  C
  H19      1.0000 0.71690  0.56520  0.77043  Biso   1.000  H
  C60      1.0000 0.77920  0.47890  0.81733  Biso   1.000  C
  H20      1.0000 0.83020  0.55410  0.83513  Biso   1.000  H
  C61      1.0000 0.53550  0.75330  0.68563  Biso   1.000  C
  C62      1.0000 0.52170  0.82600  0.73003  Biso   1.000  C
  C63      1.0000 0.57290  0.79720  0.77793  Biso   1.000  C
  C64      1.0000 0.72370  0.84550  0.78563  Biso   1.000  C
  C65      1.0000 0.82110  0.99880  0.78643  Biso   1.000  C
  F25      1.0000 0.58890  0.95150  0.72593  Biso   1.000  F
  F26      1.0000 0.39610  0.78320  0.73763  Biso   1.000  F
  F27      1.0000 0.50710  0.66360  0.78453  Biso   1.000  F
  F28      1.0000 0.53590  0.85240  0.81273  Biso   1.000  F
  F29      1.0000 0.73670  0.80120  0.82673  Biso   1.000  F
  F30      1.0000 0.75590  0.78900  0.75283  Biso   1.000  F
  N5       1.0000 0.56720  0.38340  0.71083  Biso   1.000  N
  O25      1.0000 0.50450  0.29070  0.68823  Biso   1.000  O
  O26      1.0000 0.58420  0.49310  0.70173  Biso   1.000  O
  O27      1.0000 0.63720  0.81670  0.66361  Biso   1.000  O
  O28      1.0000 0.44610  0.63840  0.67873  Biso   1.000  O
  O29      1.0000 0.87900  0.04760  0.74980  Biso   1.000  O
  O30      1.0000 0.82580  0.05870  0.82283  Biso   1.000  O
  Ag16     1.0000 0.26639  0.98013  0.27073  Biso   1.000  Ag
  Ag17     1.0000 0.47186  0.25811  0.28284  Biso   1.000  Ag
  Ag18     1.0000 0.49981  0.98726  0.28858  Biso   1.000  Ag
  C66      1.0000 0.45120  0.09010  0.23477  Biso   1.000  C
  C67      1.0000 0.51090  0.15580  0.20157  Biso   1.000  C
  C68      1.0000 0.58900  0.22910  0.16274  Biso   1.000  C
  C69      1.0000 0.55280  0.30520  0.13617  Biso   1.000  C
  H21      1.0000 0.47870  0.31080  0.14427  Biso   1.000  H
  C70      1.0000 0.62740  0.37320  0.09747  Biso   1.000  C
  H22      1.0000 0.60310  0.42410  0.07967  Biso   1.000  H
  C71      1.0000 0.73810  0.36490  0.08532  Biso   1.000  C
  C72      1.0000 0.77430  0.28870  0.11197  Biso   1.000  C
  H23      1.0000 0.84830  0.28310  0.10377  Biso   1.000  H
  C73      1.0000 0.69970  0.22080  0.15067  Biso   1.000  C
  H24      1.0000 0.72390  0.16980  0.16847  Biso   1.000  H
  C74      1.0000 0.21780  0.46450  0.01897  Biso   1.000  C
  C75      1.0000 0.30430  0.47830  0.06337  Biso   1.000  C
  C76      1.0000 0.22430  0.42710  0.11127  Biso   1.000  C
  C77      1.0000 0.12180  0.27630  0.11897  Biso   1.000  C
  C78      1.0000 0.17770  0.17890  0.11977  Biso   1.000  C
  F31      1.0000 0.36260  0.41110  0.05927  Biso   1.000  F
  F32      1.0000 0.38710  0.60390  0.07097  Biso   1.000  F
  F33      1.0000 0.15650  0.49290  0.11787  Biso   1.000  F
  F34      1.0000 0.31650  0.46410  0.14607  Biso   1.000  F
  F35      1.0000 0.06450  0.26330  0.16007  Biso   1.000  F
  F36      1.0000 0.03310  0.24410  0.08617  Biso   1.000  F
  N6       1.0000 0.81620  0.43280  0.04417  Biso   1.000  N
  O31      1.0000 0.78620  0.49550  0.02157  Biso   1.000  O
  O32      1.0000 0.90890  0.41580  0.03507  Biso   1.000  O
  O33      1.0000 0.17950  0.36280  0.99695  Biso   1.000  O
  O34      1.0000 0.19230  0.55390  0.01207  Biso   1.000  O
  O35      1.0000 0.16860  0.12100  0.08314  Biso   1.000  O
  O36      1.0000 0.23290  0.17420  0.15617  Biso   1.000  O
  Ag19     1.0000 0.72069  0.72069  0.50000  Biso   1.000  Ag
  Ag20     1.0000 0.27931  0.00000  0.16667  Biso   1.000  Ag
  Ag21     1.0000 0.00000  0.27931  0.83333  Biso   1.000  Ag
