data_image0
_cell_length_a       6.7107
_cell_length_b       18.7431
_cell_length_c       10.2809
_cell_angle_alpha    90
_cell_angle_beta     90
_cell_angle_gamma    90

_symmetry_space_group_name_H-M    "P 1"
_symmetry_int_tables_number       1

loop_
  _symmetry_equiv_pos_as_xyz
  'x, y, z'

loop_
  _atom_site_label
  _atom_site_occupancy
  _atom_site_fract_x
  _atom_site_fract_y
  _atom_site_fract_z
  _atom_site_thermal_displace_type
  _atom_site_B_iso_or_equiv
  _atom_site_type_symbol
  O1       1.0000 0.15620  0.83250  0.15800  Biso   1.000  O
  C1       1.0000 0.80400  0.96380  0.02600  Biso   1.000  C
  O2       1.0000 0.65620  0.33250  0.65800  Biso   1.000  O
  C2       1.0000 0.30400  0.46380  0.52600  Biso   1.000  C
  O3       1.0000 0.84380  0.66750  0.15800  Biso   1.000  O
  C3       1.0000 0.19600  0.53620  0.02600  Biso   1.000  C
  O4       1.0000 0.34380  0.16750  0.65800  Biso   1.000  O
  C4       1.0000 0.69600  0.03620  0.52600  Biso   1.000  C
  O5       1.0000 0.84380  0.33250  0.84200  Biso   1.000  O
  C5       1.0000 0.19600  0.46380  0.97400  Biso   1.000  C
  O6       1.0000 0.34380  0.83250  0.34200  Biso   1.000  O
  C6       1.0000 0.69600  0.96380  0.47400  Biso   1.000  C
  O7       1.0000 0.15620  0.16750  0.84200  Biso   1.000  O
  C7       1.0000 0.80400  0.03620  0.97400  Biso   1.000  C
  O8       1.0000 0.65620  0.66750  0.34200  Biso   1.000  O
  C8       1.0000 0.30400  0.53620  0.47400  Biso   1.000  C
  O9       1.0000 0.84380  0.16750  0.84200  Biso   1.000  O
  C9       1.0000 0.19600  0.03620  0.97400  Biso   1.000  C
  O10      1.0000 0.34380  0.66750  0.34200  Biso   1.000  O
  C10      1.0000 0.69600  0.53620  0.47400  Biso   1.000  C
  O11      1.0000 0.15620  0.33250  0.84200  Biso   1.000  O
  C11      1.0000 0.80400  0.46380  0.97400  Biso   1.000  C
  O12      1.0000 0.65620  0.83250  0.34200  Biso   1.000  O
  C12      1.0000 0.30400  0.96380  0.47400  Biso   1.000  C
  O13      1.0000 0.15620  0.66750  0.15800  Biso   1.000  O
  C13      1.0000 0.80400  0.53620  0.02600  Biso   1.000  C
  O14      1.0000 0.65620  0.16750  0.65800  Biso   1.000  O
  C14      1.0000 0.30400  0.03620  0.52600  Biso   1.000  C
  O15      1.0000 0.84380  0.83250  0.15800  Biso   1.000  O
  C15      1.0000 0.19600  0.96380  0.02600  Biso   1.000  C
  O16      1.0000 0.34380  0.33250  0.65800  Biso   1.000  O
  C16      1.0000 0.69600  0.46380  0.52600  Biso   1.000  C
  V1       1.0000 0.25000  0.75000  0.25000  Biso   1.000  V
  V2       1.0000 0.75000  0.75000  0.25000  Biso   1.000  V
  V3       1.0000 0.75000  0.25000  0.75000  Biso   1.000  V
  V4       1.0000 0.25000  0.25000  0.75000  Biso   1.000  V
  O17      1.0000 0.00000  0.75000  0.30697  Biso   1.000  O
  O18      1.0000 0.50000  0.25000  0.80697  Biso   1.000  O
  O19      1.0000 0.00000  0.25000  0.69303  Biso   1.000  O
  O20      1.0000 0.50000  0.75000  0.19303  Biso   1.000  O
  C17      1.0000 0.00000  0.94000  0.04300  Biso   1.000  C
  C18      1.0000 0.00000  0.87080  0.11700  Biso   1.000  C
  C19      1.0000 0.50000  0.44000  0.54300  Biso   1.000  C
  C20      1.0000 0.50000  0.37080  0.61700  Biso   1.000  C
  C21      1.0000 0.00000  0.56000  0.04300  Biso   1.000  C
  C22      1.0000 0.00000  0.62920  0.11700  Biso   1.000  C
  C23      1.0000 0.50000  0.06000  0.54300  Biso   1.000  C
  C24      1.0000 0.50000  0.12920  0.61700  Biso   1.000  C
  C25      1.0000 0.00000  0.44000  0.95700  Biso   1.000  C
  C26      1.0000 0.00000  0.37080  0.88300  Biso   1.000  C
  C27      1.0000 0.50000  0.94000  0.45700  Biso   1.000  C
  C28      1.0000 0.50000  0.87080  0.38300  Biso   1.000  C
  C29      1.0000 0.00000  0.06000  0.95700  Biso   1.000  C
  C30      1.0000 0.00000  0.12920  0.88300  Biso   1.000  C
  C31      1.0000 0.50000  0.56000  0.45700  Biso   1.000  C
  C32      1.0000 0.50000  0.62920  0.38300  Biso   1.000  C
