data_image0
_cell_length_a       7.3744
_cell_length_b       7.3744
_cell_length_c       45.758
_cell_angle_alpha    90
_cell_angle_beta     90
_cell_angle_gamma    120

_symmetry_space_group_name_H-M    "P 1"
_symmetry_int_tables_number       1

loop_
  _symmetry_equiv_pos_as_xyz
  'x, y, z'

loop_
  _atom_site_label
  _atom_site_occupancy
  _atom_site_fract_x
  _atom_site_fract_y
  _atom_site_fract_z
  _atom_site_thermal_displace_type
  _atom_site_B_iso_or_equiv
  _atom_site_type_symbol
  C1       1.0000 0.51490  0.90070  0.14277  Biso   1.000  C
  N1       1.0000 0.62770  0.04110  0.12849  Biso   1.000  N
  C2       1.0000 0.18157  0.23403  0.47610  Biso   1.000  C
  N2       1.0000 0.29437  0.37443  0.46182  Biso   1.000  N
  C3       1.0000 0.84823  0.56737  0.80944  Biso   1.000  C
  N3       1.0000 0.96103  0.70777  0.79516  Biso   1.000  N
  C4       1.0000 0.09930  0.61420  0.14277  Biso   1.000  C
  N4       1.0000 0.95890  0.58660  0.12849  Biso   1.000  N
  C5       1.0000 0.76597  0.94753  0.47610  Biso   1.000  C
  N5       1.0000 0.62557  0.91993  0.46182  Biso   1.000  N
  C6       1.0000 0.43263  0.28087  0.80944  Biso   1.000  C
  N6       1.0000 0.29223  0.25327  0.79516  Biso   1.000  N
  C7       1.0000 0.38580  0.48510  0.14277  Biso   1.000  C
  N7       1.0000 0.41340  0.37230  0.12849  Biso   1.000  N
  C8       1.0000 0.05247  0.81843  0.47610  Biso   1.000  C
  N8       1.0000 0.08007  0.70563  0.46182  Biso   1.000  N
  C9       1.0000 0.71913  0.15177  0.80944  Biso   1.000  C
  N9       1.0000 0.74673  0.03897  0.79516  Biso   1.000  N
  C10      1.0000 0.90070  0.51490  0.35723  Biso   1.000  C
  N10      1.0000 0.04110  0.62770  0.37151  Biso   1.000  N
  C11      1.0000 0.56737  0.84823  0.69056  Biso   1.000  C
  N11      1.0000 0.70777  0.96103  0.70484  Biso   1.000  N
  C12      1.0000 0.23403  0.18157  0.02390  Biso   1.000  C
  N12      1.0000 0.37443  0.29437  0.03818  Biso   1.000  N
  C13      1.0000 0.61420  0.09930  0.35723  Biso   1.000  C
  N13      1.0000 0.58660  0.95890  0.37151  Biso   1.000  N
  C14      1.0000 0.28087  0.43263  0.69056  Biso   1.000  C
  N14      1.0000 0.25327  0.29223  0.70484  Biso   1.000  N
  C15      1.0000 0.94753  0.76597  0.02390  Biso   1.000  C
  N15      1.0000 0.91993  0.62557  0.03818  Biso   1.000  N
  C16      1.0000 0.48510  0.38580  0.35723  Biso   1.000  C
  N16      1.0000 0.37230  0.41340  0.37151  Biso   1.000  N
  C17      1.0000 0.15177  0.71913  0.69056  Biso   1.000  C
  N17      1.0000 0.03897  0.74673  0.70484  Biso   1.000  N
  C18      1.0000 0.81843  0.05247  0.02390  Biso   1.000  C
  N18      1.0000 0.70563  0.08007  0.03818  Biso   1.000  N
  C19      1.0000 0.48510  0.09930  0.85723  Biso   1.000  C
  N19      1.0000 0.37230  0.95890  0.87151  Biso   1.000  N
  C20      1.0000 0.15177  0.43263  0.19056  Biso   1.000  C
  N20      1.0000 0.03897  0.29223  0.20484  Biso   1.000  N
  C21      1.0000 0.81843  0.76597  0.52390  Biso   1.000  C
  N21      1.0000 0.70563  0.62557  0.53818  Biso   1.000  N
  C22      1.0000 0.90070  0.38580  0.85723  Biso   1.000  C
  N22      1.0000 0.04110  0.41340  0.87151  Biso   1.000  N
  C23      1.0000 0.56737  0.71913  0.19056  Biso   1.000  C
  N23      1.0000 0.70777  0.74673  0.20484  Biso   1.000  N
  C24      1.0000 0.23403  0.05247  0.52390  Biso   1.000  C
  N24      1.0000 0.37443  0.08007  0.53818  Biso   1.000  N
  C25      1.0000 0.61420  0.51490  0.85723  Biso   1.000  C
  N25      1.0000 0.58660  0.62770  0.87151  Biso   1.000  N
  C26      1.0000 0.28087  0.84823  0.19056  Biso   1.000  C
  N26      1.0000 0.25327  0.96103  0.20484  Biso   1.000  N
  C27      1.0000 0.94753  0.18157  0.52390  Biso   1.000  C
  N27      1.0000 0.91993  0.29437  0.53818  Biso   1.000  N
  C28      1.0000 0.09930  0.48510  0.64277  Biso   1.000  C
  N28      1.0000 0.95890  0.37230  0.62849  Biso   1.000  N
  C29      1.0000 0.76597  0.81843  0.97610  Biso   1.000  C
  N29      1.0000 0.62557  0.70563  0.96182  Biso   1.000  N
  C30      1.0000 0.43263  0.15177  0.30944  Biso   1.000  C
  N30      1.0000 0.29223  0.03897  0.29516  Biso   1.000  N
  C31      1.0000 0.38580  0.90070  0.64277  Biso   1.000  C
  N31      1.0000 0.41340  0.04110  0.62849  Biso   1.000  N
  C32      1.0000 0.05247  0.23403  0.97610  Biso   1.000  C
  N32      1.0000 0.08007  0.37443  0.96182  Biso   1.000  N
  C33      1.0000 0.71913  0.56737  0.30944  Biso   1.000  C
  N33      1.0000 0.74673  0.70777  0.29516  Biso   1.000  N
  C34      1.0000 0.51490  0.61420  0.64277  Biso   1.000  C
  N34      1.0000 0.62770  0.58660  0.62849  Biso   1.000  N
  C35      1.0000 0.18157  0.94753  0.97610  Biso   1.000  C
  N35      1.0000 0.29437  0.91993  0.96182  Biso   1.000  N
  C36      1.0000 0.84823  0.28087  0.30944  Biso   1.000  C
  N36      1.0000 0.96103  0.25327  0.29516  Biso   1.000  N
  Fe1      1.0000 0.33333  0.66667  0.16667  Biso   1.000  Fe
  Fe2      1.0000 0.00000  0.00000  0.50000  Biso   1.000  Fe
  Fe3      1.0000 0.66667  0.33333  0.33333  Biso   1.000  Fe
  Fe4      1.0000 0.33333  0.66667  0.66667  Biso   1.000  Fe
  Fe5      1.0000 0.66667  0.33333  0.83333  Biso   1.000  Fe
  Fe6      1.0000 0.00000  0.00000  0.00000  Biso   1.000  Fe
  Ba1      1.0000 0.66667  0.33333  0.08333  Biso   1.000  Ba
  Ba2      1.0000 0.00000  0.00000  0.75000  Biso   1.000  Ba
  Ba3      1.0000 0.33333  0.66667  0.41667  Biso   1.000  Ba
  Ba4      1.0000 0.33333  0.66667  0.91667  Biso   1.000  Ba
  Ba5      1.0000 0.00000  0.00000  0.25000  Biso   1.000  Ba
  Ba6      1.0000 0.66667  0.33333  0.58333  Biso   1.000  Ba
