data_image0
_cell_length_a       11.722
_cell_length_b       11.722
_cell_length_c       23.74
_cell_angle_alpha    90
_cell_angle_beta     90
_cell_angle_gamma    90

_symmetry_space_group_name_H-M    "P 1"
_symmetry_int_tables_number       1

loop_
  _symmetry_equiv_pos_as_xyz
  'x, y, z'

loop_
  _atom_site_label
  _atom_site_occupancy
  _atom_site_fract_x
  _atom_site_fract_y
  _atom_site_fract_z
  _atom_site_thermal_displace_type
  _atom_site_B_iso_or_equiv
  _atom_site_type_symbol
  O1       1.0000 0.40650  0.11930  0.05970  Biso   1.000  O
  C1       1.0000 0.39860  0.35880  0.18840  Biso   1.000  C
  C2       1.0000 0.39910  0.27350  0.14390  Biso   1.000  C
  H1       1.0000 0.32860  0.38790  0.20250  Biso   1.000  H
  H2       1.0000 0.32990  0.24320  0.12940  Biso   1.000  H
  O2       1.0000 0.59350  0.88070  0.05970  Biso   1.000  O
  C3       1.0000 0.60140  0.64120  0.18840  Biso   1.000  C
  C4       1.0000 0.60090  0.72650  0.14390  Biso   1.000  C
  H3       1.0000 0.67140  0.61210  0.20250  Biso   1.000  H
  H4       1.0000 0.67010  0.75680  0.12940  Biso   1.000  H
  O3       1.0000 0.88070  0.40650  0.55970  Biso   1.000  O
  C5       1.0000 0.64120  0.39860  0.68840  Biso   1.000  C
  C6       1.0000 0.72650  0.39910  0.64390  Biso   1.000  C
  H5       1.0000 0.61210  0.32860  0.70250  Biso   1.000  H
  H6       1.0000 0.75680  0.32990  0.62940  Biso   1.000  H
  O4       1.0000 0.11930  0.59350  0.55970  Biso   1.000  O
  C7       1.0000 0.35880  0.60140  0.68840  Biso   1.000  C
  C8       1.0000 0.27350  0.60090  0.64390  Biso   1.000  C
  H7       1.0000 0.38790  0.67140  0.70250  Biso   1.000  H
  H8       1.0000 0.24320  0.67010  0.62940  Biso   1.000  H
  O5       1.0000 0.59350  0.11930  0.94030  Biso   1.000  O
  C9       1.0000 0.60140  0.35880  0.81160  Biso   1.000  C
  C10      1.0000 0.60090  0.27350  0.85610  Biso   1.000  C
  H9       1.0000 0.67140  0.38790  0.79750  Biso   1.000  H
  H10      1.0000 0.67010  0.24320  0.87060  Biso   1.000  H
  O6       1.0000 0.40650  0.88070  0.94030  Biso   1.000  O
  C11      1.0000 0.39860  0.64120  0.81160  Biso   1.000  C
  C12      1.0000 0.39910  0.72650  0.85610  Biso   1.000  C
  H11      1.0000 0.32860  0.61210  0.79750  Biso   1.000  H
  H12      1.0000 0.32990  0.75680  0.87060  Biso   1.000  H
  O7       1.0000 0.11930  0.40650  0.44030  Biso   1.000  O
  C13      1.0000 0.35880  0.39860  0.31160  Biso   1.000  C
  C14      1.0000 0.27350  0.39910  0.35610  Biso   1.000  C
  H13      1.0000 0.38790  0.32860  0.29750  Biso   1.000  H
  H14      1.0000 0.24320  0.32990  0.37060  Biso   1.000  H
  O8       1.0000 0.88070  0.59350  0.44030  Biso   1.000  O
  C15      1.0000 0.64120  0.60140  0.31160  Biso   1.000  C
  C16      1.0000 0.72650  0.60090  0.35610  Biso   1.000  C
  H15      1.0000 0.61210  0.67140  0.29750  Biso   1.000  H
  H16      1.0000 0.75680  0.67010  0.37060  Biso   1.000  H
  O9       1.0000 0.59350  0.88070  0.94030  Biso   1.000  O
  C17      1.0000 0.60140  0.64120  0.81160  Biso   1.000  C
  C18      1.0000 0.60090  0.72650  0.85610  Biso   1.000  C
  H17      1.0000 0.67140  0.61210  0.79750  Biso   1.000  H
  H18      1.0000 0.67010  0.75680  0.87060  Biso   1.000  H
  O10      1.0000 0.40650  0.11930  0.94030  Biso   1.000  O
  C19      1.0000 0.39860  0.35880  0.81160  Biso   1.000  C
  C20      1.0000 0.39910  0.27350  0.85610  Biso   1.000  C
  H19      1.0000 0.32860  0.38790  0.79750  Biso   1.000  H
  H20      1.0000 0.32990  0.24320  0.87060  Biso   1.000  H
  O11      1.0000 0.11930  0.59350  0.44030  Biso   1.000  O
  C21      1.0000 0.35880  0.60140  0.31160  Biso   1.000  C
  C22      1.0000 0.27350  0.60090  0.35610  Biso   1.000  C
  H21      1.0000 0.38790  0.67140  0.29750  Biso   1.000  H
  H22      1.0000 0.24320  0.67010  0.37060  Biso   1.000  H
  O12      1.0000 0.88070  0.40650  0.44030  Biso   1.000  O
  C23      1.0000 0.64120  0.39860  0.31160  Biso   1.000  C
  C24      1.0000 0.72650  0.39910  0.35610  Biso   1.000  C
  H23      1.0000 0.61210  0.32860  0.29750  Biso   1.000  H
  H24      1.0000 0.75680  0.32990  0.37060  Biso   1.000  H
  O13      1.0000 0.40650  0.88070  0.05970  Biso   1.000  O
  C25      1.0000 0.39860  0.64120  0.18840  Biso   1.000  C
  C26      1.0000 0.39910  0.72650  0.14390  Biso   1.000  C
  H25      1.0000 0.32860  0.61210  0.20250  Biso   1.000  H
  H26      1.0000 0.32990  0.75680  0.12940  Biso   1.000  H
  O14      1.0000 0.59350  0.11930  0.05970  Biso   1.000  O
  C27      1.0000 0.60140  0.35880  0.18840  Biso   1.000  C
  C28      1.0000 0.60090  0.27350  0.14390  Biso   1.000  C
  H27      1.0000 0.67140  0.38790  0.20250  Biso   1.000  H
  H28      1.0000 0.67010  0.24320  0.12940  Biso   1.000  H
  O15      1.0000 0.88070  0.59350  0.55970  Biso   1.000  O
  C29      1.0000 0.64120  0.60140  0.68840  Biso   1.000  C
  C30      1.0000 0.72650  0.60090  0.64390  Biso   1.000  C
  H29      1.0000 0.61210  0.67140  0.70250  Biso   1.000  H
  H30      1.0000 0.75680  0.67010  0.62940  Biso   1.000  H
  O16      1.0000 0.11930  0.40650  0.55970  Biso   1.000  O
  C31      1.0000 0.35880  0.39860  0.68840  Biso   1.000  C
  C32      1.0000 0.27350  0.39910  0.64390  Biso   1.000  C
  H31      1.0000 0.38790  0.32860  0.70250  Biso   1.000  H
  H32      1.0000 0.24320  0.32990  0.62940  Biso   1.000  H
  Zn1      1.0000 0.37430  0.00000  0.00000  Biso   1.000  Zn
  O17      1.0000 0.21400  0.00000  0.00000  Biso   1.000  O
  Zn2      1.0000 0.62570  0.00000  0.00000  Biso   1.000  Zn
  O18      1.0000 0.78600  0.00000  0.00000  Biso   1.000  O
  Zn3      1.0000 0.00000  0.37430  0.50000  Biso   1.000  Zn
  O19      1.0000 0.00000  0.21400  0.50000  Biso   1.000  O
  Zn4      1.0000 0.00000  0.62570  0.50000  Biso   1.000  Zn
  O20      1.0000 0.00000  0.78600  0.50000  Biso   1.000  O
  C33      1.0000 0.50000  0.50000  0.25000  Biso   1.000  C
  C34      1.0000 0.50000  0.50000  0.75000  Biso   1.000  C
  C35      1.0000 0.50000  0.39640  0.20970  Biso   1.000  C
  C36      1.0000 0.50000  0.23920  0.12410  Biso   1.000  C
  C37      1.0000 0.50000  0.15020  0.07740  Biso   1.000  C
  C38      1.0000 0.50000  0.60360  0.20970  Biso   1.000  C
  C39      1.0000 0.50000  0.76080  0.12410  Biso   1.000  C
  C40      1.0000 0.50000  0.84980  0.07740  Biso   1.000  C
  C41      1.0000 0.60360  0.50000  0.70970  Biso   1.000  C
  C42      1.0000 0.76080  0.50000  0.62410  Biso   1.000  C
  C43      1.0000 0.84980  0.50000  0.57740  Biso   1.000  C
  C44      1.0000 0.39640  0.50000  0.70970  Biso   1.000  C
  C45      1.0000 0.23920  0.50000  0.62410  Biso   1.000  C
  C46      1.0000 0.15020  0.50000  0.57740  Biso   1.000  C
  C47      1.0000 0.50000  0.39640  0.79030  Biso   1.000  C
  C48      1.0000 0.50000  0.23920  0.87590  Biso   1.000  C
  C49      1.0000 0.50000  0.15020  0.92260  Biso   1.000  C
  C50      1.0000 0.50000  0.60360  0.79030  Biso   1.000  C
  C51      1.0000 0.50000  0.76080  0.87590  Biso   1.000  C
  C52      1.0000 0.50000  0.84980  0.92260  Biso   1.000  C
  C53      1.0000 0.39640  0.50000  0.29030  Biso   1.000  C
  C54      1.0000 0.23920  0.50000  0.37590  Biso   1.000  C
  C55      1.0000 0.15020  0.50000  0.42260  Biso   1.000  C
  C56      1.0000 0.60360  0.50000  0.29030  Biso   1.000  C
  C57      1.0000 0.76080  0.50000  0.37590  Biso   1.000  C
  C58      1.0000 0.84980  0.50000  0.42260  Biso   1.000  C
  C59      1.0000 0.38200  0.12000  0.00000  Biso   1.000  C
  C60      1.0000 0.24800  0.06600  0.00000  Biso   1.000  C
  H33      1.0000 0.14310  0.05330  0.00000  Biso   1.000  H
  C61      1.0000 0.61800  0.88000  0.00000  Biso   1.000  C
  C62      1.0000 0.75200  0.93400  0.00000  Biso   1.000  C
  H34      1.0000 0.85690  0.94670  0.00000  Biso   1.000  H
  C63      1.0000 0.88000  0.38200  0.50000  Biso   1.000  C
  C64      1.0000 0.93400  0.24800  0.50000  Biso   1.000  C
  H35      1.0000 0.94670  0.14310  0.50000  Biso   1.000  H
  C65      1.0000 0.12000  0.61800  0.50000  Biso   1.000  C
  C66      1.0000 0.06600  0.75200  0.50000  Biso   1.000  C
  H36      1.0000 0.05330  0.85690  0.50000  Biso   1.000  H
  C67      1.0000 0.61800  0.12000  0.00000  Biso   1.000  C
  C68      1.0000 0.75200  0.06600  0.00000  Biso   1.000  C
  H37      1.0000 0.85690  0.05330  0.00000  Biso   1.000  H
  C69      1.0000 0.38200  0.88000  0.00000  Biso   1.000  C
  C70      1.0000 0.24800  0.93400  0.00000  Biso   1.000  C
  H38      1.0000 0.14310  0.94670  0.00000  Biso   1.000  H
  C71      1.0000 0.12000  0.38200  0.50000  Biso   1.000  C
  C72      1.0000 0.06600  0.24800  0.50000  Biso   1.000  C
  H39      1.0000 0.05330  0.14310  0.50000  Biso   1.000  H
  C73      1.0000 0.88000  0.61800  0.50000  Biso   1.000  C
  C74      1.0000 0.93400  0.75200  0.50000  Biso   1.000  C
  H40      1.0000 0.94670  0.85690  0.50000  Biso   1.000  H
  C75      1.0000 0.50000  0.00000  0.00000  Biso   1.000  C
  C76      1.0000 0.00000  0.50000  0.50000  Biso   1.000  C
  C77      1.0000 0.50000  0.00000  0.06900  Biso   1.000  C
  C78      1.0000 0.00000  0.50000  0.56900  Biso   1.000  C
  C79      1.0000 0.50000  0.00000  0.93100  Biso   1.000  C
  C80      1.0000 0.00000  0.50000  0.43100  Biso   1.000  C
