data_image0
_cell_length_a       20.6571
_cell_length_b       20.6571
_cell_length_c       17.84
_cell_angle_alpha    90
_cell_angle_beta     90
_cell_angle_gamma    90

_symmetry_space_group_name_H-M    "P 1"
_symmetry_int_tables_number       1

loop_
  _symmetry_equiv_pos_as_xyz
  'x, y, z'

loop_
  _atom_site_label
  _atom_site_occupancy
  _atom_site_fract_x
  _atom_site_fract_y
  _atom_site_fract_z
  _atom_site_thermal_displace_type
  _atom_site_B_iso_or_equiv
  _atom_site_type_symbol
  Zn1      1.0000 0.24525  0.37745  0.00000  Biso   1.000  Zn
  O1       1.0000 0.26040  0.33640  0.16070  Biso   1.000  O
  O2       1.0000 0.31130  0.32380  0.05140  Biso   1.000  O
  O3       1.0000 0.55900  0.16710  0.13690  Biso   1.000  O
  O4       1.0000 0.53930  0.24630  0.05290  Biso   1.000  O
  O5       1.0000 0.44780  0.18900  0.38360  Biso   1.000  O
  O6       1.0000 0.37130  0.26480  0.39350  Biso   1.000  O
  C1       1.0000 0.36250  0.28360  0.15860  Biso   1.000  C
  C2       1.0000 0.41620  0.26460  0.11890  Biso   1.000  C
  C3       1.0000 0.46680  0.23230  0.15360  Biso   1.000  C
  C4       1.0000 0.46360  0.21880  0.23070  Biso   1.000  C
  C5       1.0000 0.41050  0.24020  0.27170  Biso   1.000  C
  C6       1.0000 0.36020  0.27230  0.23760  Biso   1.000  C
  C7       1.0000 0.30610  0.31640  0.12160  Biso   1.000  C
  C8       1.0000 0.52710  0.21180  0.11230  Biso   1.000  C
  C9       1.0000 0.41110  0.22850  0.35600  Biso   1.000  C
  H1       1.0000 0.41840  0.27440  0.06680  Biso   1.000  H
  H2       1.0000 0.49650  0.19330  0.25450  Biso   1.000  H
  H3       1.0000 0.32390  0.28700  0.26610  Biso   1.000  H
  Zn2      1.0000 0.74525  0.87745  0.50000  Biso   1.000  Zn
  O7       1.0000 0.76040  0.83640  0.66070  Biso   1.000  O
  O8       1.0000 0.81130  0.82380  0.55140  Biso   1.000  O
  O9       1.0000 0.05900  0.66710  0.63690  Biso   1.000  O
  O10      1.0000 0.03930  0.74630  0.55290  Biso   1.000  O
  O11      1.0000 0.94780  0.68900  0.88360  Biso   1.000  O
  O12      1.0000 0.87130  0.76480  0.89350  Biso   1.000  O
  C10      1.0000 0.86250  0.78360  0.65860  Biso   1.000  C
  C11      1.0000 0.91620  0.76460  0.61890  Biso   1.000  C
  C12      1.0000 0.96680  0.73230  0.65360  Biso   1.000  C
  C13      1.0000 0.96360  0.71880  0.73070  Biso   1.000  C
  C14      1.0000 0.91050  0.74020  0.77170  Biso   1.000  C
  C15      1.0000 0.86020  0.77230  0.73760  Biso   1.000  C
  C16      1.0000 0.80610  0.81640  0.62160  Biso   1.000  C
  C17      1.0000 0.02710  0.71180  0.61230  Biso   1.000  C
  C18      1.0000 0.91110  0.72850  0.85600  Biso   1.000  C
  H4       1.0000 0.91840  0.77440  0.56680  Biso   1.000  H
  H5       1.0000 0.99650  0.69330  0.75450  Biso   1.000  H
  H6       1.0000 0.82390  0.78700  0.76610  Biso   1.000  H
  Zn3      1.0000 0.75475  0.62255  0.00000  Biso   1.000  Zn
  O13      1.0000 0.73960  0.66360  0.16070  Biso   1.000  O
  O14      1.0000 0.68870  0.67620  0.05140  Biso   1.000  O
  O15      1.0000 0.44100  0.83290  0.13690  Biso   1.000  O
  O16      1.0000 0.46070  0.75370  0.05290  Biso   1.000  O
  O17      1.0000 0.55220  0.81100  0.38360  Biso   1.000  O
  O18      1.0000 0.62870  0.73520  0.39350  Biso   1.000  O
  C19      1.0000 0.63750  0.71640  0.15860  Biso   1.000  C
  C20      1.0000 0.58380  0.73540  0.11890  Biso   1.000  C
  C21      1.0000 0.53320  0.76770  0.15360  Biso   1.000  C
  C22      1.0000 0.53640  0.78120  0.23070  Biso   1.000  C
  C23      1.0000 0.58950  0.75980  0.27170  Biso   1.000  C
  C24      1.0000 0.63980  0.72770  0.23760  Biso   1.000  C
  C25      1.0000 0.69390  0.68360  0.12160  Biso   1.000  C
  C26      1.0000 0.47290  0.78820  0.11230  Biso   1.000  C
  C27      1.0000 0.58890  0.77150  0.35600  Biso   1.000  C
  H7       1.0000 0.58160  0.72560  0.06680  Biso   1.000  H
  H8       1.0000 0.50350  0.80670  0.25450  Biso   1.000  H
  H9       1.0000 0.67610  0.71300  0.26610  Biso   1.000  H
  Zn4      1.0000 0.25475  0.12255  0.50000  Biso   1.000  Zn
  O19      1.0000 0.23960  0.16360  0.66070  Biso   1.000  O
  O20      1.0000 0.18870  0.17620  0.55140  Biso   1.000  O
  O21      1.0000 0.94100  0.33290  0.63690  Biso   1.000  O
  O22      1.0000 0.96070  0.25370  0.55290  Biso   1.000  O
  O23      1.0000 0.05220  0.31100  0.88360  Biso   1.000  O
  O24      1.0000 0.12870  0.23520  0.89350  Biso   1.000  O
  C28      1.0000 0.13750  0.21640  0.65860  Biso   1.000  C
  C29      1.0000 0.08380  0.23540  0.61890  Biso   1.000  C
  C30      1.0000 0.03320  0.26770  0.65360  Biso   1.000  C
  C31      1.0000 0.03640  0.28120  0.73070  Biso   1.000  C
  C32      1.0000 0.08950  0.25980  0.77170  Biso   1.000  C
  C33      1.0000 0.13980  0.22770  0.73760  Biso   1.000  C
  C34      1.0000 0.19390  0.18360  0.62160  Biso   1.000  C
  C35      1.0000 0.97290  0.28820  0.61230  Biso   1.000  C
  C36      1.0000 0.08890  0.27150  0.85600  Biso   1.000  C
  H10      1.0000 0.08160  0.22560  0.56680  Biso   1.000  H
  H11      1.0000 0.00350  0.30670  0.75450  Biso   1.000  H
  H12      1.0000 0.17610  0.21300  0.76610  Biso   1.000  H
  Zn5      1.0000 0.62255  0.24525  0.00000  Biso   1.000  Zn
  O25      1.0000 0.66360  0.26040  0.16070  Biso   1.000  O
  O26      1.0000 0.67620  0.31130  0.05140  Biso   1.000  O
  O27      1.0000 0.83290  0.55900  0.13690  Biso   1.000  O
  O28      1.0000 0.75370  0.53930  0.05290  Biso   1.000  O
  O29      1.0000 0.81100  0.44780  0.38360  Biso   1.000  O
  O30      1.0000 0.73520  0.37130  0.39350  Biso   1.000  O
  C37      1.0000 0.71640  0.36250  0.15860  Biso   1.000  C
  C38      1.0000 0.73540  0.41620  0.11890  Biso   1.000  C
  C39      1.0000 0.76770  0.46680  0.15360  Biso   1.000  C
  C40      1.0000 0.78120  0.46360  0.23070  Biso   1.000  C
  C41      1.0000 0.75980  0.41050  0.27170  Biso   1.000  C
  C42      1.0000 0.72770  0.36020  0.23760  Biso   1.000  C
  C43      1.0000 0.68360  0.30610  0.12160  Biso   1.000  C
  C44      1.0000 0.78820  0.52710  0.11230  Biso   1.000  C
  C45      1.0000 0.77150  0.41110  0.35600  Biso   1.000  C
  H13      1.0000 0.72560  0.41840  0.06680  Biso   1.000  H
  H14      1.0000 0.80670  0.49650  0.25450  Biso   1.000  H
  H15      1.0000 0.71300  0.32390  0.26610  Biso   1.000  H
  Zn6      1.0000 0.12255  0.74525  0.50000  Biso   1.000  Zn
  O31      1.0000 0.16360  0.76040  0.66070  Biso   1.000  O
  O32      1.0000 0.17620  0.81130  0.55140  Biso   1.000  O
  O33      1.0000 0.33290  0.05900  0.63690  Biso   1.000  O
  O34      1.0000 0.25370  0.03930  0.55290  Biso   1.000  O
  O35      1.0000 0.31100  0.94780  0.88360  Biso   1.000  O
  O36      1.0000 0.23520  0.87130  0.89350  Biso   1.000  O
  C46      1.0000 0.21640  0.86250  0.65860  Biso   1.000  C
  C47      1.0000 0.23540  0.91620  0.61890  Biso   1.000  C
  C48      1.0000 0.26770  0.96680  0.65360  Biso   1.000  C
  C49      1.0000 0.28120  0.96360  0.73070  Biso   1.000  C
  C50      1.0000 0.25980  0.91050  0.77170  Biso   1.000  C
  C51      1.0000 0.22770  0.86020  0.73760  Biso   1.000  C
  C52      1.0000 0.18360  0.80610  0.62160  Biso   1.000  C
  C53      1.0000 0.28820  0.02710  0.61230  Biso   1.000  C
  C54      1.0000 0.27150  0.91110  0.85600  Biso   1.000  C
  H16      1.0000 0.22560  0.91840  0.56680  Biso   1.000  H
  H17      1.0000 0.30670  0.99650  0.75450  Biso   1.000  H
  H18      1.0000 0.21300  0.82390  0.76610  Biso   1.000  H
  Zn7      1.0000 0.37745  0.75475  0.00000  Biso   1.000  Zn
  O37      1.0000 0.33640  0.73960  0.16070  Biso   1.000  O
  O38      1.0000 0.32380  0.68870  0.05140  Biso   1.000  O
  O39      1.0000 0.16710  0.44100  0.13690  Biso   1.000  O
  O40      1.0000 0.24630  0.46070  0.05290  Biso   1.000  O
  O41      1.0000 0.18900  0.55220  0.38360  Biso   1.000  O
  O42      1.0000 0.26480  0.62870  0.39350  Biso   1.000  O
  C55      1.0000 0.28360  0.63750  0.15860  Biso   1.000  C
  C56      1.0000 0.26460  0.58380  0.11890  Biso   1.000  C
  C57      1.0000 0.23230  0.53320  0.15360  Biso   1.000  C
  C58      1.0000 0.21880  0.53640  0.23070  Biso   1.000  C
  C59      1.0000 0.24020  0.58950  0.27170  Biso   1.000  C
  C60      1.0000 0.27230  0.63980  0.23760  Biso   1.000  C
  C61      1.0000 0.31640  0.69390  0.12160  Biso   1.000  C
  C62      1.0000 0.21180  0.47290  0.11230  Biso   1.000  C
  C63      1.0000 0.22850  0.58890  0.35600  Biso   1.000  C
  H19      1.0000 0.27440  0.58160  0.06680  Biso   1.000  H
  H20      1.0000 0.19330  0.50350  0.25450  Biso   1.000  H
  H21      1.0000 0.28700  0.67610  0.26610  Biso   1.000  H
  Zn8      1.0000 0.87745  0.25475  0.50000  Biso   1.000  Zn
  O43      1.0000 0.83640  0.23960  0.66070  Biso   1.000  O
  O44      1.0000 0.82380  0.18870  0.55140  Biso   1.000  O
  O45      1.0000 0.66710  0.94100  0.63690  Biso   1.000  O
  O46      1.0000 0.74630  0.96070  0.55290  Biso   1.000  O
  O47      1.0000 0.68900  0.05220  0.88360  Biso   1.000  O
  O48      1.0000 0.76480  0.12870  0.89350  Biso   1.000  O
  C64      1.0000 0.78360  0.13750  0.65860  Biso   1.000  C
  C65      1.0000 0.76460  0.08380  0.61890  Biso   1.000  C
  C66      1.0000 0.73230  0.03320  0.65360  Biso   1.000  C
  C67      1.0000 0.71880  0.03640  0.73070  Biso   1.000  C
  C68      1.0000 0.74020  0.08950  0.77170  Biso   1.000  C
  C69      1.0000 0.77230  0.13980  0.73760  Biso   1.000  C
  C70      1.0000 0.81640  0.19390  0.62160  Biso   1.000  C
  C71      1.0000 0.71180  0.97290  0.61230  Biso   1.000  C
  C72      1.0000 0.72850  0.08890  0.85600  Biso   1.000  C
  H22      1.0000 0.77440  0.08160  0.56680  Biso   1.000  H
  H23      1.0000 0.69330  0.00350  0.75450  Biso   1.000  H
  H24      1.0000 0.78700  0.17610  0.76610  Biso   1.000  H
  Zn9      1.0000 0.24525  0.62255  0.50000  Biso   1.000  Zn
  O49      1.0000 0.26040  0.66360  0.66070  Biso   1.000  O
  O50      1.0000 0.31130  0.67620  0.55140  Biso   1.000  O
  O51      1.0000 0.55900  0.83290  0.63690  Biso   1.000  O
  O52      1.0000 0.53930  0.75370  0.55290  Biso   1.000  O
  O53      1.0000 0.44780  0.81100  0.88360  Biso   1.000  O
  O54      1.0000 0.37130  0.73520  0.89350  Biso   1.000  O
  C73      1.0000 0.36250  0.71640  0.65860  Biso   1.000  C
  C74      1.0000 0.41620  0.73540  0.61890  Biso   1.000  C
  C75      1.0000 0.46680  0.76770  0.65360  Biso   1.000  C
  C76      1.0000 0.46360  0.78120  0.73070  Biso   1.000  C
  C77      1.0000 0.41050  0.75980  0.77170  Biso   1.000  C
  C78      1.0000 0.36020  0.72770  0.73760  Biso   1.000  C
  C79      1.0000 0.30610  0.68360  0.62160  Biso   1.000  C
  C80      1.0000 0.52710  0.78820  0.61230  Biso   1.000  C
  C81      1.0000 0.41110  0.77150  0.85600  Biso   1.000  C
  H25      1.0000 0.41840  0.72560  0.56680  Biso   1.000  H
  H26      1.0000 0.49650  0.80670  0.75450  Biso   1.000  H
  H27      1.0000 0.32390  0.71300  0.76610  Biso   1.000  H
  Zn10     1.0000 0.74525  0.12255  0.00000  Biso   1.000  Zn
  O55      1.0000 0.76040  0.16360  0.16070  Biso   1.000  O
  O56      1.0000 0.81130  0.17620  0.05140  Biso   1.000  O
  O57      1.0000 0.05900  0.33290  0.13690  Biso   1.000  O
  O58      1.0000 0.03930  0.25370  0.05290  Biso   1.000  O
  O59      1.0000 0.94780  0.31100  0.38360  Biso   1.000  O
  O60      1.0000 0.87130  0.23520  0.39350  Biso   1.000  O
  C82      1.0000 0.86250  0.21640  0.15860  Biso   1.000  C
  C83      1.0000 0.91620  0.23540  0.11890  Biso   1.000  C
  C84      1.0000 0.96680  0.26770  0.15360  Biso   1.000  C
  C85      1.0000 0.96360  0.28120  0.23070  Biso   1.000  C
  C86      1.0000 0.91050  0.25980  0.27170  Biso   1.000  C
  C87      1.0000 0.86020  0.22770  0.23760  Biso   1.000  C
  C88      1.0000 0.80610  0.18360  0.12160  Biso   1.000  C
  C89      1.0000 0.02710  0.28820  0.11230  Biso   1.000  C
  C90      1.0000 0.91110  0.27150  0.35600  Biso   1.000  C
  H28      1.0000 0.91840  0.22560  0.06680  Biso   1.000  H
  H29      1.0000 0.99650  0.30670  0.25450  Biso   1.000  H
  H30      1.0000 0.82390  0.21300  0.26610  Biso   1.000  H
  Zn11     1.0000 0.75475  0.37745  0.50000  Biso   1.000  Zn
  O61      1.0000 0.73960  0.33640  0.66070  Biso   1.000  O
  O62      1.0000 0.68870  0.32380  0.55140  Biso   1.000  O
  O63      1.0000 0.44100  0.16710  0.63690  Biso   1.000  O
  O64      1.0000 0.46070  0.24630  0.55290  Biso   1.000  O
  O65      1.0000 0.55220  0.18900  0.88360  Biso   1.000  O
  O66      1.0000 0.62870  0.26480  0.89350  Biso   1.000  O
  C91      1.0000 0.63750  0.28360  0.65860  Biso   1.000  C
  C92      1.0000 0.58380  0.26460  0.61890  Biso   1.000  C
  C93      1.0000 0.53320  0.23230  0.65360  Biso   1.000  C
  C94      1.0000 0.53640  0.21880  0.73070  Biso   1.000  C
  C95      1.0000 0.58950  0.24020  0.77170  Biso   1.000  C
  C96      1.0000 0.63980  0.27230  0.73760  Biso   1.000  C
  C97      1.0000 0.69390  0.31640  0.62160  Biso   1.000  C
  C98      1.0000 0.47290  0.21180  0.61230  Biso   1.000  C
  C99      1.0000 0.58890  0.22850  0.85600  Biso   1.000  C
  H31      1.0000 0.58160  0.27440  0.56680  Biso   1.000  H
  H32      1.0000 0.50350  0.19330  0.75450  Biso   1.000  H
  H33      1.0000 0.67610  0.28700  0.76610  Biso   1.000  H
  Zn12     1.0000 0.25475  0.87745  0.00000  Biso   1.000  Zn
  O67      1.0000 0.23960  0.83640  0.16070  Biso   1.000  O
  O68      1.0000 0.18870  0.82380  0.05140  Biso   1.000  O
  O69      1.0000 0.94100  0.66710  0.13690  Biso   1.000  O
  O70      1.0000 0.96070  0.74630  0.05290  Biso   1.000  O
  O71      1.0000 0.05220  0.68900  0.38360  Biso   1.000  O
  O72      1.0000 0.12870  0.76480  0.39350  Biso   1.000  O
  C100     1.0000 0.13750  0.78360  0.15860  Biso   1.000  C
  C101     1.0000 0.08380  0.76460  0.11890  Biso   1.000  C
  C102     1.0000 0.03320  0.73230  0.15360  Biso   1.000  C
  C103     1.0000 0.03640  0.71880  0.23070  Biso   1.000  C
  C104     1.0000 0.08950  0.74020  0.27170  Biso   1.000  C
  C105     1.0000 0.13980  0.77230  0.23760  Biso   1.000  C
  C106     1.0000 0.19390  0.81640  0.12160  Biso   1.000  C
  C107     1.0000 0.97290  0.71180  0.11230  Biso   1.000  C
  C108     1.0000 0.08890  0.72850  0.35600  Biso   1.000  C
  H34      1.0000 0.08160  0.77440  0.06680  Biso   1.000  H
  H35      1.0000 0.00350  0.69330  0.25450  Biso   1.000  H
  H36      1.0000 0.17610  0.78700  0.26610  Biso   1.000  H
  Zn13     1.0000 0.62255  0.75475  0.50000  Biso   1.000  Zn
  O73      1.0000 0.66360  0.73960  0.66070  Biso   1.000  O
  O74      1.0000 0.67620  0.68870  0.55140  Biso   1.000  O
  O75      1.0000 0.83290  0.44100  0.63690  Biso   1.000  O
  O76      1.0000 0.75370  0.46070  0.55290  Biso   1.000  O
  O77      1.0000 0.81100  0.55220  0.88360  Biso   1.000  O
  O78      1.0000 0.73520  0.62870  0.89350  Biso   1.000  O
  C109     1.0000 0.71640  0.63750  0.65860  Biso   1.000  C
  C110     1.0000 0.73540  0.58380  0.61890  Biso   1.000  C
  C111     1.0000 0.76770  0.53320  0.65360  Biso   1.000  C
  C112     1.0000 0.78120  0.53640  0.73070  Biso   1.000  C
  C113     1.0000 0.75980  0.58950  0.77170  Biso   1.000  C
  C114     1.0000 0.72770  0.63980  0.73760  Biso   1.000  C
  C115     1.0000 0.68360  0.69390  0.62160  Biso   1.000  C
  C116     1.0000 0.78820  0.47290  0.61230  Biso   1.000  C
  C117     1.0000 0.77150  0.58890  0.85600  Biso   1.000  C
  H37      1.0000 0.72560  0.58160  0.56680  Biso   1.000  H
  H38      1.0000 0.80670  0.50350  0.75450  Biso   1.000  H
  H39      1.0000 0.71300  0.67610  0.76610  Biso   1.000  H
  Zn14     1.0000 0.12255  0.25475  0.00000  Biso   1.000  Zn
  O79      1.0000 0.16360  0.23960  0.16070  Biso   1.000  O
  O80      1.0000 0.17620  0.18870  0.05140  Biso   1.000  O
  O81      1.0000 0.33290  0.94100  0.13690  Biso   1.000  O
  O82      1.0000 0.25370  0.96070  0.05290  Biso   1.000  O
  O83      1.0000 0.31100  0.05220  0.38360  Biso   1.000  O
  O84      1.0000 0.23520  0.12870  0.39350  Biso   1.000  O
  C118     1.0000 0.21640  0.13750  0.15860  Biso   1.000  C
  C119     1.0000 0.23540  0.08380  0.11890  Biso   1.000  C
  C120     1.0000 0.26770  0.03320  0.15360  Biso   1.000  C
  C121     1.0000 0.28120  0.03640  0.23070  Biso   1.000  C
  C122     1.0000 0.25980  0.08950  0.27170  Biso   1.000  C
  C123     1.0000 0.22770  0.13980  0.23760  Biso   1.000  C
  C124     1.0000 0.18360  0.19390  0.12160  Biso   1.000  C
  C125     1.0000 0.28820  0.97290  0.11230  Biso   1.000  C
  C126     1.0000 0.27150  0.08890  0.35600  Biso   1.000  C
  H40      1.0000 0.22560  0.08160  0.06680  Biso   1.000  H
  H41      1.0000 0.30670  0.00350  0.25450  Biso   1.000  H
  H42      1.0000 0.21300  0.17610  0.26610  Biso   1.000  H
  Zn15     1.0000 0.37745  0.24525  0.50000  Biso   1.000  Zn
  O85      1.0000 0.33640  0.26040  0.66070  Biso   1.000  O
  O86      1.0000 0.32380  0.31130  0.55140  Biso   1.000  O
  O87      1.0000 0.16710  0.55900  0.63690  Biso   1.000  O
  O88      1.0000 0.24630  0.53930  0.55290  Biso   1.000  O
  O89      1.0000 0.18900  0.44780  0.88360  Biso   1.000  O
  O90      1.0000 0.26480  0.37130  0.89350  Biso   1.000  O
  C127     1.0000 0.28360  0.36250  0.65860  Biso   1.000  C
  C128     1.0000 0.26460  0.41620  0.61890  Biso   1.000  C
  C129     1.0000 0.23230  0.46680  0.65360  Biso   1.000  C
  C130     1.0000 0.21880  0.46360  0.73070  Biso   1.000  C
  C131     1.0000 0.24020  0.41050  0.77170  Biso   1.000  C
  C132     1.0000 0.27230  0.36020  0.73760  Biso   1.000  C
  C133     1.0000 0.31640  0.30610  0.62160  Biso   1.000  C
  C134     1.0000 0.21180  0.52710  0.61230  Biso   1.000  C
  C135     1.0000 0.22850  0.41110  0.85600  Biso   1.000  C
  H43      1.0000 0.27440  0.41840  0.56680  Biso   1.000  H
  H44      1.0000 0.19330  0.49650  0.75450  Biso   1.000  H
  H45      1.0000 0.28700  0.32390  0.76610  Biso   1.000  H
  Zn16     1.0000 0.87745  0.74525  0.00000  Biso   1.000  Zn
  O91      1.0000 0.83640  0.76040  0.16070  Biso   1.000  O
  O92      1.0000 0.82380  0.81130  0.05140  Biso   1.000  O
  O93      1.0000 0.66710  0.05900  0.13690  Biso   1.000  O
  O94      1.0000 0.74630  0.03930  0.05290  Biso   1.000  O
  O95      1.0000 0.68900  0.94780  0.38360  Biso   1.000  O
  O96      1.0000 0.76480  0.87130  0.39350  Biso   1.000  O
  C136     1.0000 0.78360  0.86250  0.15860  Biso   1.000  C
  C137     1.0000 0.76460  0.91620  0.11890  Biso   1.000  C
  C138     1.0000 0.73230  0.96680  0.15360  Biso   1.000  C
  C139     1.0000 0.71880  0.96360  0.23070  Biso   1.000  C
  C140     1.0000 0.74020  0.91050  0.27170  Biso   1.000  C
  C141     1.0000 0.77230  0.86020  0.23760  Biso   1.000  C
  C142     1.0000 0.81640  0.80610  0.12160  Biso   1.000  C
  C143     1.0000 0.71180  0.02710  0.11230  Biso   1.000  C
  C144     1.0000 0.72850  0.91110  0.35600  Biso   1.000  C
  H46      1.0000 0.77440  0.91840  0.06680  Biso   1.000  H
  H47      1.0000 0.69330  0.99650  0.25450  Biso   1.000  H
  H48      1.0000 0.78700  0.82390  0.26610  Biso   1.000  H
  Zn17     1.0000 0.15971  0.34029  0.14506  Biso   1.000  Zn
  O97      1.0000 0.16230  0.33770  0.02700  Biso   1.000  O
  Zn18     1.0000 0.84029  0.65971  0.14506  Biso   1.000  Zn
  O98      1.0000 0.83770  0.66230  0.02700  Biso   1.000  O
  Zn19     1.0000 0.34029  0.15971  0.64506  Biso   1.000  Zn
  O99      1.0000 0.33770  0.16230  0.52700  Biso   1.000  O
  Zn20     1.0000 0.65971  0.15971  0.14506  Biso   1.000  Zn
  O100     1.0000 0.66230  0.16230  0.02700  Biso   1.000  O
  Zn21     1.0000 0.34029  0.84029  0.14506  Biso   1.000  Zn
  O101     1.0000 0.33770  0.83770  0.02700  Biso   1.000  O
  Zn22     1.0000 0.15971  0.65971  0.64506  Biso   1.000  Zn
  O102     1.0000 0.16230  0.66230  0.52700  Biso   1.000  O
  Zn23     1.0000 0.84029  0.34029  0.64506  Biso   1.000  Zn
  O103     1.0000 0.83770  0.33770  0.52700  Biso   1.000  O
  Zn24     1.0000 0.65971  0.84029  0.64506  Biso   1.000  Zn
  O104     1.0000 0.66230  0.83770  0.52700  Biso   1.000  O
