data_image0
_cell_length_a       15.673
_cell_length_b       13.787
_cell_length_c       18.331
_cell_angle_alpha    90
_cell_angle_beta     90
_cell_angle_gamma    90

_symmetry_space_group_name_H-M    "P 1"
_symmetry_int_tables_number       1

loop_
  _symmetry_equiv_pos_as_xyz
  'x, y, z'

loop_
  _atom_site_label
  _atom_site_occupancy
  _atom_site_fract_x
  _atom_site_fract_y
  _atom_site_fract_z
  _atom_site_thermal_displace_type
  _atom_site_B_iso_or_equiv
  _atom_site_type_symbol
  N1       1.0000 0.37085  0.50850  0.51263  Biso   1.000  N
  N2       1.0000 0.36379  0.62661  0.59251  Biso   1.000  N
  N3       1.0000 0.31423  0.50716  0.25276  Biso   1.000  N
  N4       1.0000 0.27542  0.62254  0.17723  Biso   1.000  N
  C1       1.0000 0.34918  0.30370  0.38244  Biso   1.000  C
  C2       1.0000 0.36118  0.35590  0.44723  Biso   1.000  C
  H1       1.0000 0.37170  0.32260  0.49170  Biso   1.000  H
  C3       1.0000 0.35760  0.45610  0.44619  Biso   1.000  C
  C4       1.0000 0.34310  0.50800  0.38268  Biso   1.000  C
  H2       1.0000 0.34210  0.57690  0.38280  Biso   1.000  H
  C5       1.0000 0.33010  0.45580  0.31900  Biso   1.000  C
  C6       1.0000 0.33317  0.35580  0.31821  Biso   1.000  C
  H3       1.0000 0.32430  0.32190  0.27370  Biso   1.000  H
  C7       1.0000 0.33470  0.59440  0.52998  Biso   1.000  C
  H4       1.0000 0.29370  0.62710  0.50080  Biso   1.000  H
  C8       1.0000 0.42040  0.55860  0.61724  Biso   1.000  C
  H5       1.0000 0.45150  0.56240  0.66160  Biso   1.000  H
  C9       1.0000 0.42520  0.48530  0.56875  Biso   1.000  C
  H6       1.0000 0.45940  0.42860  0.57260  Biso   1.000  H
  C10      1.0000 0.27870  0.59570  0.24608  Biso   1.000  C
  H7       1.0000 0.25860  0.63360  0.28580  Biso   1.000  H
  C11      1.0000 0.31000  0.54750  0.13752  Biso   1.000  C
  H8       1.0000 0.31620  0.54640  0.08600  Biso   1.000  H
  C12      1.0000 0.33340  0.47610  0.18321  Biso   1.000  C
  H9       1.0000 0.35840  0.41580  0.17010  Biso   1.000  H
  N5       1.0000 0.87085  0.99150  0.98737  Biso   1.000  N
  N6       1.0000 0.86379  0.87339  0.90749  Biso   1.000  N
  N7       1.0000 0.81423  0.99284  0.24724  Biso   1.000  N
  N8       1.0000 0.77542  0.87746  0.32277  Biso   1.000  N
  C13      1.0000 0.84918  0.19630  0.11756  Biso   1.000  C
  C14      1.0000 0.86118  0.14410  0.05277  Biso   1.000  C
  H10      1.0000 0.87170  0.17740  0.00830  Biso   1.000  H
  C15      1.0000 0.85760  0.04390  0.05381  Biso   1.000  C
  C16      1.0000 0.84310  0.99200  0.11732  Biso   1.000  C
  H11      1.0000 0.84210  0.92310  0.11720  Biso   1.000  H
  C17      1.0000 0.83010  0.04420  0.18100  Biso   1.000  C
  C18      1.0000 0.83317  0.14420  0.18179  Biso   1.000  C
  H12      1.0000 0.82430  0.17810  0.22630  Biso   1.000  H
  C19      1.0000 0.83470  0.90560  0.97002  Biso   1.000  C
  H13      1.0000 0.79370  0.87290  0.99920  Biso   1.000  H
  C20      1.0000 0.92040  0.94140  0.88276  Biso   1.000  C
  H14      1.0000 0.95150  0.93760  0.83840  Biso   1.000  H
  C21      1.0000 0.92520  0.01470  0.93125  Biso   1.000  C
  H15      1.0000 0.95940  0.07140  0.92740  Biso   1.000  H
  C22      1.0000 0.77870  0.90430  0.25392  Biso   1.000  C
  H16      1.0000 0.75860  0.86640  0.21420  Biso   1.000  H
  C23      1.0000 0.81000  0.95250  0.36248  Biso   1.000  C
  H17      1.0000 0.81620  0.95360  0.41400  Biso   1.000  H
  C24      1.0000 0.83340  0.02390  0.31679  Biso   1.000  C
  H18      1.0000 0.85840  0.08420  0.32990  Biso   1.000  H
  N9       1.0000 0.87085  0.50850  0.98737  Biso   1.000  N
  N10      1.0000 0.86379  0.62661  0.90749  Biso   1.000  N
  N11      1.0000 0.81423  0.50716  0.24724  Biso   1.000  N
  N12      1.0000 0.77542  0.62254  0.32277  Biso   1.000  N
  C25      1.0000 0.84918  0.30370  0.11756  Biso   1.000  C
  C26      1.0000 0.86118  0.35590  0.05277  Biso   1.000  C
  H19      1.0000 0.87170  0.32260  0.00830  Biso   1.000  H
  C27      1.0000 0.85760  0.45610  0.05381  Biso   1.000  C
  C28      1.0000 0.84310  0.50800  0.11732  Biso   1.000  C
  H20      1.0000 0.84210  0.57690  0.11720  Biso   1.000  H
  C29      1.0000 0.83010  0.45580  0.18100  Biso   1.000  C
  C30      1.0000 0.83317  0.35580  0.18179  Biso   1.000  C
  H21      1.0000 0.82430  0.32190  0.22630  Biso   1.000  H
  C31      1.0000 0.83470  0.59440  0.97002  Biso   1.000  C
  H22      1.0000 0.79370  0.62710  0.99920  Biso   1.000  H
  C32      1.0000 0.92040  0.55860  0.88276  Biso   1.000  C
  H23      1.0000 0.95150  0.56240  0.83840  Biso   1.000  H
  C33      1.0000 0.92520  0.48530  0.93125  Biso   1.000  C
  H24      1.0000 0.95940  0.42860  0.92740  Biso   1.000  H
  C34      1.0000 0.77870  0.59570  0.25392  Biso   1.000  C
  H25      1.0000 0.75860  0.63360  0.21420  Biso   1.000  H
  C35      1.0000 0.81000  0.54750  0.36248  Biso   1.000  C
  H26      1.0000 0.81620  0.54640  0.41400  Biso   1.000  H
  C36      1.0000 0.83340  0.47610  0.31679  Biso   1.000  C
  H27      1.0000 0.85840  0.41580  0.32990  Biso   1.000  H
  N13      1.0000 0.37085  0.99150  0.51263  Biso   1.000  N
  N14      1.0000 0.36379  0.87339  0.59251  Biso   1.000  N
  N15      1.0000 0.31423  0.99284  0.25276  Biso   1.000  N
  N16      1.0000 0.27542  0.87746  0.17723  Biso   1.000  N
  C37      1.0000 0.34918  0.19630  0.38244  Biso   1.000  C
  C38      1.0000 0.36118  0.14410  0.44723  Biso   1.000  C
  H28      1.0000 0.37170  0.17740  0.49170  Biso   1.000  H
  C39      1.0000 0.35760  0.04390  0.44619  Biso   1.000  C
  C40      1.0000 0.34310  0.99200  0.38268  Biso   1.000  C
  H29      1.0000 0.34210  0.92310  0.38280  Biso   1.000  H
  C41      1.0000 0.33010  0.04420  0.31900  Biso   1.000  C
  C42      1.0000 0.33317  0.14420  0.31821  Biso   1.000  C
  H30      1.0000 0.32430  0.17810  0.27370  Biso   1.000  H
  C43      1.0000 0.33470  0.90560  0.52998  Biso   1.000  C
  H31      1.0000 0.29370  0.87290  0.50080  Biso   1.000  H
  C44      1.0000 0.42040  0.94140  0.61724  Biso   1.000  C
  H32      1.0000 0.45150  0.93760  0.66160  Biso   1.000  H
  C45      1.0000 0.42520  0.01470  0.56875  Biso   1.000  C
  H33      1.0000 0.45940  0.07140  0.57260  Biso   1.000  H
  C46      1.0000 0.27870  0.90430  0.24608  Biso   1.000  C
  H34      1.0000 0.25860  0.86640  0.28580  Biso   1.000  H
  C47      1.0000 0.31000  0.95250  0.13752  Biso   1.000  C
  H35      1.0000 0.31620  0.95360  0.08600  Biso   1.000  H
  C48      1.0000 0.33340  0.02390  0.18321  Biso   1.000  C
  H36      1.0000 0.35840  0.08420  0.17010  Biso   1.000  H
  Zn1      1.0000 0.32777  0.75000  0.64298  Biso   1.000  Zn
  Zn2      1.0000 0.24157  0.75000  0.13385  Biso   1.000  Zn
  O1       1.0000 0.20060  0.75000  0.63975  Biso   1.000  O
  O2       1.0000 0.19680  0.75000  0.51880  Biso   1.000  O
  O3       1.0000 0.79220  0.75000  0.46561  Biso   1.000  O
  O4       1.0000 0.91100  0.75000  0.40004  Biso   1.000  O
  O5       1.0000 0.82540  0.75000  0.74601  Biso   1.000  O
  O6       1.0000 0.95480  0.75000  0.78871  Biso   1.000  O
  C49      1.0000 0.06520  0.75000  0.58440  Biso   1.000  C
  C50      1.0000 0.01450  0.75000  0.52250  Biso   1.000  C
  H37      1.0000 0.04030  0.75000  0.47560  Biso   1.000  H
  C51      1.0000 0.92640  0.75000  0.52860  Biso   1.000  C
  C52      1.0000 0.88850  0.75000  0.59780  Biso   1.000  C
  H38      1.0000 0.82810  0.75000  0.60240  Biso   1.000  H
  C53      1.0000 0.93950  0.75000  0.65960  Biso   1.000  C
  C54      1.0000 0.02680  0.75000  0.65230  Biso   1.000  C
  H39      1.0000 0.06140  0.75000  0.69480  Biso   1.000  H
  C55      1.0000 0.16150  0.75000  0.57900  Biso   1.000  C
  C56      1.0000 0.87410  0.75000  0.45900  Biso   1.000  C
  C57      1.0000 0.90470  0.75000  0.73600  Biso   1.000  C
  Zn3      1.0000 0.82777  0.75000  0.85702  Biso   1.000  Zn
  Zn4      1.0000 0.74157  0.75000  0.36615  Biso   1.000  Zn
  O7       1.0000 0.70060  0.75000  0.86025  Biso   1.000  O
  O8       1.0000 0.69680  0.75000  0.98120  Biso   1.000  O
  O9       1.0000 0.29220  0.75000  0.03439  Biso   1.000  O
  O10      1.0000 0.41100  0.75000  0.09996  Biso   1.000  O
  O11      1.0000 0.32540  0.75000  0.75399  Biso   1.000  O
  O12      1.0000 0.45480  0.75000  0.71129  Biso   1.000  O
  C58      1.0000 0.56520  0.75000  0.91560  Biso   1.000  C
  C59      1.0000 0.51450  0.75000  0.97750  Biso   1.000  C
  H40      1.0000 0.54030  0.75000  0.02440  Biso   1.000  H
  C60      1.0000 0.42640  0.75000  0.97140  Biso   1.000  C
  C61      1.0000 0.38850  0.75000  0.90220  Biso   1.000  C
  H41      1.0000 0.32810  0.75000  0.89760  Biso   1.000  H
  C62      1.0000 0.43950  0.75000  0.84040  Biso   1.000  C
  C63      1.0000 0.52680  0.75000  0.84770  Biso   1.000  C
  H42      1.0000 0.56140  0.75000  0.80520  Biso   1.000  H
  C64      1.0000 0.66150  0.75000  0.92100  Biso   1.000  C
  C65      1.0000 0.37410  0.75000  0.04100  Biso   1.000  C
  C66      1.0000 0.40470  0.75000  0.76400  Biso   1.000  C
  N17      1.0000 0.12915  0.49150  0.01263  Biso   1.000  N
  N18      1.0000 0.13621  0.37339  0.09251  Biso   1.000  N
  N19      1.0000 0.18577  0.49284  0.75276  Biso   1.000  N
  N20      1.0000 0.22458  0.37746  0.67723  Biso   1.000  N
  C67      1.0000 0.15082  0.69630  0.88244  Biso   1.000  C
  C68      1.0000 0.13882  0.64410  0.94723  Biso   1.000  C
  H43      1.0000 0.12830  0.67740  0.99170  Biso   1.000  H
  C69      1.0000 0.14240  0.54390  0.94619  Biso   1.000  C
  C70      1.0000 0.15690  0.49200  0.88268  Biso   1.000  C
  H44      1.0000 0.15790  0.42310  0.88280  Biso   1.000  H
  C71      1.0000 0.16990  0.54420  0.81900  Biso   1.000  C
  C72      1.0000 0.16683  0.64420  0.81821  Biso   1.000  C
  H45      1.0000 0.17570  0.67810  0.77370  Biso   1.000  H
  C73      1.0000 0.16530  0.40560  0.02998  Biso   1.000  C
  H46      1.0000 0.20630  0.37290  0.00080  Biso   1.000  H
  C74      1.0000 0.07960  0.44140  0.11724  Biso   1.000  C
  H47      1.0000 0.04850  0.43760  0.16160  Biso   1.000  H
  C75      1.0000 0.07480  0.51470  0.06875  Biso   1.000  C
  H48      1.0000 0.04060  0.57140  0.07260  Biso   1.000  H
  C76      1.0000 0.22130  0.40430  0.74608  Biso   1.000  C
  H49      1.0000 0.24140  0.36640  0.78580  Biso   1.000  H
  C77      1.0000 0.19000  0.45250  0.63752  Biso   1.000  C
  H50      1.0000 0.18380  0.45360  0.58600  Biso   1.000  H
  C78      1.0000 0.16660  0.52390  0.68321  Biso   1.000  C
  H51      1.0000 0.14160  0.58420  0.67010  Biso   1.000  H
  N21      1.0000 0.62915  0.00850  0.48737  Biso   1.000  N
  N22      1.0000 0.63621  0.12661  0.40749  Biso   1.000  N
  N23      1.0000 0.68577  0.00716  0.74724  Biso   1.000  N
  N24      1.0000 0.72458  0.12254  0.82277  Biso   1.000  N
  C79      1.0000 0.65082  0.80370  0.61756  Biso   1.000  C
  C80      1.0000 0.63882  0.85590  0.55277  Biso   1.000  C
  H52      1.0000 0.62830  0.82260  0.50830  Biso   1.000  H
  C81      1.0000 0.64240  0.95610  0.55381  Biso   1.000  C
  C82      1.0000 0.65690  0.00800  0.61732  Biso   1.000  C
  H53      1.0000 0.65790  0.07690  0.61720  Biso   1.000  H
  C83      1.0000 0.66990  0.95580  0.68100  Biso   1.000  C
  C84      1.0000 0.66683  0.85580  0.68179  Biso   1.000  C
  H54      1.0000 0.67570  0.82190  0.72630  Biso   1.000  H
  C85      1.0000 0.66530  0.09440  0.47002  Biso   1.000  C
  H55      1.0000 0.70630  0.12710  0.49920  Biso   1.000  H
  C86      1.0000 0.57960  0.05860  0.38276  Biso   1.000  C
  H56      1.0000 0.54850  0.06240  0.33840  Biso   1.000  H
  C87      1.0000 0.57480  0.98530  0.43125  Biso   1.000  C
  H57      1.0000 0.54060  0.92860  0.42740  Biso   1.000  H
  C88      1.0000 0.72130  0.09570  0.75392  Biso   1.000  C
  H58      1.0000 0.74140  0.13360  0.71420  Biso   1.000  H
  C89      1.0000 0.69000  0.04750  0.86248  Biso   1.000  C
  H59      1.0000 0.68380  0.04640  0.91400  Biso   1.000  H
  C90      1.0000 0.66660  0.97610  0.81679  Biso   1.000  C
  H60      1.0000 0.64160  0.91580  0.82990  Biso   1.000  H
  N25      1.0000 0.62915  0.49150  0.48737  Biso   1.000  N
  N26      1.0000 0.63621  0.37339  0.40749  Biso   1.000  N
  N27      1.0000 0.68577  0.49284  0.74724  Biso   1.000  N
  N28      1.0000 0.72458  0.37746  0.82277  Biso   1.000  N
  C91      1.0000 0.65082  0.69630  0.61756  Biso   1.000  C
  C92      1.0000 0.63882  0.64410  0.55277  Biso   1.000  C
  H61      1.0000 0.62830  0.67740  0.50830  Biso   1.000  H
  C93      1.0000 0.64240  0.54390  0.55381  Biso   1.000  C
  C94      1.0000 0.65690  0.49200  0.61732  Biso   1.000  C
  H62      1.0000 0.65790  0.42310  0.61720  Biso   1.000  H
  C95      1.0000 0.66990  0.54420  0.68100  Biso   1.000  C
  C96      1.0000 0.66683  0.64420  0.68179  Biso   1.000  C
  H63      1.0000 0.67570  0.67810  0.72630  Biso   1.000  H
  C97      1.0000 0.66530  0.40560  0.47002  Biso   1.000  C
  H64      1.0000 0.70630  0.37290  0.49920  Biso   1.000  H
  C98      1.0000 0.57960  0.44140  0.38276  Biso   1.000  C
  H65      1.0000 0.54850  0.43760  0.33840  Biso   1.000  H
  C99      1.0000 0.57480  0.51470  0.43125  Biso   1.000  C
  H66      1.0000 0.54060  0.57140  0.42740  Biso   1.000  H
  C100     1.0000 0.72130  0.40430  0.75392  Biso   1.000  C
  H67      1.0000 0.74140  0.36640  0.71420  Biso   1.000  H
  C101     1.0000 0.69000  0.45250  0.86248  Biso   1.000  C
  H68      1.0000 0.68380  0.45360  0.91400  Biso   1.000  H
  C102     1.0000 0.66660  0.52390  0.81679  Biso   1.000  C
  H69      1.0000 0.64160  0.58420  0.82990  Biso   1.000  H
  N29      1.0000 0.12915  0.00850  0.01263  Biso   1.000  N
  N30      1.0000 0.13621  0.12661  0.09251  Biso   1.000  N
  N31      1.0000 0.18577  0.00716  0.75276  Biso   1.000  N
  N32      1.0000 0.22458  0.12254  0.67723  Biso   1.000  N
  C103     1.0000 0.15082  0.80370  0.88244  Biso   1.000  C
  C104     1.0000 0.13882  0.85590  0.94723  Biso   1.000  C
  H70      1.0000 0.12830  0.82260  0.99170  Biso   1.000  H
  C105     1.0000 0.14240  0.95610  0.94619  Biso   1.000  C
  C106     1.0000 0.15690  0.00800  0.88268  Biso   1.000  C
  H71      1.0000 0.15790  0.07690  0.88280  Biso   1.000  H
  C107     1.0000 0.16990  0.95580  0.81900  Biso   1.000  C
  C108     1.0000 0.16683  0.85580  0.81821  Biso   1.000  C
  H72      1.0000 0.17570  0.82190  0.77370  Biso   1.000  H
  C109     1.0000 0.16530  0.09440  0.02998  Biso   1.000  C
  H73      1.0000 0.20630  0.12710  0.00080  Biso   1.000  H
  C110     1.0000 0.07960  0.05860  0.11724  Biso   1.000  C
  H74      1.0000 0.04850  0.06240  0.16160  Biso   1.000  H
  C111     1.0000 0.07480  0.98530  0.06875  Biso   1.000  C
  H75      1.0000 0.04060  0.92860  0.07260  Biso   1.000  H
  C112     1.0000 0.22130  0.09570  0.74608  Biso   1.000  C
  H76      1.0000 0.24140  0.13360  0.78580  Biso   1.000  H
  C113     1.0000 0.19000  0.04750  0.63752  Biso   1.000  C
  H77      1.0000 0.18380  0.04640  0.58600  Biso   1.000  H
  C114     1.0000 0.16660  0.97610  0.68321  Biso   1.000  C
  H78      1.0000 0.14160  0.91580  0.67010  Biso   1.000  H
  Zn5      1.0000 0.17223  0.25000  0.14298  Biso   1.000  Zn
  Zn6      1.0000 0.25843  0.25000  0.63385  Biso   1.000  Zn
  O13      1.0000 0.29940  0.25000  0.13975  Biso   1.000  O
  O14      1.0000 0.30320  0.25000  0.01880  Biso   1.000  O
  O15      1.0000 0.70780  0.25000  0.96561  Biso   1.000  O
  O16      1.0000 0.58900  0.25000  0.90004  Biso   1.000  O
  O17      1.0000 0.67460  0.25000  0.24601  Biso   1.000  O
  O18      1.0000 0.54520  0.25000  0.28871  Biso   1.000  O
  C115     1.0000 0.43480  0.25000  0.08440  Biso   1.000  C
  C116     1.0000 0.48550  0.25000  0.02250  Biso   1.000  C
  H79      1.0000 0.45970  0.25000  0.97560  Biso   1.000  H
  C117     1.0000 0.57360  0.25000  0.02860  Biso   1.000  C
  C118     1.0000 0.61150  0.25000  0.09780  Biso   1.000  C
  H80      1.0000 0.67190  0.25000  0.10240  Biso   1.000  H
  C119     1.0000 0.56050  0.25000  0.15960  Biso   1.000  C
  C120     1.0000 0.47320  0.25000  0.15230  Biso   1.000  C
  H81      1.0000 0.43860  0.25000  0.19480  Biso   1.000  H
  C121     1.0000 0.33850  0.25000  0.07900  Biso   1.000  C
  C122     1.0000 0.62590  0.25000  0.95900  Biso   1.000  C
  C123     1.0000 0.59530  0.25000  0.23600  Biso   1.000  C
  Zn7      1.0000 0.67223  0.25000  0.35702  Biso   1.000  Zn
  Zn8      1.0000 0.75843  0.25000  0.86615  Biso   1.000  Zn
  O19      1.0000 0.79940  0.25000  0.36025  Biso   1.000  O
  O20      1.0000 0.80320  0.25000  0.48120  Biso   1.000  O
  O21      1.0000 0.20780  0.25000  0.53439  Biso   1.000  O
  O22      1.0000 0.08900  0.25000  0.59996  Biso   1.000  O
  O23      1.0000 0.17460  0.25000  0.25399  Biso   1.000  O
  O24      1.0000 0.04520  0.25000  0.21129  Biso   1.000  O
  C124     1.0000 0.93480  0.25000  0.41560  Biso   1.000  C
  C125     1.0000 0.98550  0.25000  0.47750  Biso   1.000  C
  H82      1.0000 0.95970  0.25000  0.52440  Biso   1.000  H
  C126     1.0000 0.07360  0.25000  0.47140  Biso   1.000  C
  C127     1.0000 0.11150  0.25000  0.40220  Biso   1.000  C
  H83      1.0000 0.17190  0.25000  0.39760  Biso   1.000  H
  C128     1.0000 0.06050  0.25000  0.34040  Biso   1.000  C
  C129     1.0000 0.97320  0.25000  0.34770  Biso   1.000  C
  H84      1.0000 0.93860  0.25000  0.30520  Biso   1.000  H
  C130     1.0000 0.83850  0.25000  0.42100  Biso   1.000  C
  C131     1.0000 0.12590  0.25000  0.54100  Biso   1.000  C
  C132     1.0000 0.09530  0.25000  0.26400  Biso   1.000  C
