data_image0
_cell_length_a       9.753
_cell_length_b       12.751
_cell_length_c       14.174
_cell_angle_alpha    90
_cell_angle_beta     109.41
_cell_angle_gamma    90

_symmetry_space_group_name_H-M    "P 1"
_symmetry_int_tables_number       1

loop_
  _symmetry_equiv_pos_as_xyz
  'x, y, z'

loop_
  _atom_site_label
  _atom_site_occupancy
  _atom_site_fract_x
  _atom_site_fract_y
  _atom_site_fract_z
  _atom_site_thermal_displace_type
  _atom_site_B_iso_or_equiv
  _atom_site_type_symbol
  Mn1      1.0000 0.55674  0.72422  0.14858  Biso   1.000  Mn
  O1       1.0000 0.67160  0.58520  0.11730  Biso   1.000  O
  O2       1.0000 0.80340  0.72820  0.14800  Biso   1.000  O
  O3       1.0000 0.35080  0.69210  0.18520  Biso   1.000  O
  O4       1.0000 0.37680  0.56750  0.08610  Biso   1.000  O
  O5       1.0000 0.13110  0.23330  0.12010  Biso   1.000  O
  O6       1.0000 0.90300  0.23950  0.11450  Biso   1.000  O
  C1       1.0000 0.91960  0.56790  0.12900  Biso   1.000  C
  C2       1.0000 0.05020  0.61690  0.13580  Biso   1.000  C
  C3       1.0000 0.16880  0.55730  0.13500  Biso   1.000  C
  C4       1.0000 0.15780  0.44850  0.12890  Biso   1.000  C
  C5       1.0000 0.03000  0.39950  0.12540  Biso   1.000  C
  C6       1.0000 0.90940  0.46030  0.12490  Biso   1.000  C
  C7       1.0000 0.79270  0.63140  0.13070  Biso   1.000  C
  C8       1.0000 0.30720  0.60810  0.13560  Biso   1.000  C
  C9       1.0000 0.01430  0.28410  0.11920  Biso   1.000  C
  O7       1.0000 0.45100  0.88240  0.31120  Biso   1.000  O
  O8       1.0000 0.51340  0.21940  0.00070  Biso   1.000  O
  O9       1.0000 0.52940  0.36670  0.08880  Biso   1.000  O
  C10      1.0000 0.51230  0.09920  0.16800  Biso   1.000  C
  C11      1.0000 0.51110  0.20840  0.16800  Biso   1.000  C
  C12      1.0000 0.51970  0.26970  0.07950  Biso   1.000  C
  H1       1.0000 0.12790  0.15500  0.12340  Biso   1.000  H
  H2       1.0000 0.05840  0.69500  0.14130  Biso   1.000  H
  H3       1.0000 0.24280  0.40570  0.12710  Biso   1.000  H
  H4       1.0000 0.81620  0.42530  0.12170  Biso   1.000  H
  H5       1.0000 0.52180  0.05990  0.10940  Biso   1.000  H
  Mn2      1.0000 0.44326  0.72422  0.35142  Biso   1.000  Mn
  O10      1.0000 0.32840  0.58520  0.38270  Biso   1.000  O
  O11      1.0000 0.19660  0.72820  0.35200  Biso   1.000  O
  O12      1.0000 0.64920  0.69210  0.31480  Biso   1.000  O
  O13      1.0000 0.62320  0.56750  0.41390  Biso   1.000  O
  O14      1.0000 0.86890  0.23330  0.37990  Biso   1.000  O
  O15      1.0000 0.09700  0.23950  0.38550  Biso   1.000  O
  C13      1.0000 0.08040  0.56790  0.37100  Biso   1.000  C
  C14      1.0000 0.94980  0.61690  0.36420  Biso   1.000  C
  C15      1.0000 0.83120  0.55730  0.36500  Biso   1.000  C
  C16      1.0000 0.84220  0.44850  0.37110  Biso   1.000  C
  C17      1.0000 0.97000  0.39950  0.37460  Biso   1.000  C
  C18      1.0000 0.09060  0.46030  0.37510  Biso   1.000  C
  C19      1.0000 0.20730  0.63140  0.36930  Biso   1.000  C
  C20      1.0000 0.69280  0.60810  0.36440  Biso   1.000  C
  C21      1.0000 0.98570  0.28410  0.38080  Biso   1.000  C
  O16      1.0000 0.54900  0.88240  0.18880  Biso   1.000  O
  O17      1.0000 0.48660  0.21940  0.49930  Biso   1.000  O
  O18      1.0000 0.47060  0.36670  0.41120  Biso   1.000  O
  C22      1.0000 0.48770  0.09920  0.33200  Biso   1.000  C
  C23      1.0000 0.48890  0.20840  0.33200  Biso   1.000  C
  C24      1.0000 0.48030  0.26970  0.42050  Biso   1.000  C
  H6       1.0000 0.87210  0.15500  0.37660  Biso   1.000  H
  H7       1.0000 0.94160  0.69500  0.35870  Biso   1.000  H
  H8       1.0000 0.75720  0.40570  0.37290  Biso   1.000  H
  H9       1.0000 0.18380  0.42530  0.37830  Biso   1.000  H
  H10      1.0000 0.47820  0.05990  0.39060  Biso   1.000  H
  Mn3      1.0000 0.44326  0.27578  0.85142  Biso   1.000  Mn
  O19      1.0000 0.32840  0.41480  0.88270  Biso   1.000  O
  O20      1.0000 0.19660  0.27180  0.85200  Biso   1.000  O
  O21      1.0000 0.64920  0.30790  0.81480  Biso   1.000  O
  O22      1.0000 0.62320  0.43250  0.91390  Biso   1.000  O
  O23      1.0000 0.86890  0.76670  0.87990  Biso   1.000  O
  O24      1.0000 0.09700  0.76050  0.88550  Biso   1.000  O
  C25      1.0000 0.08040  0.43210  0.87100  Biso   1.000  C
  C26      1.0000 0.94980  0.38310  0.86420  Biso   1.000  C
  C27      1.0000 0.83120  0.44270  0.86500  Biso   1.000  C
  C28      1.0000 0.84220  0.55150  0.87110  Biso   1.000  C
  C29      1.0000 0.97000  0.60050  0.87460  Biso   1.000  C
  C30      1.0000 0.09060  0.53970  0.87510  Biso   1.000  C
  C31      1.0000 0.20730  0.36860  0.86930  Biso   1.000  C
  C32      1.0000 0.69280  0.39190  0.86440  Biso   1.000  C
  C33      1.0000 0.98570  0.71590  0.88080  Biso   1.000  C
  O25      1.0000 0.54900  0.11760  0.68880  Biso   1.000  O
  O26      1.0000 0.48660  0.78060  0.99930  Biso   1.000  O
  O27      1.0000 0.47060  0.63330  0.91120  Biso   1.000  O
  C34      1.0000 0.48770  0.90080  0.83200  Biso   1.000  C
  C35      1.0000 0.48890  0.79160  0.83200  Biso   1.000  C
  C36      1.0000 0.48030  0.73030  0.92050  Biso   1.000  C
  H11      1.0000 0.87210  0.84500  0.87660  Biso   1.000  H
  H12      1.0000 0.94160  0.30500  0.85870  Biso   1.000  H
  H13      1.0000 0.75720  0.59430  0.87290  Biso   1.000  H
  H14      1.0000 0.18380  0.57470  0.87830  Biso   1.000  H
  H15      1.0000 0.47820  0.94010  0.89060  Biso   1.000  H
  Mn4      1.0000 0.55674  0.27578  0.64858  Biso   1.000  Mn
  O28      1.0000 0.67160  0.41480  0.61730  Biso   1.000  O
  O29      1.0000 0.80340  0.27180  0.64800  Biso   1.000  O
  O30      1.0000 0.35080  0.30790  0.68520  Biso   1.000  O
  O31      1.0000 0.37680  0.43250  0.58610  Biso   1.000  O
  O32      1.0000 0.13110  0.76670  0.62010  Biso   1.000  O
  O33      1.0000 0.90300  0.76050  0.61450  Biso   1.000  O
  C37      1.0000 0.91960  0.43210  0.62900  Biso   1.000  C
  C38      1.0000 0.05020  0.38310  0.63580  Biso   1.000  C
  C39      1.0000 0.16880  0.44270  0.63500  Biso   1.000  C
  C40      1.0000 0.15780  0.55150  0.62890  Biso   1.000  C
  C41      1.0000 0.03000  0.60050  0.62540  Biso   1.000  C
  C42      1.0000 0.90940  0.53970  0.62490  Biso   1.000  C
  C43      1.0000 0.79270  0.36860  0.63070  Biso   1.000  C
  C44      1.0000 0.30720  0.39190  0.63560  Biso   1.000  C
  C45      1.0000 0.01430  0.71590  0.61920  Biso   1.000  C
  O34      1.0000 0.45100  0.11760  0.81120  Biso   1.000  O
  O35      1.0000 0.51340  0.78060  0.50070  Biso   1.000  O
  O36      1.0000 0.52940  0.63330  0.58880  Biso   1.000  O
  C46      1.0000 0.51230  0.90080  0.66800  Biso   1.000  C
  C47      1.0000 0.51110  0.79160  0.66800  Biso   1.000  C
  C48      1.0000 0.51970  0.73030  0.57950  Biso   1.000  C
  H16      1.0000 0.12790  0.84500  0.62340  Biso   1.000  H
  H17      1.0000 0.05840  0.30500  0.64130  Biso   1.000  H
  H18      1.0000 0.24280  0.59430  0.62710  Biso   1.000  H
  H19      1.0000 0.81620  0.57470  0.62170  Biso   1.000  H
  H20      1.0000 0.52180  0.94010  0.60940  Biso   1.000  H
  Mn5      1.0000 0.50000  0.50000  0.00000  Biso   1.000  Mn
  Mn6      1.0000 0.50000  0.50000  0.50000  Biso   1.000  Mn
  C49      1.0000 0.50000  0.04510  0.25000  Biso   1.000  C
  C50      1.0000 0.50000  0.26170  0.25000  Biso   1.000  C
  C51      1.0000 0.50000  0.92780  0.25000  Biso   1.000  C
  H21      1.0000 0.50000  0.34020  0.25000  Biso   1.000  H
  C52      1.0000 0.50000  0.95490  0.75000  Biso   1.000  C
  C53      1.0000 0.50000  0.73830  0.75000  Biso   1.000  C
  C54      1.0000 0.50000  0.07220  0.75000  Biso   1.000  C
  H22      1.0000 0.50000  0.65980  0.75000  Biso   1.000  H
