data_image0
_cell_length_a       14.3813
_cell_length_b       14.3813
_cell_length_c       15.7699
_cell_angle_alpha    90
_cell_angle_beta     90
_cell_angle_gamma    120

_symmetry_space_group_name_H-M    "P 1"
_symmetry_int_tables_number       1

loop_
  _symmetry_equiv_pos_as_xyz
  'x, y, z'

loop_
  _atom_site_label
  _atom_site_occupancy
  _atom_site_fract_x
  _atom_site_fract_y
  _atom_site_fract_z
  _atom_site_thermal_displace_type
  _atom_site_B_iso_or_equiv
  _atom_site_type_symbol
  O1       1.0000 0.94580  0.38230  0.08890  Biso   1.000  O
  C1       1.0000 0.86850  0.34870  0.13800  Biso   1.000  C
  O2       1.0000 0.80540  0.38580  0.14590  Biso   1.000  O
  C2       1.0000 0.84900  0.25640  0.19180  Biso   1.000  C
  H1       1.0000 0.82870  0.19270  0.15580  Biso   1.000  H
  H2       1.0000 0.91550  0.27330  0.22290  Biso   1.000  H
  O3       1.0000 0.61770  0.56350  0.08890  Biso   1.000  O
  C3       1.0000 0.65130  0.51980  0.13800  Biso   1.000  C
  O4       1.0000 0.61420  0.41960  0.14590  Biso   1.000  O
  C4       1.0000 0.74360  0.59260  0.19180  Biso   1.000  C
  H3       1.0000 0.80730  0.63600  0.15580  Biso   1.000  H
  H4       1.0000 0.72670  0.64220  0.22290  Biso   1.000  H
  O5       1.0000 0.43650  0.05420  0.08890  Biso   1.000  O
  C5       1.0000 0.48020  0.13150  0.13800  Biso   1.000  C
  O6       1.0000 0.58040  0.19460  0.14590  Biso   1.000  O
  C6       1.0000 0.40740  0.15100  0.19180  Biso   1.000  C
  H5       1.0000 0.36400  0.17130  0.15580  Biso   1.000  H
  H6       1.0000 0.35780  0.08450  0.22290  Biso   1.000  H
  O7       1.0000 0.05420  0.61770  0.08890  Biso   1.000  O
  C7       1.0000 0.13150  0.65130  0.13800  Biso   1.000  C
  O8       1.0000 0.19460  0.61420  0.14590  Biso   1.000  O
  C8       1.0000 0.15100  0.74360  0.19180  Biso   1.000  C
  H7       1.0000 0.17130  0.80730  0.15580  Biso   1.000  H
  H8       1.0000 0.08450  0.72670  0.22290  Biso   1.000  H
  O9       1.0000 0.38230  0.43650  0.08890  Biso   1.000  O
  C9       1.0000 0.34870  0.48020  0.13800  Biso   1.000  C
  O10      1.0000 0.38580  0.58040  0.14590  Biso   1.000  O
  C10      1.0000 0.25640  0.40740  0.19180  Biso   1.000  C
  H9       1.0000 0.19270  0.36400  0.15580  Biso   1.000  H
  H10      1.0000 0.27330  0.35780  0.22290  Biso   1.000  H
  O11      1.0000 0.56350  0.94580  0.08890  Biso   1.000  O
  C11      1.0000 0.51980  0.86850  0.13800  Biso   1.000  C
  O12      1.0000 0.41960  0.80540  0.14590  Biso   1.000  O
  C12      1.0000 0.59260  0.84900  0.19180  Biso   1.000  C
  H11      1.0000 0.63600  0.82870  0.15580  Biso   1.000  H
  H12      1.0000 0.64220  0.91550  0.22290  Biso   1.000  H
  O13      1.0000 0.38230  0.94580  0.41110  Biso   1.000  O
  C13      1.0000 0.34870  0.86850  0.36200  Biso   1.000  C
  O14      1.0000 0.38580  0.80540  0.35410  Biso   1.000  O
  C14      1.0000 0.25640  0.84900  0.30820  Biso   1.000  C
  H13      1.0000 0.19270  0.82870  0.34420  Biso   1.000  H
  H14      1.0000 0.27330  0.91550  0.27710  Biso   1.000  H
  O15      1.0000 0.56350  0.61770  0.41110  Biso   1.000  O
  C15      1.0000 0.51980  0.65130  0.36200  Biso   1.000  C
  O16      1.0000 0.41960  0.61420  0.35410  Biso   1.000  O
  C16      1.0000 0.59260  0.74360  0.30820  Biso   1.000  C
  H15      1.0000 0.63600  0.80730  0.34420  Biso   1.000  H
  H16      1.0000 0.64220  0.72670  0.27710  Biso   1.000  H
  O17      1.0000 0.05420  0.43650  0.41110  Biso   1.000  O
  C17      1.0000 0.13150  0.48020  0.36200  Biso   1.000  C
  O18      1.0000 0.19460  0.58040  0.35410  Biso   1.000  O
  C18      1.0000 0.15100  0.40740  0.30820  Biso   1.000  C
  H17      1.0000 0.17130  0.36400  0.34420  Biso   1.000  H
  H18      1.0000 0.08450  0.35780  0.27710  Biso   1.000  H
  O19      1.0000 0.61770  0.05420  0.41110  Biso   1.000  O
  C19      1.0000 0.65130  0.13150  0.36200  Biso   1.000  C
  O20      1.0000 0.61420  0.19460  0.35410  Biso   1.000  O
  C20      1.0000 0.74360  0.15100  0.30820  Biso   1.000  C
  H19      1.0000 0.80730  0.17130  0.34420  Biso   1.000  H
  H20      1.0000 0.72670  0.08450  0.27710  Biso   1.000  H
  O21      1.0000 0.43650  0.38230  0.41110  Biso   1.000  O
  C21      1.0000 0.48020  0.34870  0.36200  Biso   1.000  C
  O22      1.0000 0.58040  0.38580  0.35410  Biso   1.000  O
  C22      1.0000 0.40740  0.25640  0.30820  Biso   1.000  C
  H21      1.0000 0.36400  0.19270  0.34420  Biso   1.000  H
  H22      1.0000 0.35780  0.27330  0.27710  Biso   1.000  H
  O23      1.0000 0.94580  0.56350  0.41110  Biso   1.000  O
  C23      1.0000 0.86850  0.51980  0.36200  Biso   1.000  C
  O24      1.0000 0.80540  0.41960  0.35410  Biso   1.000  O
  C24      1.0000 0.84900  0.59260  0.30820  Biso   1.000  C
  H23      1.0000 0.82870  0.63600  0.34420  Biso   1.000  H
  H24      1.0000 0.91550  0.64220  0.27710  Biso   1.000  H
  O25      1.0000 0.05420  0.61770  0.91110  Biso   1.000  O
  C25      1.0000 0.13150  0.65130  0.86200  Biso   1.000  C
  O26      1.0000 0.19460  0.61420  0.85410  Biso   1.000  O
  C26      1.0000 0.15100  0.74360  0.80820  Biso   1.000  C
  H25      1.0000 0.17130  0.80730  0.84420  Biso   1.000  H
  H26      1.0000 0.08450  0.72670  0.77710  Biso   1.000  H
  O27      1.0000 0.38230  0.43650  0.91110  Biso   1.000  O
  C27      1.0000 0.34870  0.48020  0.86200  Biso   1.000  C
  O28      1.0000 0.38580  0.58040  0.85410  Biso   1.000  O
  C28      1.0000 0.25640  0.40740  0.80820  Biso   1.000  C
  H27      1.0000 0.19270  0.36400  0.84420  Biso   1.000  H
  H28      1.0000 0.27330  0.35780  0.77710  Biso   1.000  H
  O29      1.0000 0.56350  0.94580  0.91110  Biso   1.000  O
  C29      1.0000 0.51980  0.86850  0.86200  Biso   1.000  C
  O30      1.0000 0.41960  0.80540  0.85410  Biso   1.000  O
  C30      1.0000 0.59260  0.84900  0.80820  Biso   1.000  C
  H29      1.0000 0.63600  0.82870  0.84420  Biso   1.000  H
  H30      1.0000 0.64220  0.91550  0.77710  Biso   1.000  H
  O31      1.0000 0.94580  0.38230  0.91110  Biso   1.000  O
  C31      1.0000 0.86850  0.34870  0.86200  Biso   1.000  C
  O32      1.0000 0.80540  0.38580  0.85410  Biso   1.000  O
  C32      1.0000 0.84900  0.25640  0.80820  Biso   1.000  C
  H31      1.0000 0.82870  0.19270  0.84420  Biso   1.000  H
  H32      1.0000 0.91550  0.27330  0.77710  Biso   1.000  H
  O33      1.0000 0.61770  0.56350  0.91110  Biso   1.000  O
  C33      1.0000 0.65130  0.51980  0.86200  Biso   1.000  C
  O34      1.0000 0.61420  0.41960  0.85410  Biso   1.000  O
  C34      1.0000 0.74360  0.59260  0.80820  Biso   1.000  C
  H33      1.0000 0.80730  0.63600  0.84420  Biso   1.000  H
  H34      1.0000 0.72670  0.64220  0.77710  Biso   1.000  H
  O35      1.0000 0.43650  0.05420  0.91110  Biso   1.000  O
  C35      1.0000 0.48020  0.13150  0.86200  Biso   1.000  C
  O36      1.0000 0.58040  0.19460  0.85410  Biso   1.000  O
  C36      1.0000 0.40740  0.15100  0.80820  Biso   1.000  C
  H35      1.0000 0.36400  0.17130  0.84420  Biso   1.000  H
  H36      1.0000 0.35780  0.08450  0.77710  Biso   1.000  H
  O37      1.0000 0.61770  0.05420  0.58890  Biso   1.000  O
  C37      1.0000 0.65130  0.13150  0.63800  Biso   1.000  C
  O38      1.0000 0.61420  0.19460  0.64590  Biso   1.000  O
  C38      1.0000 0.74360  0.15100  0.69180  Biso   1.000  C
  H37      1.0000 0.80730  0.17130  0.65580  Biso   1.000  H
  H38      1.0000 0.72670  0.08450  0.72290  Biso   1.000  H
  O39      1.0000 0.43650  0.38230  0.58890  Biso   1.000  O
  C39      1.0000 0.48020  0.34870  0.63800  Biso   1.000  C
  O40      1.0000 0.58040  0.38580  0.64590  Biso   1.000  O
  C40      1.0000 0.40740  0.25640  0.69180  Biso   1.000  C
  H39      1.0000 0.36400  0.19270  0.65580  Biso   1.000  H
  H40      1.0000 0.35780  0.27330  0.72290  Biso   1.000  H
  O41      1.0000 0.94580  0.56350  0.58890  Biso   1.000  O
  C41      1.0000 0.86850  0.51980  0.63800  Biso   1.000  C
  O42      1.0000 0.80540  0.41960  0.64590  Biso   1.000  O
  C42      1.0000 0.84900  0.59260  0.69180  Biso   1.000  C
  H41      1.0000 0.82870  0.63600  0.65580  Biso   1.000  H
  H42      1.0000 0.91550  0.64220  0.72290  Biso   1.000  H
  O43      1.0000 0.38230  0.94580  0.58890  Biso   1.000  O
  C43      1.0000 0.34870  0.86850  0.63800  Biso   1.000  C
  O44      1.0000 0.38580  0.80540  0.64590  Biso   1.000  O
  C44      1.0000 0.25640  0.84900  0.69180  Biso   1.000  C
  H43      1.0000 0.19270  0.82870  0.65580  Biso   1.000  H
  H44      1.0000 0.27330  0.91550  0.72290  Biso   1.000  H
  O45      1.0000 0.56350  0.61770  0.58890  Biso   1.000  O
  C45      1.0000 0.51980  0.65130  0.63800  Biso   1.000  C
  O46      1.0000 0.41960  0.61420  0.64590  Biso   1.000  O
  C46      1.0000 0.59260  0.74360  0.69180  Biso   1.000  C
  H45      1.0000 0.63600  0.80730  0.65580  Biso   1.000  H
  H46      1.0000 0.64220  0.72670  0.72290  Biso   1.000  H
  O47      1.0000 0.05420  0.43650  0.58890  Biso   1.000  O
  C47      1.0000 0.13150  0.48020  0.63800  Biso   1.000  C
  O48      1.0000 0.19460  0.58040  0.64590  Biso   1.000  O
  C48      1.0000 0.15100  0.40740  0.69180  Biso   1.000  C
  H47      1.0000 0.17130  0.36400  0.65580  Biso   1.000  H
  H48      1.0000 0.08450  0.35780  0.72290  Biso   1.000  H
  Gd1      1.0000 0.66667  0.33333  0.25000  Biso   1.000  Gd
  Gd2      1.0000 0.33333  0.66667  0.25000  Biso   1.000  Gd
  Gd3      1.0000 0.33333  0.66667  0.75000  Biso   1.000  Gd
  Gd4      1.0000 0.66667  0.33333  0.75000  Biso   1.000  Gd
  Ni1      1.0000 0.00000  0.50000  0.00000  Biso   1.000  Ni
  Ni2      1.0000 0.50000  0.50000  0.00000  Biso   1.000  Ni
  Ni3      1.0000 0.50000  0.00000  0.00000  Biso   1.000  Ni
  Ni4      1.0000 0.50000  0.00000  0.50000  Biso   1.000  Ni
  Ni5      1.0000 0.50000  0.50000  0.50000  Biso   1.000  Ni
  Ni6      1.0000 0.00000  0.50000  0.50000  Biso   1.000  Ni
  O49      1.0000 0.76590  0.23410  0.25000  Biso   1.000  O
  O50      1.0000 0.76590  0.53180  0.25000  Biso   1.000  O
  O51      1.0000 0.46820  0.23410  0.25000  Biso   1.000  O
  O52      1.0000 0.23410  0.76590  0.25000  Biso   1.000  O
  O53      1.0000 0.23410  0.46820  0.25000  Biso   1.000  O
  O54      1.0000 0.53180  0.76590  0.25000  Biso   1.000  O
  O55      1.0000 0.23410  0.76590  0.75000  Biso   1.000  O
  O56      1.0000 0.23410  0.46820  0.75000  Biso   1.000  O
  O57      1.0000 0.53180  0.76590  0.75000  Biso   1.000  O
  O58      1.0000 0.76590  0.23410  0.75000  Biso   1.000  O
  O59      1.0000 0.76590  0.53180  0.75000  Biso   1.000  O
  O60      1.0000 0.46820  0.23410  0.75000  Biso   1.000  O
