data_image0
_cell_length_a       11.238
_cell_length_b       11.644
_cell_length_c       10.02
_cell_angle_alpha    90
_cell_angle_beta     102.67
_cell_angle_gamma    90

_symmetry_space_group_name_H-M    "P 1"
_symmetry_int_tables_number       1

loop_
  _symmetry_equiv_pos_as_xyz
  'x, y, z'

loop_
  _atom_site_label
  _atom_site_occupancy
  _atom_site_fract_x
  _atom_site_fract_y
  _atom_site_fract_z
  _atom_site_thermal_displace_type
  _atom_site_B_iso_or_equiv
  _atom_site_type_symbol
  Cu1      1.0000 0.25000  0.57450  0.25000  Biso   1.000  Cu
  Cu2      1.0000 0.43100  0.40480  0.29340  Biso   1.000  Cu
  S1       1.0000 0.15840  0.67480  0.05450  Biso   1.000  S
  C1       1.0000 0.07190  0.75820  0.12390  Biso   1.000  C
  N1       1.0000 0.01350  0.81750  0.17460  Biso   1.000  N
  S2       1.0000 0.20850  0.37270  0.20320  Biso   1.000  S
  C2       1.0000 0.21270  0.38010  0.03860  Biso   1.000  C
  N2       1.0000 0.21620  0.38570  0.92460  Biso   1.000  N
  S3       1.0000 0.46810  0.60850  0.26940  Biso   1.000  S
  C3       1.0000 0.46400  0.61600  0.10310  Biso   1.000  C
  N3       1.0000 0.46350  0.62010  0.98900  Biso   1.000  N
  Cu3      1.0000 0.75000  0.07450  0.25000  Biso   1.000  Cu
  Cu4      1.0000 0.93100  0.90480  0.29340  Biso   1.000  Cu
  S4       1.0000 0.65840  0.17480  0.05450  Biso   1.000  S
  C4       1.0000 0.57190  0.25820  0.12390  Biso   1.000  C
  N4       1.0000 0.51350  0.31750  0.17460  Biso   1.000  N
  S5       1.0000 0.70850  0.87270  0.20320  Biso   1.000  S
  C5       1.0000 0.71270  0.88010  0.03860  Biso   1.000  C
  N5       1.0000 0.71620  0.88570  0.92460  Biso   1.000  N
  S6       1.0000 0.96810  0.10850  0.26940  Biso   1.000  S
  C6       1.0000 0.96400  0.11600  0.10310  Biso   1.000  C
  N6       1.0000 0.96350  0.12010  0.98900  Biso   1.000  N
  Cu5      1.0000 0.25000  0.42550  0.75000  Biso   1.000  Cu
  Cu6      1.0000 0.43100  0.59520  0.79340  Biso   1.000  Cu
  S7       1.0000 0.15840  0.32520  0.55450  Biso   1.000  S
  C7       1.0000 0.07190  0.24180  0.62390  Biso   1.000  C
  N7       1.0000 0.01350  0.18250  0.67460  Biso   1.000  N
  S8       1.0000 0.20850  0.62730  0.70320  Biso   1.000  S
  C8       1.0000 0.21270  0.61990  0.53860  Biso   1.000  C
  N8       1.0000 0.21620  0.61430  0.42460  Biso   1.000  N
  S9       1.0000 0.46810  0.39150  0.76940  Biso   1.000  S
  C9       1.0000 0.46400  0.38400  0.60310  Biso   1.000  C
  N9       1.0000 0.46350  0.37990  0.48900  Biso   1.000  N
  Cu7      1.0000 0.75000  0.92550  0.75000  Biso   1.000  Cu
  Cu8      1.0000 0.93100  0.09520  0.79340  Biso   1.000  Cu
  S10      1.0000 0.65840  0.82520  0.55450  Biso   1.000  S
  C10      1.0000 0.57190  0.74180  0.62390  Biso   1.000  C
  N10      1.0000 0.51350  0.68250  0.67460  Biso   1.000  N
  S11      1.0000 0.70850  0.12730  0.70320  Biso   1.000  S
  C11      1.0000 0.71270  0.11990  0.53860  Biso   1.000  C
  N11      1.0000 0.71620  0.11430  0.42460  Biso   1.000  N
  S12      1.0000 0.96810  0.89150  0.76940  Biso   1.000  S
  C12      1.0000 0.96400  0.88400  0.60310  Biso   1.000  C
  N12      1.0000 0.96350  0.87990  0.48900  Biso   1.000  N
