data_image0
_cell_length_a       10.5014
_cell_length_b       10.5014
_cell_length_c       21.47
_cell_angle_alpha    90
_cell_angle_beta     90
_cell_angle_gamma    90

_symmetry_space_group_name_H-M    "P 1"
_symmetry_int_tables_number       1

loop_
  _symmetry_equiv_pos_as_xyz
  'x, y, z'

loop_
  _atom_site_label
  _atom_site_occupancy
  _atom_site_fract_x
  _atom_site_fract_y
  _atom_site_fract_z
  _atom_site_thermal_displace_type
  _atom_site_B_iso_or_equiv
  _atom_site_type_symbol
  F1       1.0000 0.65117  0.74654  0.38442  Biso   1.000  F
  N1       1.0000 0.50520  0.03515  0.38019  Biso   1.000  N
  C1       1.0000 0.50333  0.92594  0.38199  Biso   1.000  C
  F2       1.0000 0.15117  0.24654  0.88442  Biso   1.000  F
  N2       1.0000 0.00520  0.53515  0.88019  Biso   1.000  N
  C2       1.0000 0.00333  0.42594  0.88199  Biso   1.000  C
  F3       1.0000 0.84883  0.25346  0.88442  Biso   1.000  F
  N3       1.0000 0.99480  0.96485  0.88019  Biso   1.000  N
  C3       1.0000 0.99667  0.07406  0.88199  Biso   1.000  C
  F4       1.0000 0.34883  0.75346  0.38442  Biso   1.000  F
  N4       1.0000 0.49480  0.46485  0.38019  Biso   1.000  N
  C4       1.0000 0.49667  0.57406  0.38199  Biso   1.000  C
  F5       1.0000 0.00346  0.90117  0.63442  Biso   1.000  F
  N5       1.0000 0.71485  0.75520  0.63019  Biso   1.000  N
  C5       1.0000 0.82406  0.75333  0.63199  Biso   1.000  C
  F6       1.0000 0.50346  0.40117  0.13442  Biso   1.000  F
  N6       1.0000 0.21485  0.25520  0.13019  Biso   1.000  N
  C6       1.0000 0.32406  0.25333  0.13199  Biso   1.000  C
  F7       1.0000 0.49654  0.09883  0.13442  Biso   1.000  F
  N7       1.0000 0.78515  0.24480  0.13019  Biso   1.000  N
  C7       1.0000 0.67594  0.24667  0.13199  Biso   1.000  C
  F8       1.0000 0.99654  0.59883  0.63442  Biso   1.000  F
  N8       1.0000 0.28515  0.74480  0.63019  Biso   1.000  N
  C8       1.0000 0.17594  0.74667  0.63199  Biso   1.000  C
  F9       1.0000 0.34883  0.25346  0.61558  Biso   1.000  F
  N9       1.0000 0.49480  0.96485  0.61981  Biso   1.000  N
  C9       1.0000 0.49667  0.07406  0.61801  Biso   1.000  C
  F10      1.0000 0.84883  0.75346  0.11558  Biso   1.000  F
  N10      1.0000 0.99480  0.46485  0.11981  Biso   1.000  N
  C10      1.0000 0.99667  0.57406  0.11801  Biso   1.000  C
  F11      1.0000 0.15117  0.74654  0.11558  Biso   1.000  F
  N11      1.0000 0.00520  0.03515  0.11981  Biso   1.000  N
  C11      1.0000 0.00333  0.92594  0.11801  Biso   1.000  C
  F12      1.0000 0.65117  0.24654  0.61558  Biso   1.000  F
  N12      1.0000 0.50520  0.53515  0.61981  Biso   1.000  N
  C12      1.0000 0.50333  0.42594  0.61801  Biso   1.000  C
  F13      1.0000 0.99654  0.09883  0.36558  Biso   1.000  F
  N13      1.0000 0.28515  0.24480  0.36981  Biso   1.000  N
  C13      1.0000 0.17594  0.24667  0.36801  Biso   1.000  C
  F14      1.0000 0.49654  0.59883  0.86558  Biso   1.000  F
  N14      1.0000 0.78515  0.74480  0.86981  Biso   1.000  N
  C14      1.0000 0.67594  0.74667  0.86801  Biso   1.000  C
  F15      1.0000 0.50346  0.90117  0.86558  Biso   1.000  F
  N15      1.0000 0.21485  0.75520  0.86981  Biso   1.000  N
  C15      1.0000 0.32406  0.75333  0.86801  Biso   1.000  C
  F16      1.0000 0.00346  0.40117  0.36558  Biso   1.000  F
  N16      1.0000 0.71485  0.25520  0.36981  Biso   1.000  N
  C16      1.0000 0.82406  0.25333  0.36801  Biso   1.000  C
  Li1      1.0000 0.50000  0.25000  0.37500  Biso   1.000  Li
  Li2      1.0000 0.00000  0.75000  0.87500  Biso   1.000  Li
  Li3      1.0000 0.50000  0.75000  0.62500  Biso   1.000  Li
  Li4      1.0000 0.00000  0.25000  0.12500  Biso   1.000  Li
  P1       1.0000 0.50000  0.75000  0.38273  Biso   1.000  P
  F17      1.0000 0.50000  0.75000  0.30924  Biso   1.000  F
  N17      1.0000 0.50000  0.75000  0.52200  Biso   1.000  N
  C17      1.0000 0.50000  0.75000  0.46856  Biso   1.000  C
  P2       1.0000 0.00000  0.25000  0.88273  Biso   1.000  P
  F18      1.0000 0.00000  0.25000  0.80924  Biso   1.000  F
  N18      1.0000 0.00000  0.25000  0.02200  Biso   1.000  N
  C18      1.0000 0.00000  0.25000  0.96856  Biso   1.000  C
  P3       1.0000 0.00000  0.75000  0.63273  Biso   1.000  P
  F19      1.0000 0.00000  0.75000  0.55924  Biso   1.000  F
  N19      1.0000 0.00000  0.75000  0.77200  Biso   1.000  N
  C19      1.0000 0.00000  0.75000  0.71856  Biso   1.000  C
  P4       1.0000 0.50000  0.25000  0.13273  Biso   1.000  P
  F20      1.0000 0.50000  0.25000  0.05924  Biso   1.000  F
  N20      1.0000 0.50000  0.25000  0.27200  Biso   1.000  N
  C20      1.0000 0.50000  0.25000  0.21856  Biso   1.000  C
  P5       1.0000 0.50000  0.25000  0.61727  Biso   1.000  P
  F21      1.0000 0.50000  0.25000  0.69076  Biso   1.000  F
  N21      1.0000 0.50000  0.25000  0.47800  Biso   1.000  N
  C21      1.0000 0.50000  0.25000  0.53144  Biso   1.000  C
  P6       1.0000 0.00000  0.75000  0.11727  Biso   1.000  P
  F22      1.0000 0.00000  0.75000  0.19076  Biso   1.000  F
  N22      1.0000 0.00000  0.75000  0.97800  Biso   1.000  N
  C22      1.0000 0.00000  0.75000  0.03144  Biso   1.000  C
  P7       1.0000 0.00000  0.25000  0.36727  Biso   1.000  P
  F23      1.0000 0.00000  0.25000  0.44076  Biso   1.000  F
  N23      1.0000 0.00000  0.25000  0.22800  Biso   1.000  N
  C23      1.0000 0.00000  0.25000  0.28144  Biso   1.000  C
  P8       1.0000 0.50000  0.75000  0.86727  Biso   1.000  P
  F24      1.0000 0.50000  0.75000  0.94076  Biso   1.000  F
  N24      1.0000 0.50000  0.75000  0.72800  Biso   1.000  N
  C24      1.0000 0.50000  0.75000  0.78144  Biso   1.000  C
