data_image0
_cell_length_a       14.2928
_cell_length_b       10.244
_cell_length_c       18.9901
_cell_angle_alpha    90
_cell_angle_beta     96.658
_cell_angle_gamma    90

_symmetry_space_group_name_H-M    "P 1"
_symmetry_int_tables_number       1

loop_
  _symmetry_equiv_pos_as_xyz
  'x, y, z'

loop_
  _atom_site_label
  _atom_site_occupancy
  _atom_site_fract_x
  _atom_site_fract_y
  _atom_site_fract_z
  _atom_site_thermal_displace_type
  _atom_site_B_iso_or_equiv
  _atom_site_type_symbol
  V1       1.0000 0.15540  0.61470  0.08940  Biso   1.000  V
  V2       1.0000 0.22760  0.55610  0.28080  Biso   1.000  V
  P1       1.0000 0.78510  0.37490  0.07490  Biso   1.000  P
  P2       1.0000 0.16620  0.33250  0.16940  Biso   1.000  P
  O1       1.0000 0.79640  0.42540  0.00060  Biso   1.000  O
  O2       1.0000 0.69220  0.30030  0.07590  Biso   1.000  O
  O3       1.0000 0.15550  0.40270  0.23880  Biso   1.000  O
  O4       1.0000 0.18290  0.42880  0.10980  Biso   1.000  O
  O5       1.0000 0.78890  0.49360  0.12320  Biso   1.000  O
  O6       1.0000 0.24710  0.23350  0.17590  Biso   1.000  O
  O7       1.0000 0.19090  0.65130  0.19050  Biso   1.000  O
  C1       1.0000 0.88060  0.26610  0.10460  Biso   1.000  C
  C2       1.0000 0.05790  0.24650  0.14330  Biso   1.000  C
  C3       1.0000 0.97450  0.33720  0.12090  Biso   1.000  C
  H1       1.0000 0.88640  0.20090  0.06830  Biso   1.000  H
  H2       1.0000 0.86610  0.22110  0.14700  Biso   1.000  H
  H3       1.0000 0.04300  0.19290  0.18260  Biso   1.000  H
  H4       1.0000 0.06680  0.18880  0.10410  Biso   1.000  H
  H5       1.0000 0.98730  0.38540  0.07910  Biso   1.000  H
  H6       1.0000 0.96910  0.39990  0.15850  Biso   1.000  H
  V3       1.0000 0.65540  0.11470  0.08940  Biso   1.000  V
  V4       1.0000 0.72760  0.05610  0.28080  Biso   1.000  V
  P3       1.0000 0.28510  0.87490  0.07490  Biso   1.000  P
  P4       1.0000 0.66620  0.83250  0.16940  Biso   1.000  P
  O8       1.0000 0.29640  0.92540  0.00060  Biso   1.000  O
  O9       1.0000 0.19220  0.80030  0.07590  Biso   1.000  O
  O10      1.0000 0.65550  0.90270  0.23880  Biso   1.000  O
  O11      1.0000 0.68290  0.92880  0.10980  Biso   1.000  O
  O12      1.0000 0.28890  0.99360  0.12320  Biso   1.000  O
  O13      1.0000 0.74710  0.73350  0.17590  Biso   1.000  O
  O14      1.0000 0.69090  0.15130  0.19050  Biso   1.000  O
  C4       1.0000 0.38060  0.76610  0.10460  Biso   1.000  C
  C5       1.0000 0.55790  0.74650  0.14330  Biso   1.000  C
  C6       1.0000 0.47450  0.83720  0.12090  Biso   1.000  C
  H7       1.0000 0.38640  0.70090  0.06830  Biso   1.000  H
  H8       1.0000 0.36610  0.72110  0.14700  Biso   1.000  H
  H9       1.0000 0.54300  0.69290  0.18260  Biso   1.000  H
  H10      1.0000 0.56680  0.68880  0.10410  Biso   1.000  H
  H11      1.0000 0.48730  0.88540  0.07910  Biso   1.000  H
  H12      1.0000 0.46910  0.89990  0.15850  Biso   1.000  H
  V5       1.0000 0.84460  0.61470  0.41060  Biso   1.000  V
  V6       1.0000 0.77240  0.55610  0.21920  Biso   1.000  V
  P5       1.0000 0.21490  0.37490  0.42510  Biso   1.000  P
  P6       1.0000 0.83380  0.33250  0.33060  Biso   1.000  P
  O15      1.0000 0.20360  0.42540  0.49940  Biso   1.000  O
  O16      1.0000 0.30780  0.30030  0.42410  Biso   1.000  O
  O17      1.0000 0.84450  0.40270  0.26120  Biso   1.000  O
  O18      1.0000 0.81710  0.42880  0.39020  Biso   1.000  O
  O19      1.0000 0.21110  0.49360  0.37680  Biso   1.000  O
  O20      1.0000 0.75290  0.23350  0.32410  Biso   1.000  O
  O21      1.0000 0.80910  0.65130  0.30950  Biso   1.000  O
  C7       1.0000 0.11940  0.26610  0.39540  Biso   1.000  C
  C8       1.0000 0.94210  0.24650  0.35670  Biso   1.000  C
  C9       1.0000 0.02550  0.33720  0.37910  Biso   1.000  C
  H13      1.0000 0.11360  0.20090  0.43170  Biso   1.000  H
  H14      1.0000 0.13390  0.22110  0.35300  Biso   1.000  H
  H15      1.0000 0.95700  0.19290  0.31740  Biso   1.000  H
  H16      1.0000 0.93320  0.18880  0.39590  Biso   1.000  H
  H17      1.0000 0.01270  0.38540  0.42090  Biso   1.000  H
  H18      1.0000 0.03090  0.39990  0.34150  Biso   1.000  H
  V7       1.0000 0.34460  0.11470  0.41060  Biso   1.000  V
  V8       1.0000 0.27240  0.05610  0.21920  Biso   1.000  V
  P7       1.0000 0.71490  0.87490  0.42510  Biso   1.000  P
  P8       1.0000 0.33380  0.83250  0.33060  Biso   1.000  P
  O22      1.0000 0.70360  0.92540  0.49940  Biso   1.000  O
  O23      1.0000 0.80780  0.80030  0.42410  Biso   1.000  O
  O24      1.0000 0.34450  0.90270  0.26120  Biso   1.000  O
  O25      1.0000 0.31710  0.92880  0.39020  Biso   1.000  O
  O26      1.0000 0.71110  0.99360  0.37680  Biso   1.000  O
  O27      1.0000 0.25290  0.73350  0.32410  Biso   1.000  O
  O28      1.0000 0.30910  0.15130  0.30950  Biso   1.000  O
  C10      1.0000 0.61940  0.76610  0.39540  Biso   1.000  C
  C11      1.0000 0.44210  0.74650  0.35670  Biso   1.000  C
  C12      1.0000 0.52550  0.83720  0.37910  Biso   1.000  C
  H19      1.0000 0.61360  0.70090  0.43170  Biso   1.000  H
  H20      1.0000 0.63390  0.72110  0.35300  Biso   1.000  H
  H21      1.0000 0.45700  0.69290  0.31740  Biso   1.000  H
  H22      1.0000 0.43320  0.68880  0.39590  Biso   1.000  H
  H23      1.0000 0.51270  0.88540  0.42090  Biso   1.000  H
  H24      1.0000 0.53090  0.89990  0.34150  Biso   1.000  H
  V9       1.0000 0.84460  0.38530  0.91060  Biso   1.000  V
  V10      1.0000 0.77240  0.44390  0.71920  Biso   1.000  V
  P9       1.0000 0.21490  0.62510  0.92510  Biso   1.000  P
  P10      1.0000 0.83380  0.66750  0.83060  Biso   1.000  P
  O29      1.0000 0.20360  0.57460  0.99940  Biso   1.000  O
  O30      1.0000 0.30780  0.69970  0.92410  Biso   1.000  O
  O31      1.0000 0.84450  0.59730  0.76120  Biso   1.000  O
  O32      1.0000 0.81710  0.57120  0.89020  Biso   1.000  O
  O33      1.0000 0.21110  0.50640  0.87680  Biso   1.000  O
  O34      1.0000 0.75290  0.76650  0.82410  Biso   1.000  O
  O35      1.0000 0.80910  0.34870  0.80950  Biso   1.000  O
  C13      1.0000 0.11940  0.73390  0.89540  Biso   1.000  C
  C14      1.0000 0.94210  0.75350  0.85670  Biso   1.000  C
  C15      1.0000 0.02550  0.66280  0.87910  Biso   1.000  C
  H25      1.0000 0.11360  0.79910  0.93170  Biso   1.000  H
  H26      1.0000 0.13390  0.77890  0.85300  Biso   1.000  H
  H27      1.0000 0.95700  0.80710  0.81740  Biso   1.000  H
  H28      1.0000 0.93320  0.81120  0.89590  Biso   1.000  H
  H29      1.0000 0.01270  0.61460  0.92090  Biso   1.000  H
  H30      1.0000 0.03090  0.60010  0.84150  Biso   1.000  H
  V11      1.0000 0.34460  0.88530  0.91060  Biso   1.000  V
  V12      1.0000 0.27240  0.94390  0.71920  Biso   1.000  V
  P11      1.0000 0.71490  0.12510  0.92510  Biso   1.000  P
  P12      1.0000 0.33380  0.16750  0.83060  Biso   1.000  P
  O36      1.0000 0.70360  0.07460  0.99940  Biso   1.000  O
  O37      1.0000 0.80780  0.19970  0.92410  Biso   1.000  O
  O38      1.0000 0.34450  0.09730  0.76120  Biso   1.000  O
  O39      1.0000 0.31710  0.07120  0.89020  Biso   1.000  O
  O40      1.0000 0.71110  0.00640  0.87680  Biso   1.000  O
  O41      1.0000 0.25290  0.26650  0.82410  Biso   1.000  O
  O42      1.0000 0.30910  0.84870  0.80950  Biso   1.000  O
  C16      1.0000 0.61940  0.23390  0.89540  Biso   1.000  C
  C17      1.0000 0.44210  0.25350  0.85670  Biso   1.000  C
  C18      1.0000 0.52550  0.16280  0.87910  Biso   1.000  C
  H31      1.0000 0.61360  0.29910  0.93170  Biso   1.000  H
  H32      1.0000 0.63390  0.27890  0.85300  Biso   1.000  H
  H33      1.0000 0.45700  0.30710  0.81740  Biso   1.000  H
  H34      1.0000 0.43320  0.31120  0.89590  Biso   1.000  H
  H35      1.0000 0.51270  0.11460  0.92090  Biso   1.000  H
  H36      1.0000 0.53090  0.10010  0.84150  Biso   1.000  H
  V13      1.0000 0.15540  0.38530  0.58940  Biso   1.000  V
  V14      1.0000 0.22760  0.44390  0.78080  Biso   1.000  V
  P13      1.0000 0.78510  0.62510  0.57490  Biso   1.000  P
  P14      1.0000 0.16620  0.66750  0.66940  Biso   1.000  P
  O43      1.0000 0.79640  0.57460  0.50060  Biso   1.000  O
  O44      1.0000 0.69220  0.69970  0.57590  Biso   1.000  O
  O45      1.0000 0.15550  0.59730  0.73880  Biso   1.000  O
  O46      1.0000 0.18290  0.57120  0.60980  Biso   1.000  O
  O47      1.0000 0.78890  0.50640  0.62320  Biso   1.000  O
  O48      1.0000 0.24710  0.76650  0.67590  Biso   1.000  O
  O49      1.0000 0.19090  0.34870  0.69050  Biso   1.000  O
  C19      1.0000 0.88060  0.73390  0.60460  Biso   1.000  C
  C20      1.0000 0.05790  0.75350  0.64330  Biso   1.000  C
  C21      1.0000 0.97450  0.66280  0.62090  Biso   1.000  C
  H37      1.0000 0.88640  0.79910  0.56830  Biso   1.000  H
  H38      1.0000 0.86610  0.77890  0.64700  Biso   1.000  H
  H39      1.0000 0.04300  0.80710  0.68260  Biso   1.000  H
  H40      1.0000 0.06680  0.81120  0.60410  Biso   1.000  H
  H41      1.0000 0.98730  0.61460  0.57910  Biso   1.000  H
  H42      1.0000 0.96910  0.60010  0.65850  Biso   1.000  H
  V15      1.0000 0.65540  0.88530  0.58940  Biso   1.000  V
  V16      1.0000 0.72760  0.94390  0.78080  Biso   1.000  V
  P15      1.0000 0.28510  0.12510  0.57490  Biso   1.000  P
  P16      1.0000 0.66620  0.16750  0.66940  Biso   1.000  P
  O50      1.0000 0.29640  0.07460  0.50060  Biso   1.000  O
  O51      1.0000 0.19220  0.19970  0.57590  Biso   1.000  O
  O52      1.0000 0.65550  0.09730  0.73880  Biso   1.000  O
  O53      1.0000 0.68290  0.07120  0.60980  Biso   1.000  O
  O54      1.0000 0.28890  0.00640  0.62320  Biso   1.000  O
  O55      1.0000 0.74710  0.26650  0.67590  Biso   1.000  O
  O56      1.0000 0.69090  0.84870  0.69050  Biso   1.000  O
  C22      1.0000 0.38060  0.23390  0.60460  Biso   1.000  C
  C23      1.0000 0.55790  0.25350  0.64330  Biso   1.000  C
  C24      1.0000 0.47450  0.16280  0.62090  Biso   1.000  C
  H43      1.0000 0.38640  0.29910  0.56830  Biso   1.000  H
  H44      1.0000 0.36610  0.27890  0.64700  Biso   1.000  H
  H45      1.0000 0.54300  0.30710  0.68260  Biso   1.000  H
  H46      1.0000 0.56680  0.31120  0.60410  Biso   1.000  H
  H47      1.0000 0.48730  0.11460  0.57910  Biso   1.000  H
  H48      1.0000 0.46910  0.10010  0.65850  Biso   1.000  H
