data_image0
_cell_length_a       5.0986
_cell_length_b       10.4943
_cell_length_c       12.4457
_cell_angle_alpha    87.614
_cell_angle_beta     87.258
_cell_angle_gamma    89.994

_symmetry_space_group_name_H-M    "P 1"
_symmetry_int_tables_number       1

loop_
  _symmetry_equiv_pos_as_xyz
  'x, y, z'

loop_
  _atom_site_label
  _atom_site_occupancy
  _atom_site_fract_x
  _atom_site_fract_y
  _atom_site_fract_z
  _atom_site_thermal_displace_type
  _atom_site_B_iso_or_equiv
  _atom_site_type_symbol
  Zn1      1.0000 0.21169  0.35799  0.99839  Biso   1.000  Zn
  Zn2      1.0000 0.71971  0.14534  0.99755  Biso   1.000  Zn
  Zn3      1.0000 0.80521  0.39410  0.39234  Biso   1.000  Zn
  P1       1.0000 0.24820  0.11324  0.86211  Biso   1.000  P
  P2       1.0000 0.71190  0.39338  0.13820  Biso   1.000  P
  P3       1.0000 0.29780  0.32839  0.52299  Biso   1.000  P
  O1       1.0000 0.42150  0.39960  0.11620  Biso   1.000  O
  O2       1.0000 0.83940  0.52500  0.12250  Biso   1.000  O
  O3       1.0000 0.36980  0.19690  0.94860  Biso   1.000  O
  O4       1.0000 0.85400  0.30610  0.05440  Biso   1.000  O
  O5       1.0000 0.33760  0.97690  0.88610  Biso   1.000  O
  O6       1.0000 0.95050  0.12750  0.87360  Biso   1.000  O
  O7       1.0000 0.58930  0.30520  0.50270  Biso   1.000  O
  O8       1.0000 0.25170  0.42470  0.60920  Biso   1.000  O
  O9       1.0000 0.75070  0.33540  0.24980  Biso   1.000  O
  O10      1.0000 0.17090  0.36400  0.41870  Biso   1.000  O
  O11      1.0000 0.35360  0.15750  0.75260  Biso   1.000  O
  O12      1.0000 0.16910  0.20160  0.56940  Biso   1.000  O
  H1       1.0000 0.23510  0.18030  0.62620  Biso   1.000  H
  Zn4      1.0000 0.78831  0.64201  0.00161  Biso   1.000  Zn
  Zn5      1.0000 0.28029  0.85466  0.00245  Biso   1.000  Zn
  Zn6      1.0000 0.19479  0.60590  0.60766  Biso   1.000  Zn
  P4       1.0000 0.75180  0.88676  0.13789  Biso   1.000  P
  P5       1.0000 0.28810  0.60662  0.86180  Biso   1.000  P
  P6       1.0000 0.70220  0.67161  0.47701  Biso   1.000  P
  O13      1.0000 0.57850  0.60040  0.88380  Biso   1.000  O
  O14      1.0000 0.16060  0.47500  0.87750  Biso   1.000  O
  O15      1.0000 0.63020  0.80310  0.05140  Biso   1.000  O
  O16      1.0000 0.14600  0.69390  0.94560  Biso   1.000  O
  O17      1.0000 0.66240  0.02310  0.11390  Biso   1.000  O
  O18      1.0000 0.04950  0.87250  0.12640  Biso   1.000  O
  O19      1.0000 0.41070  0.69480  0.49730  Biso   1.000  O
  O20      1.0000 0.74830  0.57530  0.39080  Biso   1.000  O
  O21      1.0000 0.24930  0.66460  0.75020  Biso   1.000  O
  O22      1.0000 0.82910  0.63600  0.58130  Biso   1.000  O
  O23      1.0000 0.64640  0.84250  0.24740  Biso   1.000  O
  O24      1.0000 0.83090  0.79840  0.43060  Biso   1.000  O
  H2       1.0000 0.76490  0.81970  0.37380  Biso   1.000  H
