data_image0
_cell_length_a       9.7306
_cell_length_b       10.53
_cell_length_c       16.416
_cell_angle_alpha    90
_cell_angle_beta     112.13
_cell_angle_gamma    90

_symmetry_space_group_name_H-M    "P 1"
_symmetry_int_tables_number       1

loop_
  _symmetry_equiv_pos_as_xyz
  'x, y, z'

loop_
  _atom_site_label
  _atom_site_occupancy
  _atom_site_fract_x
  _atom_site_fract_y
  _atom_site_fract_z
  _atom_site_thermal_displace_type
  _atom_site_B_iso_or_equiv
  _atom_site_type_symbol
  C1       1.0000 0.67710  0.05390  0.96930  Biso   1.000  C
  H1       1.0000 0.60740  0.11020  0.93270  Biso   1.000  H
  C2       1.0000 0.64210  0.92710  0.97050  Biso   1.000  C
  H2       1.0000 0.54940  0.89720  0.93390  Biso   1.000  H
  C3       1.0000 0.74420  0.84580  0.02570  Biso   1.000  C
  H3       1.0000 0.72020  0.76060  0.02760  Biso   1.000  H
  C4       1.0000 0.88170  0.88910  0.07830  Biso   1.000  C
  H4       1.0000 0.95110  0.83320  0.11560  Biso   1.000  H
  C5       1.0000 0.91830  0.01710  0.07600  Biso   1.000  C
  C6       1.0000 0.06600  0.07140  0.12800  Biso   1.000  C
  H5       1.0000 0.09030  0.13490  0.09280  Biso   1.000  H
  H6       1.0000 0.13980  0.00460  0.14100  Biso   1.000  H
  C7       1.0000 0.92850  0.96740  0.46800  Biso   1.000  C
  C8       1.0000 0.51650  0.93990  0.52910  Biso   1.000  C
  Gd1      1.0000 0.18022  0.88804  0.39342  Biso   1.000  Gd
  N1       1.0000 0.81330  0.09620  0.02150  Biso   1.000  N
  O1       1.0000 0.06200  0.04200  0.29066  Biso   1.000  O
  O2       1.0000 0.23710  0.20320  0.26798  Biso   1.000  O
  H7       1.0000 0.28400  0.17300  0.31660  Biso   1.000  H
  O3       1.0000 0.96150  0.24630  0.21048  Biso   1.000  O
  O4       1.0000 0.84540  0.21790  0.01707  Biso   1.000  O
  O5       1.0000 0.81430  0.97940  0.48541  Biso   1.000  O
  O6       1.0000 0.93810  0.90900  0.40476  Biso   1.000  O
  O7       1.0000 0.42620  0.85200  0.50717  Biso   1.000  O
  O8       1.0000 0.63730  0.94320  0.59488  Biso   1.000  O
  P1       1.0000 0.07588  0.14354  0.23021  Biso   1.000  P
  C9       1.0000 0.32290  0.55390  0.53070  Biso   1.000  C
  H8       1.0000 0.39260  0.61020  0.56730  Biso   1.000  H
  C10      1.0000 0.35790  0.42710  0.52950  Biso   1.000  C
  H9       1.0000 0.45060  0.39720  0.56610  Biso   1.000  H
  C11      1.0000 0.25580  0.34580  0.47430  Biso   1.000  C
  H10      1.0000 0.27980  0.26060  0.47240  Biso   1.000  H
  C12      1.0000 0.11830  0.38910  0.42170  Biso   1.000  C
  H11      1.0000 0.04890  0.33320  0.38440  Biso   1.000  H
  C13      1.0000 0.08170  0.51710  0.42400  Biso   1.000  C
  C14      1.0000 0.93400  0.57140  0.37200  Biso   1.000  C
  H12      1.0000 0.90970  0.63490  0.40720  Biso   1.000  H
  H13      1.0000 0.86020  0.50460  0.35900  Biso   1.000  H
  C15      1.0000 0.07150  0.46740  0.03200  Biso   1.000  C
  C16      1.0000 0.48350  0.43990  0.97090  Biso   1.000  C
  Gd2      1.0000 0.81978  0.38804  0.10658  Biso   1.000  Gd
  N2       1.0000 0.18670  0.59620  0.47850  Biso   1.000  N
  O9       1.0000 0.93800  0.54200  0.20934  Biso   1.000  O
  O10      1.0000 0.76290  0.70320  0.23202  Biso   1.000  O
  H14      1.0000 0.71600  0.67300  0.18340  Biso   1.000  H
  O11      1.0000 0.03850  0.74630  0.28952  Biso   1.000  O
  O12      1.0000 0.15460  0.71790  0.48293  Biso   1.000  O
  O13      1.0000 0.18570  0.47940  0.01459  Biso   1.000  O
  O14      1.0000 0.06190  0.40900  0.09524  Biso   1.000  O
  O15      1.0000 0.57380  0.35200  0.99283  Biso   1.000  O
  O16      1.0000 0.36270  0.44320  0.90512  Biso   1.000  O
  P2       1.0000 0.92412  0.64354  0.26979  Biso   1.000  P
  C17      1.0000 0.32290  0.94610  0.03070  Biso   1.000  C
  H15      1.0000 0.39260  0.88980  0.06730  Biso   1.000  H
  C18      1.0000 0.35790  0.07290  0.02950  Biso   1.000  C
  H16      1.0000 0.45060  0.10280  0.06610  Biso   1.000  H
  C19      1.0000 0.25580  0.15420  0.97430  Biso   1.000  C
  H17      1.0000 0.27980  0.23940  0.97240  Biso   1.000  H
  C20      1.0000 0.11830  0.11090  0.92170  Biso   1.000  C
  H18      1.0000 0.04890  0.16680  0.88440  Biso   1.000  H
  C21      1.0000 0.08170  0.98290  0.92400  Biso   1.000  C
  C22      1.0000 0.93400  0.92860  0.87200  Biso   1.000  C
  H19      1.0000 0.90970  0.86510  0.90720  Biso   1.000  H
  H20      1.0000 0.86020  0.99540  0.85900  Biso   1.000  H
  C23      1.0000 0.07150  0.03260  0.53200  Biso   1.000  C
  C24      1.0000 0.48350  0.06010  0.47090  Biso   1.000  C
  Gd3      1.0000 0.81978  0.11196  0.60658  Biso   1.000  Gd
  N3       1.0000 0.18670  0.90380  0.97850  Biso   1.000  N
  O17      1.0000 0.93800  0.95800  0.70934  Biso   1.000  O
  O18      1.0000 0.76290  0.79680  0.73202  Biso   1.000  O
  H21      1.0000 0.71600  0.82700  0.68340  Biso   1.000  H
  O19      1.0000 0.03850  0.75370  0.78952  Biso   1.000  O
  O20      1.0000 0.15460  0.78210  0.98293  Biso   1.000  O
  O21      1.0000 0.18570  0.02060  0.51459  Biso   1.000  O
  O22      1.0000 0.06190  0.09100  0.59524  Biso   1.000  O
  O23      1.0000 0.57380  0.14800  0.49283  Biso   1.000  O
  O24      1.0000 0.36270  0.05680  0.40512  Biso   1.000  O
  P3       1.0000 0.92412  0.85646  0.76979  Biso   1.000  P
  C25      1.0000 0.67710  0.44610  0.46930  Biso   1.000  C
  H22      1.0000 0.60740  0.38980  0.43270  Biso   1.000  H
  C26      1.0000 0.64210  0.57290  0.47050  Biso   1.000  C
  H23      1.0000 0.54940  0.60280  0.43390  Biso   1.000  H
  C27      1.0000 0.74420  0.65420  0.52570  Biso   1.000  C
  H24      1.0000 0.72020  0.73940  0.52760  Biso   1.000  H
  C28      1.0000 0.88170  0.61090  0.57830  Biso   1.000  C
  H25      1.0000 0.95110  0.66680  0.61560  Biso   1.000  H
  C29      1.0000 0.91830  0.48290  0.57600  Biso   1.000  C
  C30      1.0000 0.06600  0.42860  0.62800  Biso   1.000  C
  H26      1.0000 0.09030  0.36510  0.59280  Biso   1.000  H
  H27      1.0000 0.13980  0.49540  0.64100  Biso   1.000  H
  C31      1.0000 0.92850  0.53260  0.96800  Biso   1.000  C
  C32      1.0000 0.51650  0.56010  0.02910  Biso   1.000  C
  Gd4      1.0000 0.18022  0.61196  0.89342  Biso   1.000  Gd
  N4       1.0000 0.81330  0.40380  0.52150  Biso   1.000  N
  O25      1.0000 0.06200  0.45800  0.79066  Biso   1.000  O
  O26      1.0000 0.23710  0.29680  0.76798  Biso   1.000  O
  H28      1.0000 0.28400  0.32700  0.81660  Biso   1.000  H
  O27      1.0000 0.96150  0.25370  0.71048  Biso   1.000  O
  O28      1.0000 0.84540  0.28210  0.51707  Biso   1.000  O
  O29      1.0000 0.81430  0.52060  0.98541  Biso   1.000  O
  O30      1.0000 0.93810  0.59100  0.90476  Biso   1.000  O
  O31      1.0000 0.42620  0.64800  0.00717  Biso   1.000  O
  O32      1.0000 0.63730  0.55680  0.09488  Biso   1.000  O
  P4       1.0000 0.07588  0.35646  0.73021  Biso   1.000  P
