data_image0
_cell_length_a       9.7192
_cell_length_b       10.4517
_cell_length_c       16.4217
_cell_angle_alpha    90
_cell_angle_beta     112.58
_cell_angle_gamma    90

_symmetry_space_group_name_H-M    "P 1"
_symmetry_int_tables_number       1

loop_
  _symmetry_equiv_pos_as_xyz
  'x, y, z'

loop_
  _atom_site_label
  _atom_site_occupancy
  _atom_site_fract_x
  _atom_site_fract_y
  _atom_site_fract_z
  _atom_site_thermal_displace_type
  _atom_site_B_iso_or_equiv
  _atom_site_type_symbol
  C1       1.0000 0.67900  0.05980  0.96850  Biso   1.000  C
  H1       1.0000 0.60960  0.11690  0.93160  Biso   1.000  H
  C2       1.0000 0.64200  0.93270  0.96850  Biso   1.000  C
  H2       1.0000 0.54830  0.90330  0.93190  Biso   1.000  H
  C3       1.0000 0.74640  0.85020  0.02340  Biso   1.000  C
  H3       1.0000 0.72380  0.76390  0.02430  Biso   1.000  H
  C4       1.0000 0.88320  0.89490  0.07660  Biso   1.000  C
  H4       1.0000 0.95310  0.83840  0.11390  Biso   1.000  H
  C5       1.0000 0.92010  0.02240  0.07610  Biso   1.000  C
  C6       1.0000 0.06780  0.07670  0.12980  Biso   1.000  C
  H5       1.0000 0.09360  0.14040  0.09510  Biso   1.000  H
  H6       1.0000 0.14180  0.00910  0.14390  Biso   1.000  H
  C7       1.0000 0.92780  0.96870  0.46710  Biso   1.000  C
  C8       1.0000 0.51720  0.93820  0.52730  Biso   1.000  C
  Dy1      1.0000 0.17842  0.89428  0.39302  Biso   1.000  Dy
  N1       1.0000 0.81430  0.10200  0.02140  Biso   1.000  N
  O1       1.0000 0.06030  0.04760  0.29190  Biso   1.000  O
  O2       1.0000 0.23500  0.21110  0.27090  Biso   1.000  O
  H7       1.0000 0.28720  0.17070  0.31470  Biso   1.000  H
  O3       1.0000 0.95950  0.25190  0.21000  Biso   1.000  O
  O4       1.0000 0.84640  0.22490  0.01770  Biso   1.000  O
  O5       1.0000 0.81400  0.97940  0.48470  Biso   1.000  O
  O6       1.0000 0.93670  0.91360  0.40240  Biso   1.000  O
  O7       1.0000 0.42260  0.85120  0.50440  Biso   1.000  O
  O8       1.0000 0.64110  0.93520  0.59110  Biso   1.000  O
  P1       1.0000 0.07480  0.14983  0.23131  Biso   1.000  P
  C9       1.0000 0.32100  0.55980  0.53150  Biso   1.000  C
  H8       1.0000 0.39040  0.61690  0.56840  Biso   1.000  H
  C10      1.0000 0.35800  0.43270  0.53150  Biso   1.000  C
  H9       1.0000 0.45170  0.40330  0.56810  Biso   1.000  H
  C11      1.0000 0.25360  0.35020  0.47660  Biso   1.000  C
  H10      1.0000 0.27620  0.26390  0.47570  Biso   1.000  H
  C12      1.0000 0.11680  0.39490  0.42340  Biso   1.000  C
  H11      1.0000 0.04690  0.33840  0.38610  Biso   1.000  H
  C13      1.0000 0.07990  0.52240  0.42390  Biso   1.000  C
  C14      1.0000 0.93220  0.57670  0.37020  Biso   1.000  C
  H12      1.0000 0.90640  0.64040  0.40490  Biso   1.000  H
  H13      1.0000 0.85820  0.50910  0.35610  Biso   1.000  H
  C15      1.0000 0.07220  0.46870  0.03290  Biso   1.000  C
  C16      1.0000 0.48280  0.43820  0.97270  Biso   1.000  C
  Dy2      1.0000 0.82158  0.39428  0.10698  Biso   1.000  Dy
  N2       1.0000 0.18570  0.60200  0.47860  Biso   1.000  N
  O9       1.0000 0.93970  0.54760  0.20810  Biso   1.000  O
  O10      1.0000 0.76500  0.71110  0.22910  Biso   1.000  O
  H14      1.0000 0.71280  0.67070  0.18530  Biso   1.000  H
  O11      1.0000 0.04050  0.75190  0.29000  Biso   1.000  O
  O12      1.0000 0.15360  0.72490  0.48230  Biso   1.000  O
  O13      1.0000 0.18600  0.47940  0.01530  Biso   1.000  O
  O14      1.0000 0.06330  0.41360  0.09760  Biso   1.000  O
  O15      1.0000 0.57740  0.35120  0.99560  Biso   1.000  O
  O16      1.0000 0.35890  0.43520  0.90890  Biso   1.000  O
  P2       1.0000 0.92520  0.64983  0.26869  Biso   1.000  P
  C17      1.0000 0.32100  0.94020  0.03150  Biso   1.000  C
  H15      1.0000 0.39040  0.88310  0.06840  Biso   1.000  H
  C18      1.0000 0.35800  0.06730  0.03150  Biso   1.000  C
  H16      1.0000 0.45170  0.09670  0.06810  Biso   1.000  H
  C19      1.0000 0.25360  0.14980  0.97660  Biso   1.000  C
  H17      1.0000 0.27620  0.23610  0.97570  Biso   1.000  H
  C20      1.0000 0.11680  0.10510  0.92340  Biso   1.000  C
  H18      1.0000 0.04690  0.16160  0.88610  Biso   1.000  H
  C21      1.0000 0.07990  0.97760  0.92390  Biso   1.000  C
  C22      1.0000 0.93220  0.92330  0.87020  Biso   1.000  C
  H19      1.0000 0.90640  0.85960  0.90490  Biso   1.000  H
  H20      1.0000 0.85820  0.99090  0.85610  Biso   1.000  H
  C23      1.0000 0.07220  0.03130  0.53290  Biso   1.000  C
  C24      1.0000 0.48280  0.06180  0.47270  Biso   1.000  C
  Dy3      1.0000 0.82158  0.10572  0.60698  Biso   1.000  Dy
  N3       1.0000 0.18570  0.89800  0.97860  Biso   1.000  N
  O17      1.0000 0.93970  0.95240  0.70810  Biso   1.000  O
  O18      1.0000 0.76500  0.78890  0.72910  Biso   1.000  O
  H21      1.0000 0.71280  0.82930  0.68530  Biso   1.000  H
  O19      1.0000 0.04050  0.74810  0.79000  Biso   1.000  O
  O20      1.0000 0.15360  0.77510  0.98230  Biso   1.000  O
  O21      1.0000 0.18600  0.02060  0.51530  Biso   1.000  O
  O22      1.0000 0.06330  0.08640  0.59760  Biso   1.000  O
  O23      1.0000 0.57740  0.14880  0.49560  Biso   1.000  O
  O24      1.0000 0.35890  0.06480  0.40890  Biso   1.000  O
  P3       1.0000 0.92520  0.85017  0.76869  Biso   1.000  P
  C25      1.0000 0.67900  0.44020  0.46850  Biso   1.000  C
  H22      1.0000 0.60960  0.38310  0.43160  Biso   1.000  H
  C26      1.0000 0.64200  0.56730  0.46850  Biso   1.000  C
  H23      1.0000 0.54830  0.59670  0.43190  Biso   1.000  H
  C27      1.0000 0.74640  0.64980  0.52340  Biso   1.000  C
  H24      1.0000 0.72380  0.73610  0.52430  Biso   1.000  H
  C28      1.0000 0.88320  0.60510  0.57660  Biso   1.000  C
  H25      1.0000 0.95310  0.66160  0.61390  Biso   1.000  H
  C29      1.0000 0.92010  0.47760  0.57610  Biso   1.000  C
  C30      1.0000 0.06780  0.42330  0.62980  Biso   1.000  C
  H26      1.0000 0.09360  0.35960  0.59510  Biso   1.000  H
  H27      1.0000 0.14180  0.49090  0.64390  Biso   1.000  H
  C31      1.0000 0.92780  0.53130  0.96710  Biso   1.000  C
  C32      1.0000 0.51720  0.56180  0.02730  Biso   1.000  C
  Dy4      1.0000 0.17842  0.60572  0.89302  Biso   1.000  Dy
  N4       1.0000 0.81430  0.39800  0.52140  Biso   1.000  N
  O25      1.0000 0.06030  0.45240  0.79190  Biso   1.000  O
  O26      1.0000 0.23500  0.28890  0.77090  Biso   1.000  O
  H28      1.0000 0.28720  0.32930  0.81470  Biso   1.000  H
  O27      1.0000 0.95950  0.24810  0.71000  Biso   1.000  O
  O28      1.0000 0.84640  0.27510  0.51770  Biso   1.000  O
  O29      1.0000 0.81400  0.52060  0.98470  Biso   1.000  O
  O30      1.0000 0.93670  0.58640  0.90240  Biso   1.000  O
  O31      1.0000 0.42260  0.64880  0.00440  Biso   1.000  O
  O32      1.0000 0.64110  0.56480  0.09110  Biso   1.000  O
  P4       1.0000 0.07480  0.35017  0.73131  Biso   1.000  P
