data_image0
_cell_length_a       15.1085
_cell_length_b       8.8403
_cell_length_c       17.2628
_cell_angle_alpha    90
_cell_angle_beta     114.537
_cell_angle_gamma    90

_symmetry_space_group_name_H-M    "P 1"
_symmetry_int_tables_number       1

loop_
  _symmetry_equiv_pos_as_xyz
  'x, y, z'

loop_
  _atom_site_label
  _atom_site_occupancy
  _atom_site_fract_x
  _atom_site_fract_y
  _atom_site_fract_z
  _atom_site_thermal_displace_type
  _atom_site_B_iso_or_equiv
  _atom_site_type_symbol
  Zn1      1.0000 0.19028  0.11151  0.54451  Biso   1.000  Zn
  Zn2      1.0000 0.01457  0.91976  0.77667  Biso   1.000  Zn
  Zn3      1.0000 0.28325  0.15857  0.81074  Biso   1.000  Zn
  P1       1.0000 0.28723  0.38070  0.66538  Biso   1.000  P
  P2       1.0000 0.01660  0.31890  0.41565  Biso   1.000  P
  P3       1.0000 0.15288  0.86670  0.41213  Biso   1.000  P
  P4       1.0000 0.17099  0.88630  0.69112  Biso   1.000  P
  O1       1.0000 0.28850  0.25240  0.60610  Biso   1.000  O
  O2       1.0000 0.06250  0.21300  0.49020  Biso   1.000  O
  O3       1.0000 0.21360  0.00440  0.45490  Biso   1.000  O
  O4       1.0000 0.16100  0.94270  0.60380  Biso   1.000  O
  O5       1.0000 0.07910  0.93520  0.70100  Biso   1.000  O
  O6       1.0000 0.04810  0.90840  0.35430  Biso   1.000  O
  O7       1.0000 0.38170  0.46660  0.69960  Biso   1.000  O
  O8       1.0000 0.02570  0.27150  0.33490  Biso   1.000  O
  O9       1.0000 0.26060  0.95910  0.76240  Biso   1.000  O
  O10      1.0000 0.91200  0.34960  0.40050  Biso   1.000  O
  O11      1.0000 0.25880  0.32710  0.73470  Biso   1.000  O
  O12      1.0000 0.19770  0.77420  0.36290  Biso   1.000  O
  O13      1.0000 0.20670  0.49570  0.60720  Biso   1.000  O
  H1       1.0000 0.20440  0.56830  0.63590  Biso   1.000  H
  O14      1.0000 0.07370  0.47410  0.43880  Biso   1.000  O
  H2       1.0000 0.04960  0.53310  0.39880  Biso   1.000  H
  O15      1.0000 0.14850  0.75980  0.48390  Biso   1.000  O
  H3       1.0000 0.11590  0.68470  0.46190  Biso   1.000  H
  O16      1.0000 0.18420  0.71670  0.69590  Biso   1.000  O
  Zn4      1.0000 0.69028  0.61151  0.54451  Biso   1.000  Zn
  Zn5      1.0000 0.51457  0.41976  0.77667  Biso   1.000  Zn
  Zn6      1.0000 0.78325  0.65857  0.81074  Biso   1.000  Zn
  P5       1.0000 0.78723  0.88070  0.66538  Biso   1.000  P
  P6       1.0000 0.51660  0.81890  0.41565  Biso   1.000  P
  P7       1.0000 0.65288  0.36670  0.41213  Biso   1.000  P
  P8       1.0000 0.67099  0.38630  0.69112  Biso   1.000  P
  O17      1.0000 0.78850  0.75240  0.60610  Biso   1.000  O
  O18      1.0000 0.56250  0.71300  0.49020  Biso   1.000  O
  O19      1.0000 0.71360  0.50440  0.45490  Biso   1.000  O
  O20      1.0000 0.66100  0.44270  0.60380  Biso   1.000  O
  O21      1.0000 0.57910  0.43520  0.70100  Biso   1.000  O
  O22      1.0000 0.54810  0.40840  0.35430  Biso   1.000  O
  O23      1.0000 0.88170  0.96660  0.69960  Biso   1.000  O
  O24      1.0000 0.52570  0.77150  0.33490  Biso   1.000  O
  O25      1.0000 0.76060  0.45910  0.76240  Biso   1.000  O
  O26      1.0000 0.41200  0.84960  0.40050  Biso   1.000  O
  O27      1.0000 0.75880  0.82710  0.73470  Biso   1.000  O
  O28      1.0000 0.69770  0.27420  0.36290  Biso   1.000  O
  O29      1.0000 0.70670  0.99570  0.60720  Biso   1.000  O
  H4       1.0000 0.70440  0.06830  0.63590  Biso   1.000  H
  O30      1.0000 0.57370  0.97410  0.43880  Biso   1.000  O
  H5       1.0000 0.54960  0.03310  0.39880  Biso   1.000  H
  O31      1.0000 0.64850  0.25980  0.48390  Biso   1.000  O
  H6       1.0000 0.61590  0.18470  0.46190  Biso   1.000  H
  O32      1.0000 0.68420  0.21670  0.69590  Biso   1.000  O
  Zn7      1.0000 0.19028  0.88849  0.04451  Biso   1.000  Zn
  Zn8      1.0000 0.01457  0.08024  0.27667  Biso   1.000  Zn
  Zn9      1.0000 0.28325  0.84143  0.31074  Biso   1.000  Zn
  P9       1.0000 0.28723  0.61930  0.16538  Biso   1.000  P
  P10      1.0000 0.01660  0.68110  0.91565  Biso   1.000  P
  P11      1.0000 0.15288  0.13330  0.91213  Biso   1.000  P
  P12      1.0000 0.17099  0.11370  0.19112  Biso   1.000  P
  O33      1.0000 0.28850  0.74760  0.10610  Biso   1.000  O
  O34      1.0000 0.06250  0.78700  0.99020  Biso   1.000  O
  O35      1.0000 0.21360  0.99560  0.95490  Biso   1.000  O
  O36      1.0000 0.16100  0.05730  0.10380  Biso   1.000  O
  O37      1.0000 0.07910  0.06480  0.20100  Biso   1.000  O
  O38      1.0000 0.04810  0.09160  0.85430  Biso   1.000  O
  O39      1.0000 0.38170  0.53340  0.19960  Biso   1.000  O
  O40      1.0000 0.02570  0.72850  0.83490  Biso   1.000  O
  O41      1.0000 0.26060  0.04090  0.26240  Biso   1.000  O
  O42      1.0000 0.91200  0.65040  0.90050  Biso   1.000  O
  O43      1.0000 0.25880  0.67290  0.23470  Biso   1.000  O
  O44      1.0000 0.19770  0.22580  0.86290  Biso   1.000  O
  O45      1.0000 0.20670  0.50430  0.10720  Biso   1.000  O
  H7       1.0000 0.20440  0.43170  0.13590  Biso   1.000  H
  O46      1.0000 0.07370  0.52590  0.93880  Biso   1.000  O
  H8       1.0000 0.04960  0.46690  0.89880  Biso   1.000  H
  O47      1.0000 0.14850  0.24020  0.98390  Biso   1.000  O
  H9       1.0000 0.11590  0.31530  0.96190  Biso   1.000  H
  O48      1.0000 0.18420  0.28330  0.19590  Biso   1.000  O
  Zn10     1.0000 0.69028  0.38849  0.04451  Biso   1.000  Zn
  Zn11     1.0000 0.51457  0.58024  0.27667  Biso   1.000  Zn
  Zn12     1.0000 0.78325  0.34143  0.31074  Biso   1.000  Zn
  P13      1.0000 0.78723  0.11930  0.16538  Biso   1.000  P
  P14      1.0000 0.51660  0.18110  0.91565  Biso   1.000  P
  P15      1.0000 0.65288  0.63330  0.91213  Biso   1.000  P
  P16      1.0000 0.67099  0.61370  0.19112  Biso   1.000  P
  O49      1.0000 0.78850  0.24760  0.10610  Biso   1.000  O
  O50      1.0000 0.56250  0.28700  0.99020  Biso   1.000  O
  O51      1.0000 0.71360  0.49560  0.95490  Biso   1.000  O
  O52      1.0000 0.66100  0.55730  0.10380  Biso   1.000  O
  O53      1.0000 0.57910  0.56480  0.20100  Biso   1.000  O
  O54      1.0000 0.54810  0.59160  0.85430  Biso   1.000  O
  O55      1.0000 0.88170  0.03340  0.19960  Biso   1.000  O
  O56      1.0000 0.52570  0.22850  0.83490  Biso   1.000  O
  O57      1.0000 0.76060  0.54090  0.26240  Biso   1.000  O
  O58      1.0000 0.41200  0.15040  0.90050  Biso   1.000  O
  O59      1.0000 0.75880  0.17290  0.23470  Biso   1.000  O
  O60      1.0000 0.69770  0.72580  0.86290  Biso   1.000  O
  O61      1.0000 0.70670  0.00430  0.10720  Biso   1.000  O
  H10      1.0000 0.70440  0.93170  0.13590  Biso   1.000  H
  O62      1.0000 0.57370  0.02590  0.93880  Biso   1.000  O
  H11      1.0000 0.54960  0.96690  0.89880  Biso   1.000  H
  O63      1.0000 0.64850  0.74020  0.98390  Biso   1.000  O
  H12      1.0000 0.61590  0.81530  0.96190  Biso   1.000  H
  O64      1.0000 0.68420  0.78330  0.19590  Biso   1.000  O
