data_image0
_cell_length_a       9.7216
_cell_length_b       10.4273
_cell_length_c       16.4046
_cell_angle_alpha    90
_cell_angle_beta     112.678
_cell_angle_gamma    90

_symmetry_space_group_name_H-M    "P 1"
_symmetry_int_tables_number       1

loop_
  _symmetry_equiv_pos_as_xyz
  'x, y, z'

loop_
  _atom_site_label
  _atom_site_occupancy
  _atom_site_fract_x
  _atom_site_fract_y
  _atom_site_fract_z
  _atom_site_thermal_displace_type
  _atom_site_B_iso_or_equiv
  _atom_site_type_symbol
  C1       1.0000 0.67880  0.06150  0.96760  Biso   1.000  C
  H1       1.0000 0.60920  0.11840  0.93030  Biso   1.000  H
  C2       1.0000 0.64300  0.93420  0.96790  Biso   1.000  C
  H2       1.0000 0.54940  0.90450  0.93120  Biso   1.000  H
  C3       1.0000 0.74610  0.85170  0.02260  Biso   1.000  C
  H3       1.0000 0.72280  0.76540  0.02330  Biso   1.000  H
  C4       1.0000 0.88420  0.89580  0.07670  Biso   1.000  C
  H4       1.0000 0.95390  0.83910  0.11420  Biso   1.000  H
  C5       1.0000 0.92080  0.02400  0.07600  Biso   1.000  C
  C6       1.0000 0.06890  0.07900  0.13050  Biso   1.000  C
  H5       1.0000 0.09490  0.14300  0.09600  Biso   1.000  H
  H6       1.0000 0.14320  0.01150  0.14490  Biso   1.000  H
  C7       1.0000 0.92820  0.96900  0.46700  Biso   1.000  C
  C8       1.0000 0.51720  0.93750  0.52660  Biso   1.000  C
  Ho1      1.0000 0.17796  0.89640  0.39293  Biso   1.000  Ho
  N1       1.0000 0.81440  0.10440  0.02140  Biso   1.000  N
  O1       1.0000 0.06060  0.04970  0.29240  Biso   1.000  O
  O2       1.0000 0.23480  0.21380  0.27190  Biso   1.000  O
  H7       1.0000 0.28680  0.17370  0.31600  Biso   1.000  H
  O3       1.0000 0.95820  0.25380  0.20991  Biso   1.000  O
  O4       1.0000 0.84730  0.22750  0.01780  Biso   1.000  O
  O5       1.0000 0.81400  0.97910  0.48420  Biso   1.000  O
  O6       1.0000 0.93680  0.91540  0.40170  Biso   1.000  O
  O7       1.0000 0.42170  0.85110  0.50330  Biso   1.000  O
  O8       1.0000 0.64160  0.93320  0.59010  Biso   1.000  O
  P1       1.0000 0.07448  0.15183  0.23178  Biso   1.000  P
  C9       1.0000 0.32120  0.56150  0.53240  Biso   1.000  C
  H8       1.0000 0.39080  0.61840  0.56970  Biso   1.000  H
  C10      1.0000 0.35700  0.43420  0.53210  Biso   1.000  C
  H9       1.0000 0.45060  0.40450  0.56880  Biso   1.000  H
  C11      1.0000 0.25390  0.35170  0.47740  Biso   1.000  C
  H10      1.0000 0.27720  0.26540  0.47670  Biso   1.000  H
  C12      1.0000 0.11580  0.39580  0.42330  Biso   1.000  C
  H11      1.0000 0.04610  0.33910  0.38580  Biso   1.000  H
  C13      1.0000 0.07920  0.52400  0.42400  Biso   1.000  C
  C14      1.0000 0.93110  0.57900  0.36950  Biso   1.000  C
  H12      1.0000 0.90510  0.64300  0.40400  Biso   1.000  H
  H13      1.0000 0.85680  0.51150  0.35510  Biso   1.000  H
  C15      1.0000 0.07180  0.46900  0.03300  Biso   1.000  C
  C16      1.0000 0.48280  0.43750  0.97340  Biso   1.000  C
  Ho2      1.0000 0.82204  0.39640  0.10707  Biso   1.000  Ho
  N2       1.0000 0.18560  0.60440  0.47860  Biso   1.000  N
  O9       1.0000 0.93940  0.54970  0.20760  Biso   1.000  O
  O10      1.0000 0.76520  0.71380  0.22810  Biso   1.000  O
  H14      1.0000 0.71320  0.67370  0.18400  Biso   1.000  H
  O11      1.0000 0.04180  0.75380  0.29009  Biso   1.000  O
  O12      1.0000 0.15270  0.72750  0.48220  Biso   1.000  O
  O13      1.0000 0.18600  0.47910  0.01580  Biso   1.000  O
  O14      1.0000 0.06320  0.41540  0.09830  Biso   1.000  O
  O15      1.0000 0.57830  0.35110  0.99670  Biso   1.000  O
  O16      1.0000 0.35840  0.43320  0.90990  Biso   1.000  O
  P2       1.0000 0.92552  0.65183  0.26822  Biso   1.000  P
  C17      1.0000 0.32120  0.93850  0.03240  Biso   1.000  C
  H15      1.0000 0.39080  0.88160  0.06970  Biso   1.000  H
  C18      1.0000 0.35700  0.06580  0.03210  Biso   1.000  C
  H16      1.0000 0.45060  0.09550  0.06880  Biso   1.000  H
  C19      1.0000 0.25390  0.14830  0.97740  Biso   1.000  C
  H17      1.0000 0.27720  0.23460  0.97670  Biso   1.000  H
  C20      1.0000 0.11580  0.10420  0.92330  Biso   1.000  C
  H18      1.0000 0.04610  0.16090  0.88580  Biso   1.000  H
  C21      1.0000 0.07920  0.97600  0.92400  Biso   1.000  C
  C22      1.0000 0.93110  0.92100  0.86950  Biso   1.000  C
  H19      1.0000 0.90510  0.85700  0.90400  Biso   1.000  H
  H20      1.0000 0.85680  0.98850  0.85510  Biso   1.000  H
  C23      1.0000 0.07180  0.03100  0.53300  Biso   1.000  C
  C24      1.0000 0.48280  0.06250  0.47340  Biso   1.000  C
  Ho3      1.0000 0.82204  0.10360  0.60707  Biso   1.000  Ho
  N3       1.0000 0.18560  0.89560  0.97860  Biso   1.000  N
  O17      1.0000 0.93940  0.95030  0.70760  Biso   1.000  O
  O18      1.0000 0.76520  0.78620  0.72810  Biso   1.000  O
  H21      1.0000 0.71320  0.82630  0.68400  Biso   1.000  H
  O19      1.0000 0.04180  0.74620  0.79009  Biso   1.000  O
  O20      1.0000 0.15270  0.77250  0.98220  Biso   1.000  O
  O21      1.0000 0.18600  0.02090  0.51580  Biso   1.000  O
  O22      1.0000 0.06320  0.08460  0.59830  Biso   1.000  O
  O23      1.0000 0.57830  0.14890  0.49670  Biso   1.000  O
  O24      1.0000 0.35840  0.06680  0.40990  Biso   1.000  O
  P3       1.0000 0.92552  0.84817  0.76822  Biso   1.000  P
  C25      1.0000 0.67880  0.43850  0.46760  Biso   1.000  C
  H22      1.0000 0.60920  0.38160  0.43030  Biso   1.000  H
  C26      1.0000 0.64300  0.56580  0.46790  Biso   1.000  C
  H23      1.0000 0.54940  0.59550  0.43120  Biso   1.000  H
  C27      1.0000 0.74610  0.64830  0.52260  Biso   1.000  C
  H24      1.0000 0.72280  0.73460  0.52330  Biso   1.000  H
  C28      1.0000 0.88420  0.60420  0.57670  Biso   1.000  C
  H25      1.0000 0.95390  0.66090  0.61420  Biso   1.000  H
  C29      1.0000 0.92080  0.47600  0.57600  Biso   1.000  C
  C30      1.0000 0.06890  0.42100  0.63050  Biso   1.000  C
  H26      1.0000 0.09490  0.35700  0.59600  Biso   1.000  H
  H27      1.0000 0.14320  0.48850  0.64490  Biso   1.000  H
  C31      1.0000 0.92820  0.53100  0.96700  Biso   1.000  C
  C32      1.0000 0.51720  0.56250  0.02660  Biso   1.000  C
  Ho4      1.0000 0.17796  0.60360  0.89293  Biso   1.000  Ho
  N4       1.0000 0.81440  0.39560  0.52140  Biso   1.000  N
  O25      1.0000 0.06060  0.45030  0.79240  Biso   1.000  O
  O26      1.0000 0.23480  0.28620  0.77190  Biso   1.000  O
  H28      1.0000 0.28680  0.32630  0.81600  Biso   1.000  H
  O27      1.0000 0.95820  0.24620  0.70991  Biso   1.000  O
  O28      1.0000 0.84730  0.27250  0.51780  Biso   1.000  O
  O29      1.0000 0.81400  0.52090  0.98420  Biso   1.000  O
  O30      1.0000 0.93680  0.58460  0.90170  Biso   1.000  O
  O31      1.0000 0.42170  0.64890  0.00330  Biso   1.000  O
  O32      1.0000 0.64160  0.56680  0.09010  Biso   1.000  O
  P4       1.0000 0.07448  0.34817  0.73178  Biso   1.000  P
