data_image0
_cell_length_a       46.0575
_cell_length_b       20.9442
_cell_length_c       14.1001
_cell_angle_alpha    90
_cell_angle_beta     90
_cell_angle_gamma    90

_symmetry_space_group_name_H-M    "P 1"
_symmetry_int_tables_number       1

loop_
  _symmetry_equiv_pos_as_xyz
  'x, y, z'

loop_
  _atom_site_label
  _atom_site_occupancy
  _atom_site_fract_x
  _atom_site_fract_y
  _atom_site_fract_z
  _atom_site_thermal_displace_type
  _atom_site_B_iso_or_equiv
  _atom_site_type_symbol
  O1       1.0000 0.19061  0.06703  0.09637  Biso   1.000  O
  O2       1.0000 0.19034  0.06561  0.89886  Biso   1.000  O
  O3       1.0000 0.14191  0.06296  0.09982  Biso   1.000  O
  O4       1.0000 0.14211  0.06975  0.90767  Biso   1.000  O
  C1       1.0000 0.16677  0.08601  0.12360  Biso   1.000  C
  C2       1.0000 0.16570  0.08736  0.87670  Biso   1.000  C
  C3       1.0000 0.16555  0.14021  0.19180  Biso   1.000  C
  C4       1.0000 0.16574  0.14418  0.81090  Biso   1.000  C
  C5       1.0000 0.18851  0.15495  0.24800  Biso   1.000  C
  C6       1.0000 0.13964  0.17595  0.19720  Biso   1.000  C
  C7       1.0000 0.18909  0.15547  0.74740  Biso   1.000  C
  C8       1.0000 0.14249  0.18455  0.81080  Biso   1.000  C
  C9       1.0000 0.18740  0.20898  0.30890  Biso   1.000  C
  H1       1.0000 0.20510  0.12950  0.24670  Biso   1.000  H
  C10      1.0000 0.13884  0.22832  0.25590  Biso   1.000  C
  H2       1.0000 0.12340  0.16430  0.16180  Biso   1.000  H
  H3       1.0000 0.20480  0.12760  0.74600  Biso   1.000  H
  C11      1.0000 0.18860  0.20665  0.68880  Biso   1.000  C
  H4       1.0000 0.12660  0.17650  0.84990  Biso   1.000  H
  C12      1.0000 0.14264  0.23842  0.75140  Biso   1.000  C
  C13      1.0000 0.21192  0.22402  0.37300  Biso   1.000  C
  C14      1.0000 0.16266  0.24491  0.31290  Biso   1.000  C
  N1       1.0000 0.11240  0.26577  0.25780  Biso   1.000  N
  C15      1.0000 0.21294  0.22190  0.62000  Biso   1.000  C
  C16      1.0000 0.16536  0.25109  0.69280  Biso   1.000  C
  N2       1.0000 0.11951  0.28306  0.75340  Biso   1.000  N
  O5       1.0000 0.22871  0.17955  0.39562  Biso   1.000  O
  O6       1.0000 0.21337  0.28020  0.40255  Biso   1.000  O
  H5       1.0000 0.16160  0.28010  0.35300  Biso   1.000  H
  N3       1.0000 0.09311  0.26310  0.18870  Biso   1.000  N
  C17      1.0000 0.10289  0.30195  0.32960  Biso   1.000  C
  O7       1.0000 0.22839  0.17609  0.59306  Biso   1.000  O
  O8       1.0000 0.21538  0.27936  0.59553  Biso   1.000  O
  H6       1.0000 0.16570  0.28800  0.65620  Biso   1.000  H
  C18      1.0000 0.10232  0.29937  0.82710  Biso   1.000  C
  N4       1.0000 0.11492  0.32390  0.68050  Biso   1.000  N
  Cu1      1.0000 0.25846  0.18946  0.49657  Biso   1.000  Cu
  N5       1.0000 0.07085  0.29779  0.21430  Biso   1.000  N
  H7       1.0000 0.11250  0.31160  0.38580  Biso   1.000  H
  C19      1.0000 0.07597  0.32160  0.30220  Biso   1.000  C
  H8       1.0000 0.10180  0.28040  0.88670  Biso   1.000  H
  C20      1.0000 0.08568  0.35014  0.79540  Biso   1.000  C
  N6       1.0000 0.09383  0.36235  0.70400  Biso   1.000  N
  C21      1.0000 0.05614  0.36595  0.35090  Biso   1.000  C
  C22      1.0000 0.06297  0.38649  0.84530  Biso   1.000  C
  C23      1.0000 0.03003  0.38689  0.30895  Biso   1.000  C
  C24      1.0000 0.06190  0.38540  0.44100  Biso   1.000  C
  C25      1.0000 0.05343  0.36787  0.93200  Biso   1.000  C
  C26      1.0000 0.05266  0.44319  0.80780  Biso   1.000  C
  H9       1.0000 0.02460  0.37130  0.24980  Biso   1.000  H
  C27      1.0000 0.01250  0.43023  0.35480  Biso   1.000  C
  C28      1.0000 0.04429  0.42929  0.48830  Biso   1.000  C
  H10      1.0000 0.07810  0.36890  0.47210  Biso   1.000  H
  H11      1.0000 0.06080  0.33080  0.95920  Biso   1.000  H
  C29      1.0000 0.03278  0.40356  0.98090  Biso   1.000  C
  H12      1.0000 0.05970  0.45780  0.75000  Biso   1.000  H
  C30      1.0000 0.03222  0.47779  0.85511  Biso   1.000  C
  H13      1.0000 0.99550  0.44380  0.32520  Biso   1.000  H
  C31      1.0000 0.01919  0.45409  0.44269  Biso   1.000  C
  H14      1.0000 0.04900  0.44230  0.54950  Biso   1.000  H
  H15      1.0000 0.02680  0.39050  0.04090  Biso   1.000  H
  C32      1.0000 0.02096  0.45829  0.94126  Biso   1.000  C
  H16      1.0000 0.02560  0.51580  0.82860  Biso   1.000  H
  O9       1.0000 0.69061  0.56703  0.09637  Biso   1.000  O
  O10      1.0000 0.69034  0.56561  0.89886  Biso   1.000  O
  O11      1.0000 0.64191  0.56296  0.09982  Biso   1.000  O
  O12      1.0000 0.64211  0.56975  0.90767  Biso   1.000  O
  C33      1.0000 0.66677  0.58601  0.12360  Biso   1.000  C
  C34      1.0000 0.66570  0.58736  0.87670  Biso   1.000  C
  C35      1.0000 0.66555  0.64021  0.19180  Biso   1.000  C
  C36      1.0000 0.66574  0.64418  0.81090  Biso   1.000  C
  C37      1.0000 0.68851  0.65495  0.24800  Biso   1.000  C
  C38      1.0000 0.63964  0.67595  0.19720  Biso   1.000  C
  C39      1.0000 0.68909  0.65547  0.74740  Biso   1.000  C
  C40      1.0000 0.64249  0.68455  0.81080  Biso   1.000  C
  C41      1.0000 0.68740  0.70898  0.30890  Biso   1.000  C
  H17      1.0000 0.70510  0.62950  0.24670  Biso   1.000  H
  C42      1.0000 0.63884  0.72832  0.25590  Biso   1.000  C
  H18      1.0000 0.62340  0.66430  0.16180  Biso   1.000  H
  H19      1.0000 0.70480  0.62760  0.74600  Biso   1.000  H
  C43      1.0000 0.68860  0.70665  0.68880  Biso   1.000  C
  H20      1.0000 0.62660  0.67650  0.84990  Biso   1.000  H
  C44      1.0000 0.64264  0.73842  0.75140  Biso   1.000  C
  C45      1.0000 0.71192  0.72402  0.37300  Biso   1.000  C
  C46      1.0000 0.66266  0.74491  0.31290  Biso   1.000  C
  N7       1.0000 0.61240  0.76577  0.25780  Biso   1.000  N
  C47      1.0000 0.71294  0.72190  0.62000  Biso   1.000  C
  C48      1.0000 0.66536  0.75109  0.69280  Biso   1.000  C
  N8       1.0000 0.61951  0.78306  0.75340  Biso   1.000  N
  O13      1.0000 0.72871  0.67955  0.39562  Biso   1.000  O
  O14      1.0000 0.71337  0.78020  0.40255  Biso   1.000  O
  H21      1.0000 0.66160  0.78010  0.35300  Biso   1.000  H
  N9       1.0000 0.59311  0.76310  0.18870  Biso   1.000  N
  C49      1.0000 0.60289  0.80195  0.32960  Biso   1.000  C
  O15      1.0000 0.72839  0.67609  0.59306  Biso   1.000  O
  O16      1.0000 0.71538  0.77936  0.59553  Biso   1.000  O
  H22      1.0000 0.66570  0.78800  0.65620  Biso   1.000  H
  C50      1.0000 0.60232  0.79937  0.82710  Biso   1.000  C
  N10      1.0000 0.61492  0.82390  0.68050  Biso   1.000  N
  Cu2      1.0000 0.75846  0.68946  0.49657  Biso   1.000  Cu
  N11      1.0000 0.57085  0.79779  0.21430  Biso   1.000  N
  H23      1.0000 0.61250  0.81160  0.38580  Biso   1.000  H
  C51      1.0000 0.57597  0.82160  0.30220  Biso   1.000  C
  H24      1.0000 0.60180  0.78040  0.88670  Biso   1.000  H
  C52      1.0000 0.58568  0.85014  0.79540  Biso   1.000  C
  N12      1.0000 0.59383  0.86235  0.70400  Biso   1.000  N
  C53      1.0000 0.55614  0.86595  0.35090  Biso   1.000  C
  C54      1.0000 0.56297  0.88649  0.84530  Biso   1.000  C
  C55      1.0000 0.53003  0.88689  0.30895  Biso   1.000  C
  C56      1.0000 0.56190  0.88540  0.44100  Biso   1.000  C
  C57      1.0000 0.55343  0.86787  0.93200  Biso   1.000  C
  C58      1.0000 0.55266  0.94319  0.80780  Biso   1.000  C
  H25      1.0000 0.52460  0.87130  0.24980  Biso   1.000  H
  C59      1.0000 0.51250  0.93023  0.35480  Biso   1.000  C
  C60      1.0000 0.54429  0.92929  0.48830  Biso   1.000  C
  H26      1.0000 0.57810  0.86890  0.47210  Biso   1.000  H
  H27      1.0000 0.56080  0.83080  0.95920  Biso   1.000  H
  C61      1.0000 0.53278  0.90356  0.98090  Biso   1.000  C
  H28      1.0000 0.55970  0.95780  0.75000  Biso   1.000  H
  C62      1.0000 0.53222  0.97779  0.85511  Biso   1.000  C
  H29      1.0000 0.49550  0.94380  0.32520  Biso   1.000  H
  C63      1.0000 0.51919  0.95409  0.44269  Biso   1.000  C
  H30      1.0000 0.54900  0.94230  0.54950  Biso   1.000  H
  H31      1.0000 0.52680  0.89050  0.04090  Biso   1.000  H
  C64      1.0000 0.52096  0.95829  0.94126  Biso   1.000  C
  H32      1.0000 0.52560  0.01580  0.82860  Biso   1.000  H
  O17      1.0000 0.80939  0.93297  0.09637  Biso   1.000  O
  O18      1.0000 0.80966  0.93439  0.89886  Biso   1.000  O
  O19      1.0000 0.85809  0.93704  0.09982  Biso   1.000  O
  O20      1.0000 0.85789  0.93025  0.90767  Biso   1.000  O
  C65      1.0000 0.83323  0.91399  0.12360  Biso   1.000  C
  C66      1.0000 0.83430  0.91264  0.87670  Biso   1.000  C
  C67      1.0000 0.83445  0.85979  0.19180  Biso   1.000  C
  C68      1.0000 0.83426  0.85582  0.81090  Biso   1.000  C
  C69      1.0000 0.81149  0.84505  0.24800  Biso   1.000  C
  C70      1.0000 0.86036  0.82405  0.19720  Biso   1.000  C
  C71      1.0000 0.81091  0.84453  0.74740  Biso   1.000  C
  C72      1.0000 0.85751  0.81545  0.81080  Biso   1.000  C
  C73      1.0000 0.81260  0.79102  0.30890  Biso   1.000  C
  H33      1.0000 0.79490  0.87050  0.24670  Biso   1.000  H
  C74      1.0000 0.86116  0.77168  0.25590  Biso   1.000  C
  H34      1.0000 0.87660  0.83570  0.16180  Biso   1.000  H
  H35      1.0000 0.79520  0.87240  0.74600  Biso   1.000  H
  C75      1.0000 0.81140  0.79335  0.68880  Biso   1.000  C
  H36      1.0000 0.87340  0.82350  0.84990  Biso   1.000  H
  C76      1.0000 0.85736  0.76158  0.75140  Biso   1.000  C
  C77      1.0000 0.78808  0.77598  0.37300  Biso   1.000  C
  C78      1.0000 0.83734  0.75509  0.31290  Biso   1.000  C
  N13      1.0000 0.88760  0.73423  0.25780  Biso   1.000  N
  C79      1.0000 0.78706  0.77810  0.62000  Biso   1.000  C
  C80      1.0000 0.83464  0.74891  0.69280  Biso   1.000  C
  N14      1.0000 0.88049  0.71694  0.75340  Biso   1.000  N
  O21      1.0000 0.77129  0.82045  0.39562  Biso   1.000  O
  O22      1.0000 0.78663  0.71980  0.40255  Biso   1.000  O
  H37      1.0000 0.83840  0.71990  0.35300  Biso   1.000  H
  N15      1.0000 0.90689  0.73690  0.18870  Biso   1.000  N
  C81      1.0000 0.89711  0.69805  0.32960  Biso   1.000  C
  O23      1.0000 0.77161  0.82391  0.59306  Biso   1.000  O
  O24      1.0000 0.78462  0.72064  0.59553  Biso   1.000  O
  H38      1.0000 0.83430  0.71200  0.65620  Biso   1.000  H
  C82      1.0000 0.89768  0.70063  0.82710  Biso   1.000  C
  N16      1.0000 0.88508  0.67610  0.68050  Biso   1.000  N
  Cu3      1.0000 0.74154  0.81054  0.49657  Biso   1.000  Cu
  N17      1.0000 0.92915  0.70221  0.21430  Biso   1.000  N
  H39      1.0000 0.88750  0.68840  0.38580  Biso   1.000  H
  C83      1.0000 0.92403  0.67840  0.30220  Biso   1.000  C
  H40      1.0000 0.89820  0.71960  0.88670  Biso   1.000  H
  C84      1.0000 0.91432  0.64986  0.79540  Biso   1.000  C
  N18      1.0000 0.90617  0.63765  0.70400  Biso   1.000  N
  C85      1.0000 0.94386  0.63405  0.35090  Biso   1.000  C
  C86      1.0000 0.93703  0.61351  0.84530  Biso   1.000  C
  C87      1.0000 0.96997  0.61311  0.30895  Biso   1.000  C
  C88      1.0000 0.93810  0.61460  0.44100  Biso   1.000  C
  C89      1.0000 0.94657  0.63213  0.93200  Biso   1.000  C
  C90      1.0000 0.94734  0.55681  0.80780  Biso   1.000  C
  H41      1.0000 0.97540  0.62870  0.24980  Biso   1.000  H
  C91      1.0000 0.98750  0.56977  0.35480  Biso   1.000  C
  C92      1.0000 0.95571  0.57071  0.48830  Biso   1.000  C
  H42      1.0000 0.92190  0.63110  0.47210  Biso   1.000  H
  H43      1.0000 0.93920  0.66920  0.95920  Biso   1.000  H
  C93      1.0000 0.96722  0.59644  0.98090  Biso   1.000  C
  H44      1.0000 0.94030  0.54220  0.75000  Biso   1.000  H
  C94      1.0000 0.96778  0.52221  0.85511  Biso   1.000  C
  H45      1.0000 0.00450  0.55620  0.32520  Biso   1.000  H
  C95      1.0000 0.98081  0.54591  0.44269  Biso   1.000  C
  H46      1.0000 0.95100  0.55770  0.54950  Biso   1.000  H
  H47      1.0000 0.97320  0.60950  0.04090  Biso   1.000  H
  C96      1.0000 0.97904  0.54171  0.94126  Biso   1.000  C
  H48      1.0000 0.97440  0.48420  0.82860  Biso   1.000  H
  O25      1.0000 0.30939  0.43297  0.09637  Biso   1.000  O
  O26      1.0000 0.30966  0.43439  0.89886  Biso   1.000  O
  O27      1.0000 0.35809  0.43704  0.09982  Biso   1.000  O
  O28      1.0000 0.35789  0.43025  0.90767  Biso   1.000  O
  C97      1.0000 0.33323  0.41399  0.12360  Biso   1.000  C
  C98      1.0000 0.33430  0.41264  0.87670  Biso   1.000  C
  C99      1.0000 0.33445  0.35979  0.19180  Biso   1.000  C
  C100     1.0000 0.33426  0.35582  0.81090  Biso   1.000  C
  C101     1.0000 0.31149  0.34505  0.24800  Biso   1.000  C
  C102     1.0000 0.36036  0.32405  0.19720  Biso   1.000  C
  C103     1.0000 0.31091  0.34453  0.74740  Biso   1.000  C
  C104     1.0000 0.35751  0.31545  0.81080  Biso   1.000  C
  C105     1.0000 0.31260  0.29102  0.30890  Biso   1.000  C
  H49      1.0000 0.29490  0.37050  0.24670  Biso   1.000  H
  C106     1.0000 0.36116  0.27168  0.25590  Biso   1.000  C
  H50      1.0000 0.37660  0.33570  0.16180  Biso   1.000  H
  H51      1.0000 0.29520  0.37240  0.74600  Biso   1.000  H
  C107     1.0000 0.31140  0.29335  0.68880  Biso   1.000  C
  H52      1.0000 0.37340  0.32350  0.84990  Biso   1.000  H
  C108     1.0000 0.35736  0.26158  0.75140  Biso   1.000  C
  C109     1.0000 0.28808  0.27598  0.37300  Biso   1.000  C
  C110     1.0000 0.33734  0.25509  0.31290  Biso   1.000  C
  N19      1.0000 0.38760  0.23423  0.25780  Biso   1.000  N
  C111     1.0000 0.28706  0.27810  0.62000  Biso   1.000  C
  C112     1.0000 0.33464  0.24891  0.69280  Biso   1.000  C
  N20      1.0000 0.38049  0.21694  0.75340  Biso   1.000  N
  O29      1.0000 0.27129  0.32045  0.39562  Biso   1.000  O
  O30      1.0000 0.28663  0.21980  0.40255  Biso   1.000  O
  H53      1.0000 0.33840  0.21990  0.35300  Biso   1.000  H
  N21      1.0000 0.40689  0.23690  0.18870  Biso   1.000  N
  C113     1.0000 0.39711  0.19805  0.32960  Biso   1.000  C
  O31      1.0000 0.27161  0.32391  0.59306  Biso   1.000  O
  O32      1.0000 0.28462  0.22064  0.59553  Biso   1.000  O
  H54      1.0000 0.33430  0.21200  0.65620  Biso   1.000  H
  C114     1.0000 0.39768  0.20063  0.82710  Biso   1.000  C
  N22      1.0000 0.38508  0.17610  0.68050  Biso   1.000  N
  Cu4      1.0000 0.24154  0.31054  0.49657  Biso   1.000  Cu
  N23      1.0000 0.42915  0.20221  0.21430  Biso   1.000  N
  H55      1.0000 0.38750  0.18840  0.38580  Biso   1.000  H
  C115     1.0000 0.42403  0.17840  0.30220  Biso   1.000  C
  H56      1.0000 0.39820  0.21960  0.88670  Biso   1.000  H
  C116     1.0000 0.41432  0.14986  0.79540  Biso   1.000  C
  N24      1.0000 0.40617  0.13765  0.70400  Biso   1.000  N
  C117     1.0000 0.44386  0.13405  0.35090  Biso   1.000  C
  C118     1.0000 0.43703  0.11351  0.84530  Biso   1.000  C
  C119     1.0000 0.46997  0.11311  0.30895  Biso   1.000  C
  C120     1.0000 0.43810  0.11460  0.44100  Biso   1.000  C
  C121     1.0000 0.44657  0.13213  0.93200  Biso   1.000  C
  C122     1.0000 0.44734  0.05681  0.80780  Biso   1.000  C
  H57      1.0000 0.47540  0.12870  0.24980  Biso   1.000  H
  C123     1.0000 0.48750  0.06977  0.35480  Biso   1.000  C
  C124     1.0000 0.45571  0.07071  0.48830  Biso   1.000  C
  H58      1.0000 0.42190  0.13110  0.47210  Biso   1.000  H
  H59      1.0000 0.43920  0.16920  0.95920  Biso   1.000  H
  C125     1.0000 0.46722  0.09644  0.98090  Biso   1.000  C
  H60      1.0000 0.44030  0.04220  0.75000  Biso   1.000  H
  C126     1.0000 0.46778  0.02221  0.85511  Biso   1.000  C
  H61      1.0000 0.50450  0.05620  0.32520  Biso   1.000  H
  C127     1.0000 0.48081  0.04591  0.44269  Biso   1.000  C
  H62      1.0000 0.45100  0.05770  0.54950  Biso   1.000  H
  H63      1.0000 0.47320  0.10950  0.04090  Biso   1.000  H
  C128     1.0000 0.47904  0.04171  0.94126  Biso   1.000  C
  H64      1.0000 0.47440  0.98420  0.82860  Biso   1.000  H
  O33      1.0000 0.80939  0.06703  0.90363  Biso   1.000  O
  O34      1.0000 0.80966  0.06561  0.10114  Biso   1.000  O
  O35      1.0000 0.85809  0.06296  0.90018  Biso   1.000  O
  O36      1.0000 0.85789  0.06975  0.09233  Biso   1.000  O
  C129     1.0000 0.83323  0.08601  0.87640  Biso   1.000  C
  C130     1.0000 0.83430  0.08736  0.12330  Biso   1.000  C
  C131     1.0000 0.83445  0.14021  0.80820  Biso   1.000  C
  C132     1.0000 0.83426  0.14418  0.18910  Biso   1.000  C
  C133     1.0000 0.81149  0.15495  0.75200  Biso   1.000  C
  C134     1.0000 0.86036  0.17595  0.80280  Biso   1.000  C
  C135     1.0000 0.81091  0.15547  0.25260  Biso   1.000  C
  C136     1.0000 0.85751  0.18455  0.18920  Biso   1.000  C
  C137     1.0000 0.81260  0.20898  0.69110  Biso   1.000  C
  H65      1.0000 0.79490  0.12950  0.75330  Biso   1.000  H
  C138     1.0000 0.86116  0.22832  0.74410  Biso   1.000  C
  H66      1.0000 0.87660  0.16430  0.83820  Biso   1.000  H
  H67      1.0000 0.79520  0.12760  0.25400  Biso   1.000  H
  C139     1.0000 0.81140  0.20665  0.31120  Biso   1.000  C
  H68      1.0000 0.87340  0.17650  0.15010  Biso   1.000  H
  C140     1.0000 0.85736  0.23842  0.24860  Biso   1.000  C
  C141     1.0000 0.78808  0.22402  0.62700  Biso   1.000  C
  C142     1.0000 0.83734  0.24491  0.68710  Biso   1.000  C
  N25      1.0000 0.88760  0.26577  0.74220  Biso   1.000  N
  C143     1.0000 0.78706  0.22190  0.38000  Biso   1.000  C
  C144     1.0000 0.83464  0.25109  0.30720  Biso   1.000  C
  N26      1.0000 0.88049  0.28306  0.24660  Biso   1.000  N
  O37      1.0000 0.77129  0.17955  0.60438  Biso   1.000  O
  O38      1.0000 0.78663  0.28020  0.59745  Biso   1.000  O
  H69      1.0000 0.83840  0.28010  0.64700  Biso   1.000  H
  N27      1.0000 0.90689  0.26310  0.81130  Biso   1.000  N
  C145     1.0000 0.89711  0.30195  0.67040  Biso   1.000  C
  O39      1.0000 0.77161  0.17609  0.40694  Biso   1.000  O
  O40      1.0000 0.78462  0.27936  0.40447  Biso   1.000  O
  H70      1.0000 0.83430  0.28800  0.34380  Biso   1.000  H
  C146     1.0000 0.89768  0.29937  0.17290  Biso   1.000  C
  N28      1.0000 0.88508  0.32390  0.31950  Biso   1.000  N
  Cu5      1.0000 0.74154  0.18946  0.50343  Biso   1.000  Cu
  N29      1.0000 0.92915  0.29779  0.78570  Biso   1.000  N
  H71      1.0000 0.88750  0.31160  0.61420  Biso   1.000  H
  C147     1.0000 0.92403  0.32160  0.69780  Biso   1.000  C
  H72      1.0000 0.89820  0.28040  0.11330  Biso   1.000  H
  C148     1.0000 0.91432  0.35014  0.20460  Biso   1.000  C
  N30      1.0000 0.90617  0.36235  0.29600  Biso   1.000  N
  C149     1.0000 0.94386  0.36595  0.64910  Biso   1.000  C
  C150     1.0000 0.93703  0.38649  0.15470  Biso   1.000  C
  C151     1.0000 0.96997  0.38689  0.69105  Biso   1.000  C
  C152     1.0000 0.93810  0.38540  0.55900  Biso   1.000  C
  C153     1.0000 0.94657  0.36787  0.06800  Biso   1.000  C
  C154     1.0000 0.94734  0.44319  0.19220  Biso   1.000  C
  H73      1.0000 0.97540  0.37130  0.75020  Biso   1.000  H
  C155     1.0000 0.98750  0.43023  0.64520  Biso   1.000  C
  C156     1.0000 0.95571  0.42929  0.51170  Biso   1.000  C
  H74      1.0000 0.92190  0.36890  0.52790  Biso   1.000  H
  H75      1.0000 0.93920  0.33080  0.04080  Biso   1.000  H
  C157     1.0000 0.96722  0.40356  0.01910  Biso   1.000  C
  H76      1.0000 0.94030  0.45780  0.25000  Biso   1.000  H
  C158     1.0000 0.96778  0.47779  0.14489  Biso   1.000  C
  H77      1.0000 0.00450  0.44380  0.67480  Biso   1.000  H
  C159     1.0000 0.98081  0.45409  0.55731  Biso   1.000  C
  H78      1.0000 0.95100  0.44230  0.45050  Biso   1.000  H
  H79      1.0000 0.97320  0.39050  0.95910  Biso   1.000  H
  C160     1.0000 0.97904  0.45829  0.05874  Biso   1.000  C
  H80      1.0000 0.97440  0.51580  0.17140  Biso   1.000  H
  O41      1.0000 0.30939  0.56703  0.90363  Biso   1.000  O
  O42      1.0000 0.30966  0.56561  0.10114  Biso   1.000  O
  O43      1.0000 0.35809  0.56296  0.90018  Biso   1.000  O
  O44      1.0000 0.35789  0.56975  0.09233  Biso   1.000  O
  C161     1.0000 0.33323  0.58601  0.87640  Biso   1.000  C
  C162     1.0000 0.33430  0.58736  0.12330  Biso   1.000  C
  C163     1.0000 0.33445  0.64021  0.80820  Biso   1.000  C
  C164     1.0000 0.33426  0.64418  0.18910  Biso   1.000  C
  C165     1.0000 0.31149  0.65495  0.75200  Biso   1.000  C
  C166     1.0000 0.36036  0.67595  0.80280  Biso   1.000  C
  C167     1.0000 0.31091  0.65547  0.25260  Biso   1.000  C
  C168     1.0000 0.35751  0.68455  0.18920  Biso   1.000  C
  C169     1.0000 0.31260  0.70898  0.69110  Biso   1.000  C
  H81      1.0000 0.29490  0.62950  0.75330  Biso   1.000  H
  C170     1.0000 0.36116  0.72832  0.74410  Biso   1.000  C
  H82      1.0000 0.37660  0.66430  0.83820  Biso   1.000  H
  H83      1.0000 0.29520  0.62760  0.25400  Biso   1.000  H
  C171     1.0000 0.31140  0.70665  0.31120  Biso   1.000  C
  H84      1.0000 0.37340  0.67650  0.15010  Biso   1.000  H
  C172     1.0000 0.35736  0.73842  0.24860  Biso   1.000  C
  C173     1.0000 0.28808  0.72402  0.62700  Biso   1.000  C
  C174     1.0000 0.33734  0.74491  0.68710  Biso   1.000  C
  N31      1.0000 0.38760  0.76577  0.74220  Biso   1.000  N
  C175     1.0000 0.28706  0.72190  0.38000  Biso   1.000  C
  C176     1.0000 0.33464  0.75109  0.30720  Biso   1.000  C
  N32      1.0000 0.38049  0.78306  0.24660  Biso   1.000  N
  O45      1.0000 0.27129  0.67955  0.60438  Biso   1.000  O
  O46      1.0000 0.28663  0.78020  0.59745  Biso   1.000  O
  H85      1.0000 0.33840  0.78010  0.64700  Biso   1.000  H
  N33      1.0000 0.40689  0.76310  0.81130  Biso   1.000  N
  C177     1.0000 0.39711  0.80195  0.67040  Biso   1.000  C
  O47      1.0000 0.27161  0.67609  0.40694  Biso   1.000  O
  O48      1.0000 0.28462  0.77936  0.40447  Biso   1.000  O
  H86      1.0000 0.33430  0.78800  0.34380  Biso   1.000  H
  C178     1.0000 0.39768  0.79937  0.17290  Biso   1.000  C
  N34      1.0000 0.38508  0.82390  0.31950  Biso   1.000  N
  Cu6      1.0000 0.24154  0.68946  0.50343  Biso   1.000  Cu
  N35      1.0000 0.42915  0.79779  0.78570  Biso   1.000  N
  H87      1.0000 0.38750  0.81160  0.61420  Biso   1.000  H
  C179     1.0000 0.42403  0.82160  0.69780  Biso   1.000  C
  H88      1.0000 0.39820  0.78040  0.11330  Biso   1.000  H
  C180     1.0000 0.41432  0.85014  0.20460  Biso   1.000  C
  N36      1.0000 0.40617  0.86235  0.29600  Biso   1.000  N
  C181     1.0000 0.44386  0.86595  0.64910  Biso   1.000  C
  C182     1.0000 0.43703  0.88649  0.15470  Biso   1.000  C
  C183     1.0000 0.46997  0.88689  0.69105  Biso   1.000  C
  C184     1.0000 0.43810  0.88540  0.55900  Biso   1.000  C
  C185     1.0000 0.44657  0.86787  0.06800  Biso   1.000  C
  C186     1.0000 0.44734  0.94319  0.19220  Biso   1.000  C
  H89      1.0000 0.47540  0.87130  0.75020  Biso   1.000  H
  C187     1.0000 0.48750  0.93023  0.64520  Biso   1.000  C
  C188     1.0000 0.45571  0.92929  0.51170  Biso   1.000  C
  H90      1.0000 0.42190  0.86890  0.52790  Biso   1.000  H
  H91      1.0000 0.43920  0.83080  0.04080  Biso   1.000  H
  C189     1.0000 0.46722  0.90356  0.01910  Biso   1.000  C
  H92      1.0000 0.44030  0.95780  0.25000  Biso   1.000  H
  C190     1.0000 0.46778  0.97779  0.14489  Biso   1.000  C
  H93      1.0000 0.50450  0.94380  0.67480  Biso   1.000  H
  C191     1.0000 0.48081  0.95409  0.55731  Biso   1.000  C
  H94      1.0000 0.45100  0.94230  0.45050  Biso   1.000  H
  H95      1.0000 0.47320  0.89050  0.95910  Biso   1.000  H
  C192     1.0000 0.47904  0.95829  0.05874  Biso   1.000  C
  H96      1.0000 0.47440  0.01580  0.17140  Biso   1.000  H
  O49      1.0000 0.19061  0.93297  0.90363  Biso   1.000  O
  O50      1.0000 0.19034  0.93439  0.10114  Biso   1.000  O
  O51      1.0000 0.14191  0.93704  0.90018  Biso   1.000  O
  O52      1.0000 0.14211  0.93025  0.09233  Biso   1.000  O
  C193     1.0000 0.16677  0.91399  0.87640  Biso   1.000  C
  C194     1.0000 0.16570  0.91264  0.12330  Biso   1.000  C
  C195     1.0000 0.16555  0.85979  0.80820  Biso   1.000  C
  C196     1.0000 0.16574  0.85582  0.18910  Biso   1.000  C
  C197     1.0000 0.18851  0.84505  0.75200  Biso   1.000  C
  C198     1.0000 0.13964  0.82405  0.80280  Biso   1.000  C
  C199     1.0000 0.18909  0.84453  0.25260  Biso   1.000  C
  C200     1.0000 0.14249  0.81545  0.18920  Biso   1.000  C
  C201     1.0000 0.18740  0.79102  0.69110  Biso   1.000  C
  H97      1.0000 0.20510  0.87050  0.75330  Biso   1.000  H
  C202     1.0000 0.13884  0.77168  0.74410  Biso   1.000  C
  H98      1.0000 0.12340  0.83570  0.83820  Biso   1.000  H
  H99      1.0000 0.20480  0.87240  0.25400  Biso   1.000  H
  C203     1.0000 0.18860  0.79335  0.31120  Biso   1.000  C
  H100     1.0000 0.12660  0.82350  0.15010  Biso   1.000  H
  C204     1.0000 0.14264  0.76158  0.24860  Biso   1.000  C
  C205     1.0000 0.21192  0.77598  0.62700  Biso   1.000  C
  C206     1.0000 0.16266  0.75509  0.68710  Biso   1.000  C
  N37      1.0000 0.11240  0.73423  0.74220  Biso   1.000  N
  C207     1.0000 0.21294  0.77810  0.38000  Biso   1.000  C
  C208     1.0000 0.16536  0.74891  0.30720  Biso   1.000  C
  N38      1.0000 0.11951  0.71694  0.24660  Biso   1.000  N
  O53      1.0000 0.22871  0.82045  0.60438  Biso   1.000  O
  O54      1.0000 0.21337  0.71980  0.59745  Biso   1.000  O
  H101     1.0000 0.16160  0.71990  0.64700  Biso   1.000  H
  N39      1.0000 0.09311  0.73690  0.81130  Biso   1.000  N
  C209     1.0000 0.10289  0.69805  0.67040  Biso   1.000  C
  O55      1.0000 0.22839  0.82391  0.40694  Biso   1.000  O
  O56      1.0000 0.21538  0.72064  0.40447  Biso   1.000  O
  H102     1.0000 0.16570  0.71200  0.34380  Biso   1.000  H
  C210     1.0000 0.10232  0.70063  0.17290  Biso   1.000  C
  N40      1.0000 0.11492  0.67610  0.31950  Biso   1.000  N
  Cu7      1.0000 0.25846  0.81054  0.50343  Biso   1.000  Cu
  N41      1.0000 0.07085  0.70221  0.78570  Biso   1.000  N
  H103     1.0000 0.11250  0.68840  0.61420  Biso   1.000  H
  C211     1.0000 0.07597  0.67840  0.69780  Biso   1.000  C
  H104     1.0000 0.10180  0.71960  0.11330  Biso   1.000  H
  C212     1.0000 0.08568  0.64986  0.20460  Biso   1.000  C
  N42      1.0000 0.09383  0.63765  0.29600  Biso   1.000  N
  C213     1.0000 0.05614  0.63405  0.64910  Biso   1.000  C
  C214     1.0000 0.06297  0.61351  0.15470  Biso   1.000  C
  C215     1.0000 0.03003  0.61311  0.69105  Biso   1.000  C
  C216     1.0000 0.06190  0.61460  0.55900  Biso   1.000  C
  C217     1.0000 0.05343  0.63213  0.06800  Biso   1.000  C
  C218     1.0000 0.05266  0.55681  0.19220  Biso   1.000  C
  H105     1.0000 0.02460  0.62870  0.75020  Biso   1.000  H
  C219     1.0000 0.01250  0.56977  0.64520  Biso   1.000  C
  C220     1.0000 0.04429  0.57071  0.51170  Biso   1.000  C
  H106     1.0000 0.07810  0.63110  0.52790  Biso   1.000  H
  H107     1.0000 0.06080  0.66920  0.04080  Biso   1.000  H
  C221     1.0000 0.03278  0.59644  0.01910  Biso   1.000  C
  H108     1.0000 0.05970  0.54220  0.25000  Biso   1.000  H
  C222     1.0000 0.03222  0.52221  0.14489  Biso   1.000  C
  H109     1.0000 0.99550  0.55620  0.67480  Biso   1.000  H
  C223     1.0000 0.01919  0.54591  0.55731  Biso   1.000  C
  H110     1.0000 0.04900  0.55770  0.45050  Biso   1.000  H
  H111     1.0000 0.02680  0.60950  0.95910  Biso   1.000  H
  C224     1.0000 0.02096  0.54171  0.05874  Biso   1.000  C
  H112     1.0000 0.02560  0.48420  0.17140  Biso   1.000  H
  O57      1.0000 0.69061  0.43297  0.90363  Biso   1.000  O
  O58      1.0000 0.69034  0.43439  0.10114  Biso   1.000  O
  O59      1.0000 0.64191  0.43704  0.90018  Biso   1.000  O
  O60      1.0000 0.64211  0.43025  0.09233  Biso   1.000  O
  C225     1.0000 0.66677  0.41399  0.87640  Biso   1.000  C
  C226     1.0000 0.66570  0.41264  0.12330  Biso   1.000  C
  C227     1.0000 0.66555  0.35979  0.80820  Biso   1.000  C
  C228     1.0000 0.66574  0.35582  0.18910  Biso   1.000  C
  C229     1.0000 0.68851  0.34505  0.75200  Biso   1.000  C
  C230     1.0000 0.63964  0.32405  0.80280  Biso   1.000  C
  C231     1.0000 0.68909  0.34453  0.25260  Biso   1.000  C
  C232     1.0000 0.64249  0.31545  0.18920  Biso   1.000  C
  C233     1.0000 0.68740  0.29102  0.69110  Biso   1.000  C
  H113     1.0000 0.70510  0.37050  0.75330  Biso   1.000  H
  C234     1.0000 0.63884  0.27168  0.74410  Biso   1.000  C
  H114     1.0000 0.62340  0.33570  0.83820  Biso   1.000  H
  H115     1.0000 0.70480  0.37240  0.25400  Biso   1.000  H
  C235     1.0000 0.68860  0.29335  0.31120  Biso   1.000  C
  H116     1.0000 0.62660  0.32350  0.15010  Biso   1.000  H
  C236     1.0000 0.64264  0.26158  0.24860  Biso   1.000  C
  C237     1.0000 0.71192  0.27598  0.62700  Biso   1.000  C
  C238     1.0000 0.66266  0.25509  0.68710  Biso   1.000  C
  N43      1.0000 0.61240  0.23423  0.74220  Biso   1.000  N
  C239     1.0000 0.71294  0.27810  0.38000  Biso   1.000  C
  C240     1.0000 0.66536  0.24891  0.30720  Biso   1.000  C
  N44      1.0000 0.61951  0.21694  0.24660  Biso   1.000  N
  O61      1.0000 0.72871  0.32045  0.60438  Biso   1.000  O
  O62      1.0000 0.71337  0.21980  0.59745  Biso   1.000  O
  H117     1.0000 0.66160  0.21990  0.64700  Biso   1.000  H
  N45      1.0000 0.59311  0.23690  0.81130  Biso   1.000  N
  C241     1.0000 0.60289  0.19805  0.67040  Biso   1.000  C
  O63      1.0000 0.72839  0.32391  0.40694  Biso   1.000  O
  O64      1.0000 0.71538  0.22064  0.40447  Biso   1.000  O
  H118     1.0000 0.66570  0.21200  0.34380  Biso   1.000  H
  C242     1.0000 0.60232  0.20063  0.17290  Biso   1.000  C
  N46      1.0000 0.61492  0.17610  0.31950  Biso   1.000  N
  Cu8      1.0000 0.75846  0.31054  0.50343  Biso   1.000  Cu
  N47      1.0000 0.57085  0.20221  0.78570  Biso   1.000  N
  H119     1.0000 0.61250  0.18840  0.61420  Biso   1.000  H
  C243     1.0000 0.57597  0.17840  0.69780  Biso   1.000  C
  H120     1.0000 0.60180  0.21960  0.11330  Biso   1.000  H
  C244     1.0000 0.58568  0.14986  0.20460  Biso   1.000  C
  N48      1.0000 0.59383  0.13765  0.29600  Biso   1.000  N
  C245     1.0000 0.55614  0.13405  0.64910  Biso   1.000  C
  C246     1.0000 0.56297  0.11351  0.15470  Biso   1.000  C
  C247     1.0000 0.53003  0.11311  0.69105  Biso   1.000  C
  C248     1.0000 0.56190  0.11460  0.55900  Biso   1.000  C
  C249     1.0000 0.55343  0.13213  0.06800  Biso   1.000  C
  C250     1.0000 0.55266  0.05681  0.19220  Biso   1.000  C
  H121     1.0000 0.52460  0.12870  0.75020  Biso   1.000  H
  C251     1.0000 0.51250  0.06977  0.64520  Biso   1.000  C
  C252     1.0000 0.54429  0.07071  0.51170  Biso   1.000  C
  H122     1.0000 0.57810  0.13110  0.52790  Biso   1.000  H
  H123     1.0000 0.56080  0.16920  0.04080  Biso   1.000  H
  C253     1.0000 0.53278  0.09644  0.01910  Biso   1.000  C
  H124     1.0000 0.55970  0.04220  0.25000  Biso   1.000  H
  C254     1.0000 0.53222  0.02221  0.14489  Biso   1.000  C
  H125     1.0000 0.49550  0.05620  0.67480  Biso   1.000  H
  C255     1.0000 0.51919  0.04591  0.55731  Biso   1.000  C
  H126     1.0000 0.54900  0.05770  0.45050  Biso   1.000  H
  H127     1.0000 0.52680  0.10950  0.95910  Biso   1.000  H
  C256     1.0000 0.52096  0.04171  0.05874  Biso   1.000  C
  H128     1.0000 0.52560  0.98420  0.17140  Biso   1.000  H
  Cu9      1.0000 0.19512  0.00000  0.00000  Biso   1.000  Cu
  Cu10     1.0000 0.13755  0.00000  0.00000  Biso   1.000  Cu
  Cu11     1.0000 0.69512  0.50000  0.00000  Biso   1.000  Cu
  Cu12     1.0000 0.63755  0.50000  0.00000  Biso   1.000  Cu
  Cu13     1.0000 0.80488  0.00000  0.00000  Biso   1.000  Cu
  Cu14     1.0000 0.86245  0.00000  0.00000  Biso   1.000  Cu
  Cu15     1.0000 0.30488  0.50000  0.00000  Biso   1.000  Cu
  Cu16     1.0000 0.36245  0.50000  0.00000  Biso   1.000  Cu
  C257     1.0000 0.00000  0.50000  0.50000  Biso   1.000  C
  C258     1.0000 0.50000  0.00000  0.50000  Biso   1.000  C
  C259     1.0000 0.00000  0.50000  0.00000  Biso   1.000  C
  C260     1.0000 0.50000  0.00000  0.00000  Biso   1.000  C
