data_QAHMUJ_clean
_audit_creation_date              2014-07-02
_audit_creation_method            'Materials Studio'
_symmetry_space_group_name_H-M    'P1'
_symmetry_Int_Tables_number       1
_symmetry_cell_setting            triclinic
loop_
_symmetry_equiv_pos_as_xyz
  x,y,z
_cell_length_a                    6.9224
_cell_length_b                    18.8090
_cell_length_c                    9.6849
_cell_angle_alpha                 90.0000
_cell_angle_beta                  90.0000
_cell_angle_gamma                 90.0000
loop_
_atom_site_label
_atom_site_type_symbol
_atom_site_fract_x
_atom_site_fract_y
_atom_site_fract_z
_atom_site_U_iso_or_equiv
_atom_site_adp_type
_atom_site_occupancy
Ba1    Ba    0.75000   0.75000   0.49331   0.01267  Uiso   1.00
Ba2    Ba    0.25000   0.25000   0.00669   0.01267  Uiso   1.00
Ba3    Ba    0.25000   0.25000   0.50669   0.01267  Uiso   1.00
Ba4    Ba    0.75000   0.75000   0.99331   0.01267  Uiso   1.00
Cd1    Cd    0.00000   0.50000   0.00000   0.01267  Uiso   1.00
Cd2    Cd    0.50000   0.00000   0.00000   0.01267  Uiso   1.00
Cd3    Cd    0.50000   0.50000   0.50000   0.01267  Uiso   1.00
Cd4    Cd    0.00000   0.00000   0.50000   0.01267  Uiso   1.00
H1     H     0.42860   0.56930   0.83140   0.01267  Uiso   1.00
H2     H     0.62370   0.58220   0.90760   0.01267  Uiso   1.00
H3     H     0.07140   0.93070   0.83140   0.01267  Uiso   1.00
H4     H     0.87630   0.91780   0.90760   0.01267  Uiso   1.00
H5     H     0.92860   0.43070   0.66860   0.01267  Uiso   1.00
H6     H     0.12370   0.41780   0.59240   0.01267  Uiso   1.00
H7     H     0.57140   0.06930   0.66860   0.01267  Uiso   1.00
H8     H     0.37630   0.08220   0.59240   0.01267  Uiso   1.00
H9     H     0.57140   0.43070   0.16860   0.01267  Uiso   1.00
H10    H     0.37630   0.41780   0.09240   0.01267  Uiso   1.00
H11    H     0.92860   0.06930   0.16860   0.01267  Uiso   1.00
H12    H     0.12370   0.08220   0.09240   0.01267  Uiso   1.00
H13    H     0.07140   0.56930   0.33140   0.01267  Uiso   1.00
H14    H     0.87630   0.58220   0.40760   0.01267  Uiso   1.00
H15    H     0.42860   0.93070   0.33140   0.01267  Uiso   1.00
H16    H     0.62370   0.91780   0.40760   0.01267  Uiso   1.00
C1     C     0.61650   0.48650   0.80840   0.01267  Uiso   1.00
C2     C     0.56770   0.56560   0.82160   0.01267  Uiso   1.00
C3     C     0.62800   0.61750   0.70950   0.01267  Uiso   1.00
C4     C     0.88350   0.01350   0.80840   0.01267  Uiso   1.00
C5     C     0.93230   0.93440   0.82160   0.01267  Uiso   1.00
C6     C     0.87200   0.88250   0.70950   0.01267  Uiso   1.00
C7     C     0.11650   0.51350   0.69160   0.01267  Uiso   1.00
C8     C     0.06770   0.43440   0.67840   0.01267  Uiso   1.00
C9     C     0.12800   0.38250   0.79050   0.01267  Uiso   1.00
C10    C     0.38350   0.98650   0.69160   0.01267  Uiso   1.00
C11    C     0.43230   0.06560   0.67840   0.01267  Uiso   1.00
C12    C     0.37200   0.11750   0.79050   0.01267  Uiso   1.00
C13    C     0.38350   0.51350   0.19160   0.01267  Uiso   1.00
C14    C     0.43230   0.43440   0.17840   0.01267  Uiso   1.00
C15    C     0.37200   0.38250   0.29050   0.01267  Uiso   1.00
C16    C     0.11650   0.98650   0.19160   0.01267  Uiso   1.00
C17    C     0.06770   0.06560   0.17840   0.01267  Uiso   1.00
C18    C     0.12800   0.11750   0.29050   0.01267  Uiso   1.00
C19    C     0.88350   0.48650   0.30840   0.01267  Uiso   1.00
C20    C     0.93230   0.56560   0.32160   0.01267  Uiso   1.00
C21    C     0.87200   0.61750   0.20950   0.01267  Uiso   1.00
C22    C     0.61650   0.01350   0.30840   0.01267  Uiso   1.00
C23    C     0.56770   0.93440   0.32160   0.01267  Uiso   1.00
C24    C     0.62800   0.88250   0.20950   0.01267  Uiso   1.00
O1     O     0.70600   0.45810   0.90610   0.01267  Uiso   1.00
O2     O     0.56060   0.45250   0.70610   0.01267  Uiso   1.00
O3     O     0.63430   0.59860   0.58380   0.01267  Uiso   1.00
O4     O     0.65900   0.68040   0.74700   0.01267  Uiso   1.00
O5     O     0.79400   0.04190   0.90610   0.01267  Uiso   1.00
O6     O     0.93940   0.04750   0.70610   0.01267  Uiso   1.00
O7     O     0.86570   0.90140   0.58380   0.01267  Uiso   1.00
O8     O     0.84100   0.81960   0.74700   0.01267  Uiso   1.00
O9     O     0.20600   0.54190   0.59390   0.01267  Uiso   1.00
O10    O     0.06060   0.54750   0.79390   0.01267  Uiso   1.00
O11    O     0.13430   0.40140   0.91620   0.01267  Uiso   1.00
O12    O     0.15900   0.31960   0.75300   0.01267  Uiso   1.00
O13    O     0.29400   0.95810   0.59390   0.01267  Uiso   1.00
O14    O     0.43940   0.95250   0.79390   0.01267  Uiso   1.00
O15    O     0.36570   0.09860   0.91620   0.01267  Uiso   1.00
O16    O     0.34100   0.18040   0.75300   0.01267  Uiso   1.00
O17    O     0.29400   0.54190   0.09390   0.01267  Uiso   1.00
O18    O     0.43940   0.54750   0.29390   0.01267  Uiso   1.00
O19    O     0.36570   0.40140   0.41620   0.01267  Uiso   1.00
O20    O     0.34100   0.31960   0.25300   0.01267  Uiso   1.00
O21    O     0.20600   0.95810   0.09390   0.01267  Uiso   1.00
O22    O     0.06060   0.95250   0.29390   0.01267  Uiso   1.00
O23    O     0.13430   0.09860   0.41620   0.01267  Uiso   1.00
O24    O     0.15900   0.18040   0.25300   0.01267  Uiso   1.00
O25    O     0.79400   0.45810   0.40610   0.01267  Uiso   1.00
O26    O     0.93940   0.45250   0.20610   0.01267  Uiso   1.00
O27    O     0.86570   0.59860   0.08380   0.01267  Uiso   1.00
O28    O     0.84100   0.68040   0.24700   0.01267  Uiso   1.00
O29    O     0.70600   0.04190   0.40610   0.01267  Uiso   1.00
O30    O     0.56060   0.04750   0.20610   0.01267  Uiso   1.00
O31    O     0.63430   0.90140   0.08380   0.01267  Uiso   1.00
O32    O     0.65900   0.81960   0.24700   0.01267  Uiso   1.00
