data_image0
_cell_length_a       10.525
_cell_length_b       11.034
_cell_length_c       12.855
_cell_angle_alpha    99.359
_cell_angle_beta     111.301
_cell_angle_gamma    101.265

_symmetry_space_group_name_H-M    "P 1"
_symmetry_int_tables_number       1

loop_
  _symmetry_equiv_pos_as_xyz
  'x, y, z'

loop_
  _atom_site_label
  _atom_site_occupancy
  _atom_site_fract_x
  _atom_site_fract_y
  _atom_site_fract_z
  _atom_site_thermal_displace_type
  _atom_site_B_iso_or_equiv
  _atom_site_type_symbol
  Y1       1.0000 0.60986  0.54621  0.67714  Biso   1.000  Y
  O1       1.0000 0.50030  0.33030  0.59520  Biso   1.000  O
  O2       1.0000 0.66640  0.50860  0.52420  Biso   1.000  O
  O3       1.0000 0.83600  0.70700  0.76430  Biso   1.000  O
  O4       1.0000 0.42890  0.28300  0.40260  Biso   1.000  O
  O5       1.0000 0.68070  0.72970  0.83650  Biso   1.000  O
  O6       1.0000 0.61680  0.44920  0.33770  Biso   1.000  O
  C1       1.0000 0.46910  0.25630  0.49770  Biso   1.000  C
  C2       1.0000 0.48250  0.12120  0.49740  Biso   1.000  C
  C3       1.0000 0.49770  0.07690  0.59400  Biso   1.000  C
  H1       1.0000 0.49580  0.12980  0.65930  Biso   1.000  H
  C4       1.0000 0.48450  0.04310  0.40210  Biso   1.000  C
  C5       1.0000 0.80160  0.76880  0.83530  Biso   1.000  C
  C6       1.0000 0.90070  0.88870  0.91750  Biso   1.000  C
  C7       1.0000 0.04070  0.92390  0.92870  Biso   1.000  C
  C8       1.0000 0.86200  0.96310  0.98970  Biso   1.000  C
  C9       1.0000 0.70400  0.48130  0.44100  Biso   1.000  C
  C10      1.0000 0.85640  0.49030  0.47060  Biso   1.000  C
  C11      1.0000 0.95650  0.54200  0.58370  Biso   1.000  C
  H2       1.0000 0.92670  0.57070  0.64240  Biso   1.000  H
  C12      1.0000 0.90360  0.44780  0.38830  Biso   1.000  C
  N1       1.0000 0.71830  0.95900  0.97200  Biso   1.000  N
  H3       1.0000 0.64740  0.90490  0.91130  Biso   1.000  H
  H4       1.0000 0.70110  0.00970  0.02270  Biso   1.000  H
  N2       1.0000 0.81140  0.38770  0.27190  Biso   1.000  N
  H5       1.0000 0.84560  0.35960  0.22260  Biso   1.000  H
  H6       1.0000 0.71960  0.37830  0.24870  Biso   1.000  H
  H7       1.0000 0.52640  0.92780  0.66540  Biso   1.000  H
  H8       1.0000 0.07080  0.87160  0.88120  Biso   1.000  H
  H9       1.0000 0.76800  0.93860  0.98510  Biso   1.000  H
  H10      1.0000 0.83720  0.41070  0.31060  Biso   1.000  H
  N3       1.0000 0.10100  0.85700  0.86200  Biso   1.000  N
  H11      1.0000 0.04850  0.78650  0.80760  Biso   1.000  H
  H12      1.0000 0.19120  0.88670  0.87520  Biso   1.000  H
  N4       1.0000 0.52050  0.91800  0.70090  Biso   1.000  N
  H13      1.0000 0.51240  0.96990  0.75630  Biso   1.000  H
  H14      1.0000 0.53170  0.84240  0.70820  Biso   1.000  H
  N5       1.0000 0.49900  0.85700  0.29900  Biso   1.000  N
  H15      1.0000 0.50780  0.77840  0.29050  Biso   1.000  H
  H16      1.0000 0.48900  0.89450  0.24260  Biso   1.000  H
  Y2       1.0000 0.39014  0.45379  0.32286  Biso   1.000  Y
  O7       1.0000 0.49970  0.66970  0.40480  Biso   1.000  O
  O8       1.0000 0.33360  0.49140  0.47580  Biso   1.000  O
  O9       1.0000 0.16400  0.29300  0.23570  Biso   1.000  O
  O10      1.0000 0.57110  0.71700  0.59740  Biso   1.000  O
  O11      1.0000 0.31930  0.27030  0.16350  Biso   1.000  O
  O12      1.0000 0.38320  0.55080  0.66230  Biso   1.000  O
  C13      1.0000 0.53090  0.74370  0.50230  Biso   1.000  C
  C14      1.0000 0.51750  0.87880  0.50260  Biso   1.000  C
  C15      1.0000 0.50230  0.92310  0.40600  Biso   1.000  C
  H17      1.0000 0.50420  0.87020  0.34070  Biso   1.000  H
  C16      1.0000 0.51550  0.95690  0.59790  Biso   1.000  C
  C17      1.0000 0.19840  0.23120  0.16470  Biso   1.000  C
  C18      1.0000 0.09930  0.11130  0.08250  Biso   1.000  C
  C19      1.0000 0.95930  0.07610  0.07130  Biso   1.000  C
  C20      1.0000 0.13800  0.03690  0.01030  Biso   1.000  C
  C21      1.0000 0.29600  0.51870  0.55900  Biso   1.000  C
  C22      1.0000 0.14360  0.50970  0.52940  Biso   1.000  C
  C23      1.0000 0.04350  0.45800  0.41630  Biso   1.000  C
  H18      1.0000 0.07330  0.42930  0.35760  Biso   1.000  H
  C24      1.0000 0.09640  0.55220  0.61170  Biso   1.000  C
  N6       1.0000 0.28170  0.04100  0.02800  Biso   1.000  N
  H19      1.0000 0.35260  0.09510  0.08870  Biso   1.000  H
  H20      1.0000 0.29890  0.99030  0.97730  Biso   1.000  H
  N7       1.0000 0.18860  0.61230  0.72810  Biso   1.000  N
  H21      1.0000 0.15440  0.64040  0.77740  Biso   1.000  H
  H22      1.0000 0.28040  0.62170  0.75130  Biso   1.000  H
  H23      1.0000 0.47360  0.07220  0.33460  Biso   1.000  H
  H24      1.0000 0.92920  0.12840  0.11880  Biso   1.000  H
  H25      1.0000 0.23200  0.06140  0.01490  Biso   1.000  H
  H26      1.0000 0.16280  0.58930  0.68940  Biso   1.000  H
  N8       1.0000 0.89900  0.14300  0.13800  Biso   1.000  N
  H27      1.0000 0.95150  0.21350  0.19240  Biso   1.000  H
  H28      1.0000 0.80880  0.11330  0.12480  Biso   1.000  H
  N9       1.0000 0.47950  0.08200  0.29910  Biso   1.000  N
  H29      1.0000 0.48760  0.03010  0.24370  Biso   1.000  H
  H30      1.0000 0.46830  0.15760  0.29180  Biso   1.000  H
  N10      1.0000 0.50100  0.14300  0.70100  Biso   1.000  N
  H31      1.0000 0.49220  0.22160  0.70950  Biso   1.000  H
  H32      1.0000 0.51100  0.10550  0.75740  Biso   1.000  H
