data_image0
_cell_length_a       10.28
_cell_length_b       12.7
_cell_length_c       17.86
_cell_angle_alpha    90
_cell_angle_beta     102.47
_cell_angle_gamma    90

_symmetry_space_group_name_H-M    "P 1"
_symmetry_int_tables_number       1

loop_
  _symmetry_equiv_pos_as_xyz
  'x, y, z'

loop_
  _atom_site_label
  _atom_site_occupancy
  _atom_site_fract_x
  _atom_site_fract_y
  _atom_site_fract_z
  _atom_site_thermal_displace_type
  _atom_site_B_iso_or_equiv
  _atom_site_type_symbol
  In1      1.0000 0.94305  0.97821  0.12591  Biso   1.000  In
  In2      1.0000 0.74572  0.92740  0.27769  Biso   1.000  In
  In3      1.0000 0.46876  0.11624  0.20822  Biso   1.000  In
  In4      1.0000 0.36705  0.85219  0.42227  Biso   1.000  In
  P1       1.0000 0.20258  0.08959  0.05842  Biso   1.000  P
  P2       1.0000 0.06511  0.88370  0.30750  Biso   1.000  P
  P3       1.0000 0.72068  0.65968  0.29941  Biso   1.000  P
  P4       1.0000 0.58086  0.04613  0.39248  Biso   1.000  P
  F1       1.0000 0.78760  0.90610  0.16800  Biso   1.000  F
  F2       1.0000 0.54840  0.96160  0.21810  Biso   1.000  F
  O1       1.0000 0.17480  0.02130  0.98670  Biso   1.000  O
  O2       1.0000 0.34940  0.07910  0.10030  Biso   1.000  O
  O3       1.0000 0.11430  0.05860  0.11340  Biso   1.000  O
  O4       1.0000 0.17500  0.20560  0.03420  Biso   1.000  O
  O5       1.0000 0.09280  0.77150  0.28080  Biso   1.000  O
  O6       1.0000 0.05830  0.95970  0.23970  Biso   1.000  O
  O7       1.0000 0.18160  0.91630  0.37280  Biso   1.000  O
  O8       1.0000 0.93770  0.88720  0.33840  Biso   1.000  O
  O9       1.0000 0.86790  0.65920  0.33880  Biso   1.000  O
  O10      1.0000 0.63630  0.62880  0.35760  Biso   1.000  O
  O11      1.0000 0.67410  0.77100  0.27010  Biso   1.000  O
  O12      1.0000 0.69100  0.58400  0.23120  Biso   1.000  O
  O13      1.0000 0.56120  0.12780  0.32830  Biso   1.000  O
  O14      1.0000 0.67930  0.95770  0.37960  Biso   1.000  O
  O15      1.0000 0.44550  0.99540  0.39320  Biso   1.000  O
  O16      1.0000 0.63960  0.09880  0.46830  Biso   1.000  O
  In5      1.0000 0.55695  0.47821  0.37409  Biso   1.000  In
  In6      1.0000 0.75428  0.42740  0.22231  Biso   1.000  In
  In7      1.0000 0.03124  0.61624  0.29178  Biso   1.000  In
  In8      1.0000 0.13295  0.35219  0.07773  Biso   1.000  In
  P5       1.0000 0.29742  0.58959  0.44158  Biso   1.000  P
  P6       1.0000 0.43489  0.38370  0.19250  Biso   1.000  P
  P7       1.0000 0.77932  0.15968  0.20059  Biso   1.000  P
  P8       1.0000 0.91914  0.54613  0.10752  Biso   1.000  P
  F3       1.0000 0.71240  0.40610  0.33200  Biso   1.000  F
  F4       1.0000 0.95160  0.46160  0.28190  Biso   1.000  F
  O17      1.0000 0.32520  0.52130  0.51330  Biso   1.000  O
  O18      1.0000 0.15060  0.57910  0.39970  Biso   1.000  O
  O19      1.0000 0.38570  0.55860  0.38660  Biso   1.000  O
  O20      1.0000 0.32500  0.70560  0.46580  Biso   1.000  O
  O21      1.0000 0.40720  0.27150  0.21920  Biso   1.000  O
  O22      1.0000 0.44170  0.45970  0.26030  Biso   1.000  O
  O23      1.0000 0.31840  0.41630  0.12720  Biso   1.000  O
  O24      1.0000 0.56230  0.38720  0.16160  Biso   1.000  O
  O25      1.0000 0.63210  0.15920  0.16120  Biso   1.000  O
  O26      1.0000 0.86370  0.12880  0.14240  Biso   1.000  O
  O27      1.0000 0.82590  0.27100  0.22990  Biso   1.000  O
  O28      1.0000 0.80900  0.08400  0.26880  Biso   1.000  O
  O29      1.0000 0.93880  0.62780  0.17170  Biso   1.000  O
  O30      1.0000 0.82070  0.45770  0.12040  Biso   1.000  O
  O31      1.0000 0.05450  0.49540  0.10680  Biso   1.000  O
  O32      1.0000 0.86040  0.59880  0.03170  Biso   1.000  O
  In9      1.0000 0.05695  0.02179  0.87409  Biso   1.000  In
  In10     1.0000 0.25428  0.07260  0.72231  Biso   1.000  In
  In11     1.0000 0.53124  0.88376  0.79178  Biso   1.000  In
  In12     1.0000 0.63295  0.14781  0.57773  Biso   1.000  In
  P9       1.0000 0.79742  0.91041  0.94158  Biso   1.000  P
  P10      1.0000 0.93489  0.11630  0.69250  Biso   1.000  P
  P11      1.0000 0.27932  0.34032  0.70059  Biso   1.000  P
  P12      1.0000 0.41914  0.95387  0.60752  Biso   1.000  P
  F5       1.0000 0.21240  0.09390  0.83200  Biso   1.000  F
  F6       1.0000 0.45160  0.03840  0.78190  Biso   1.000  F
  O33      1.0000 0.82520  0.97870  0.01330  Biso   1.000  O
  O34      1.0000 0.65060  0.92090  0.89970  Biso   1.000  O
  O35      1.0000 0.88570  0.94140  0.88660  Biso   1.000  O
  O36      1.0000 0.82500  0.79440  0.96580  Biso   1.000  O
  O37      1.0000 0.90720  0.22850  0.71920  Biso   1.000  O
  O38      1.0000 0.94170  0.04030  0.76030  Biso   1.000  O
  O39      1.0000 0.81840  0.08370  0.62720  Biso   1.000  O
  O40      1.0000 0.06230  0.11280  0.66160  Biso   1.000  O
  O41      1.0000 0.13210  0.34080  0.66120  Biso   1.000  O
  O42      1.0000 0.36370  0.37120  0.64240  Biso   1.000  O
  O43      1.0000 0.32590  0.22900  0.72990  Biso   1.000  O
  O44      1.0000 0.30900  0.41600  0.76880  Biso   1.000  O
  O45      1.0000 0.43880  0.87220  0.67170  Biso   1.000  O
  O46      1.0000 0.32070  0.04230  0.62040  Biso   1.000  O
  O47      1.0000 0.55450  0.00460  0.60680  Biso   1.000  O
  O48      1.0000 0.36040  0.90120  0.53170  Biso   1.000  O
  In13     1.0000 0.44305  0.52179  0.62591  Biso   1.000  In
  In14     1.0000 0.24572  0.57260  0.77769  Biso   1.000  In
  In15     1.0000 0.96876  0.38376  0.70822  Biso   1.000  In
  In16     1.0000 0.86705  0.64781  0.92227  Biso   1.000  In
  P13      1.0000 0.70258  0.41041  0.55842  Biso   1.000  P
  P14      1.0000 0.56511  0.61630  0.80750  Biso   1.000  P
  P15      1.0000 0.22068  0.84032  0.79941  Biso   1.000  P
  P16      1.0000 0.08086  0.45387  0.89248  Biso   1.000  P
  F7       1.0000 0.28760  0.59390  0.66800  Biso   1.000  F
  F8       1.0000 0.04840  0.53840  0.71810  Biso   1.000  F
  O49      1.0000 0.67480  0.47870  0.48670  Biso   1.000  O
  O50      1.0000 0.84940  0.42090  0.60030  Biso   1.000  O
  O51      1.0000 0.61430  0.44140  0.61340  Biso   1.000  O
  O52      1.0000 0.67500  0.29440  0.53420  Biso   1.000  O
  O53      1.0000 0.59280  0.72850  0.78080  Biso   1.000  O
  O54      1.0000 0.55830  0.54030  0.73970  Biso   1.000  O
  O55      1.0000 0.68160  0.58370  0.87280  Biso   1.000  O
  O56      1.0000 0.43770  0.61280  0.83840  Biso   1.000  O
  O57      1.0000 0.36790  0.84080  0.83880  Biso   1.000  O
  O58      1.0000 0.13630  0.87120  0.85760  Biso   1.000  O
  O59      1.0000 0.17410  0.72900  0.77010  Biso   1.000  O
  O60      1.0000 0.19100  0.91600  0.73120  Biso   1.000  O
  O61      1.0000 0.06120  0.37220  0.82830  Biso   1.000  O
  O62      1.0000 0.17930  0.54230  0.87960  Biso   1.000  O
  O63      1.0000 0.94550  0.50460  0.89320  Biso   1.000  O
  O64      1.0000 0.13960  0.40120  0.96830  Biso   1.000  O
