data_image0
_cell_length_a       10.3161
_cell_length_b       12.749
_cell_length_c       17.9127
_cell_angle_alpha    90
_cell_angle_beta     102.476
_cell_angle_gamma    90

_symmetry_space_group_name_H-M    "P 1"
_symmetry_int_tables_number       1

loop_
  _symmetry_equiv_pos_as_xyz
  'x, y, z'

loop_
  _atom_site_label
  _atom_site_occupancy
  _atom_site_fract_x
  _atom_site_fract_y
  _atom_site_fract_z
  _atom_site_thermal_displace_type
  _atom_site_B_iso_or_equiv
  _atom_site_type_symbol
  In1      1.0000 0.75400  0.57256  0.22234  Biso   1.000  In
  In2      1.0000 0.03099  0.38353  0.29213  Biso   1.000  In
  In3      1.0000 0.55673  0.52146  0.37411  Biso   1.000  In
  In4      1.0000 0.13290  0.64767  0.07780  Biso   1.000  In
  P1       1.0000 0.43480  0.61622  0.19238  Biso   1.000  P
  P2       1.0000 0.77958  0.84016  0.20084  Biso   1.000  P
  P3       1.0000 0.29745  0.41037  0.44159  Biso   1.000  P
  P4       1.0000 0.91912  0.45375  0.10785  Biso   1.000  P
  F1       1.0000 0.71270  0.59390  0.33215  Biso   1.000  F
  F2       1.0000 0.95180  0.53770  0.28222  Biso   1.000  F
  O1       1.0000 0.32630  0.29500  0.46680  Biso   1.000  O
  O2       1.0000 0.31910  0.58320  0.12710  Biso   1.000  O
  O3       1.0000 0.44220  0.54040  0.26000  Biso   1.000  O
  O4       1.0000 0.38640  0.44170  0.38650  Biso   1.000  O
  O5       1.0000 0.82100  0.54200  0.12060  Biso   1.000  O
  O6       1.0000 0.15080  0.42080  0.40050  Biso   1.000  O
  O7       1.0000 0.56240  0.61220  0.16160  Biso   1.000  O
  O8       1.0000 0.63240  0.84070  0.16070  Biso   1.000  O
  O9       1.0000 0.86110  0.40160  0.03190  Biso   1.000  O
  O10      1.0000 0.82540  0.72900  0.23010  Biso   1.000  O
  O11      1.0000 0.86450  0.87110  0.14250  Biso   1.000  O
  O12      1.0000 0.93920  0.37170  0.17230  Biso   1.000  O
  O13      1.0000 0.32600  0.47970  0.51320  Biso   1.000  O
  O14      1.0000 0.80760  0.91580  0.26870  Biso   1.000  O
  O15      1.0000 0.40770  0.72770  0.21860  Biso   1.000  O
  O16      1.0000 0.05490  0.50370  0.10770  Biso   1.000  O
  In5      1.0000 0.74600  0.07256  0.27766  Biso   1.000  In
  In6      1.0000 0.46901  0.88353  0.20787  Biso   1.000  In
  In7      1.0000 0.94327  0.02146  0.12589  Biso   1.000  In
  In8      1.0000 0.36710  0.14767  0.42220  Biso   1.000  In
  P5       1.0000 0.06520  0.11622  0.30762  Biso   1.000  P
  P6       1.0000 0.72042  0.34016  0.29916  Biso   1.000  P
  P7       1.0000 0.20255  0.91037  0.05841  Biso   1.000  P
  P8       1.0000 0.58088  0.95375  0.39215  Biso   1.000  P
  F3       1.0000 0.78730  0.09390  0.16785  Biso   1.000  F
  F4       1.0000 0.54820  0.03770  0.21778  Biso   1.000  F
  O17      1.0000 0.17370  0.79500  0.03320  Biso   1.000  O
  O18      1.0000 0.18090  0.08320  0.37290  Biso   1.000  O
  O19      1.0000 0.05780  0.04040  0.24000  Biso   1.000  O
  O20      1.0000 0.11360  0.94170  0.11350  Biso   1.000  O
  O21      1.0000 0.67900  0.04200  0.37940  Biso   1.000  O
  O22      1.0000 0.34920  0.92080  0.09950  Biso   1.000  O
  O23      1.0000 0.93760  0.11220  0.33840  Biso   1.000  O
  O24      1.0000 0.86760  0.34070  0.33930  Biso   1.000  O
  O25      1.0000 0.63890  0.90160  0.46810  Biso   1.000  O
  O26      1.0000 0.67460  0.22900  0.26990  Biso   1.000  O
  O27      1.0000 0.63550  0.37110  0.35750  Biso   1.000  O
  O28      1.0000 0.56080  0.87170  0.32770  Biso   1.000  O
  O29      1.0000 0.17400  0.97970  0.98680  Biso   1.000  O
  O30      1.0000 0.69240  0.41580  0.23130  Biso   1.000  O
  O31      1.0000 0.09230  0.22770  0.28140  Biso   1.000  O
  O32      1.0000 0.44510  0.00370  0.39230  Biso   1.000  O
  In9      1.0000 0.24600  0.42744  0.77766  Biso   1.000  In
  In10     1.0000 0.96901  0.61647  0.70787  Biso   1.000  In
  In11     1.0000 0.44327  0.47854  0.62589  Biso   1.000  In
  In12     1.0000 0.86710  0.35233  0.92220  Biso   1.000  In
  P9       1.0000 0.56520  0.38378  0.80762  Biso   1.000  P
  P10      1.0000 0.22042  0.15984  0.79916  Biso   1.000  P
  P11      1.0000 0.70255  0.58963  0.55841  Biso   1.000  P
  P12      1.0000 0.08088  0.54625  0.89215  Biso   1.000  P
  F5       1.0000 0.28730  0.40610  0.66785  Biso   1.000  F
  F6       1.0000 0.04820  0.46230  0.71778  Biso   1.000  F
  O33      1.0000 0.67370  0.70500  0.53320  Biso   1.000  O
  O34      1.0000 0.68090  0.41680  0.87290  Biso   1.000  O
  O35      1.0000 0.55780  0.45960  0.74000  Biso   1.000  O
  O36      1.0000 0.61360  0.55830  0.61350  Biso   1.000  O
  O37      1.0000 0.17900  0.45800  0.87940  Biso   1.000  O
  O38      1.0000 0.84920  0.57920  0.59950  Biso   1.000  O
  O39      1.0000 0.43760  0.38780  0.83840  Biso   1.000  O
  O40      1.0000 0.36760  0.15930  0.83930  Biso   1.000  O
  O41      1.0000 0.13890  0.59840  0.96810  Biso   1.000  O
  O42      1.0000 0.17460  0.27100  0.76990  Biso   1.000  O
  O43      1.0000 0.13550  0.12890  0.85750  Biso   1.000  O
  O44      1.0000 0.06080  0.62830  0.82770  Biso   1.000  O
  O45      1.0000 0.67400  0.52030  0.48680  Biso   1.000  O
  O46      1.0000 0.19240  0.08420  0.73130  Biso   1.000  O
  O47      1.0000 0.59230  0.27230  0.78140  Biso   1.000  O
  O48      1.0000 0.94510  0.49630  0.89230  Biso   1.000  O
  In13     1.0000 0.25400  0.92744  0.72234  Biso   1.000  In
  In14     1.0000 0.53099  0.11647  0.79213  Biso   1.000  In
  In15     1.0000 0.05673  0.97854  0.87411  Biso   1.000  In
  In16     1.0000 0.63290  0.85233  0.57780  Biso   1.000  In
  P13      1.0000 0.93480  0.88378  0.69238  Biso   1.000  P
  P14      1.0000 0.27958  0.65984  0.70084  Biso   1.000  P
  P15      1.0000 0.79745  0.08963  0.94159  Biso   1.000  P
  P16      1.0000 0.41912  0.04625  0.60785  Biso   1.000  P
  F7       1.0000 0.21270  0.90610  0.83215  Biso   1.000  F
  F8       1.0000 0.45180  0.96230  0.78222  Biso   1.000  F
  O49      1.0000 0.82630  0.20500  0.96680  Biso   1.000  O
  O50      1.0000 0.81910  0.91680  0.62710  Biso   1.000  O
  O51      1.0000 0.94220  0.95960  0.76000  Biso   1.000  O
  O52      1.0000 0.88640  0.05830  0.88650  Biso   1.000  O
  O53      1.0000 0.32100  0.95800  0.62060  Biso   1.000  O
  O54      1.0000 0.65080  0.07920  0.90050  Biso   1.000  O
  O55      1.0000 0.06240  0.88780  0.66160  Biso   1.000  O
  O56      1.0000 0.13240  0.65930  0.66070  Biso   1.000  O
  O57      1.0000 0.36110  0.09840  0.53190  Biso   1.000  O
  O58      1.0000 0.32540  0.77100  0.73010  Biso   1.000  O
  O59      1.0000 0.36450  0.62890  0.64250  Biso   1.000  O
  O60      1.0000 0.43920  0.12830  0.67230  Biso   1.000  O
  O61      1.0000 0.82600  0.02030  0.01320  Biso   1.000  O
  O62      1.0000 0.30760  0.58420  0.76870  Biso   1.000  O
  O63      1.0000 0.90770  0.77230  0.71860  Biso   1.000  O
  O64      1.0000 0.55490  0.99630  0.60770  Biso   1.000  O
