data_image0
_cell_length_a       18.4673
_cell_length_b       12.7117
_cell_length_c       20.4705
_cell_angle_alpha    90
_cell_angle_beta     108.566
_cell_angle_gamma    90

_symmetry_space_group_name_H-M    "P 1"
_symmetry_int_tables_number       1

loop_
  _symmetry_equiv_pos_as_xyz
  'x, y, z'

loop_
  _atom_site_label
  _atom_site_occupancy
  _atom_site_fract_x
  _atom_site_fract_y
  _atom_site_fract_z
  _atom_site_thermal_displace_type
  _atom_site_B_iso_or_equiv
  _atom_site_type_symbol
  In1      1.0000 0.26916  0.91849  0.01361  Biso   1.000  In
  In2      1.0000 0.12451  0.97908  0.83935  Biso   1.000  In
  In3      1.0000 0.28526  0.61234  0.87674  Biso   1.000  In
  In4      1.0000 0.21583  0.42041  0.98206  Biso   1.000  In
  In5      1.0000 0.37055  0.47616  0.15239  Biso   1.000  In
  In6      1.0000 0.20766  0.11310  0.11886  Biso   1.000  In
  In7      1.0000 0.42363  0.85061  0.27046  Biso   1.000  In
  In8      1.0000 0.57093  0.14684  0.22071  Biso   1.000  In
  P1       1.0000 0.30358  0.87940  0.86713  Biso   1.000  P
  P2       1.0000 0.19154  0.37737  0.13105  Biso   1.000  P
  P3       1.0000 0.05691  0.09066  0.67466  Biso   1.000  P
  P4       1.0000 0.93990  0.91287  0.81528  Biso   1.000  P
  P5       1.0000 0.38974  0.04068  0.14832  Biso   1.000  P
  P6       1.0000 0.19560  0.15496  0.95889  Biso   1.000  P
  P7       1.0000 0.28785  0.65584  0.03702  Biso   1.000  P
  P8       1.0000 0.10291  0.54275  0.84437  Biso   1.000  P
  F1       1.0000 0.16000  0.89980  0.93607  Biso   1.000  F
  F2       1.0000 0.32840  0.40220  0.05391  Biso   1.000  F
  F3       1.0000 0.27670  0.45740  0.91170  Biso   1.000  F
  F4       1.0000 0.20940  0.95600  0.08391  Biso   1.000  F
  O1       1.0000 0.32650  0.65810  0.98080  Biso   1.000  O
  O2       1.0000 0.25730  0.45520  0.15760  Biso   1.000  O
  O3       1.0000 0.10250  0.49410  0.77560  Biso   1.000  O
  O4       1.0000 0.11420  0.45400  0.89920  Biso   1.000  O
  O5       1.0000 0.12660  0.40910  0.15850  Biso   1.000  O
  O6       1.0000 0.88520  0.94570  0.74570  Biso   1.000  O
  O7       1.0000 0.37480  0.95180  0.09310  Biso   1.000  O
  O8       1.0000 0.46640  0.09260  0.15520  Biso   1.000  O
  O9       1.0000 0.27620  0.76840  0.83860  Biso   1.000  O
  O10      1.0000 0.03160  0.20680  0.67270  Biso   1.000  O
  O11      1.0000 0.02710  0.59790  0.83660  Biso   1.000  O
  O12      1.0000 0.22020  0.26620  0.15770  Biso   1.000  O
  O13      1.0000 0.34850  0.62740  0.10610  Biso   1.000  O
  O14      1.0000 0.15930  0.37850  0.05220  Biso   1.000  O
  O15      1.0000 0.10770  0.06270  0.74680  Biso   1.000  O
  O16      1.0000 0.32620  0.12370  0.12790  Biso   1.000  O
  O17      1.0000 0.39130  0.99390  0.21750  Biso   1.000  O
  O18      1.0000 0.98500  0.02200  0.65040  Biso   1.000  O
  O19      1.0000 0.22270  0.57550  0.01950  Biso   1.000  O
  O20      1.0000 0.01120  0.98190  0.83770  Biso   1.000  O
  O21      1.0000 0.23010  0.26400  0.95300  Biso   1.000  O
  O22      1.0000 0.16670  0.62470  0.86560  Biso   1.000  O
  O23      1.0000 0.37230  0.91230  0.84570  Biso   1.000  O
  O24      1.0000 0.96530  0.79800  0.81260  Biso   1.000  O
  O25      1.0000 0.32930  0.87840  0.94590  Biso   1.000  O
  O26      1.0000 0.23850  0.95850  0.83690  Biso   1.000  O
  O27      1.0000 0.89980  0.91990  0.87000  Biso   1.000  O
  O28      1.0000 0.25570  0.76400  0.04660  Biso   1.000  O
  O29      1.0000 0.26000  0.07480  0.97620  Biso   1.000  O
  O30      1.0000 0.13740  0.12860  0.88780  Biso   1.000  O
  O31      1.0000 0.15510  0.15500  0.01380  Biso   1.000  O
  O32      1.0000 0.10200  0.07930  0.62350  Biso   1.000  O
  In9      1.0000 0.23084  0.41849  0.48639  Biso   1.000  In
  In10     1.0000 0.37549  0.47908  0.66065  Biso   1.000  In
  In11     1.0000 0.21474  0.11234  0.62326  Biso   1.000  In
  In12     1.0000 0.28417  0.92041  0.51794  Biso   1.000  In
  In13     1.0000 0.12945  0.97616  0.34761  Biso   1.000  In
  In14     1.0000 0.29234  0.61310  0.38114  Biso   1.000  In
  In15     1.0000 0.07637  0.35061  0.22954  Biso   1.000  In
  In16     1.0000 0.92907  0.64684  0.27929  Biso   1.000  In
  P9       1.0000 0.19642  0.37940  0.63287  Biso   1.000  P
  P10      1.0000 0.30846  0.87737  0.36895  Biso   1.000  P
  P11      1.0000 0.44309  0.59066  0.82534  Biso   1.000  P
  P12      1.0000 0.56010  0.41287  0.68472  Biso   1.000  P
  P13      1.0000 0.11026  0.54068  0.35168  Biso   1.000  P
  P14      1.0000 0.30440  0.65496  0.54111  Biso   1.000  P
  P15      1.0000 0.21215  0.15584  0.46298  Biso   1.000  P
  P16      1.0000 0.39709  0.04275  0.65563  Biso   1.000  P
  F5       1.0000 0.34000  0.39980  0.56393  Biso   1.000  F
  F6       1.0000 0.17160  0.90220  0.44609  Biso   1.000  F
  F7       1.0000 0.22330  0.95740  0.58830  Biso   1.000  F
  F8       1.0000 0.29060  0.45600  0.41609  Biso   1.000  F
  O33      1.0000 0.17350  0.15810  0.51920  Biso   1.000  O
  O34      1.0000 0.24270  0.95520  0.34240  Biso   1.000  O
  O35      1.0000 0.39750  0.99410  0.72440  Biso   1.000  O
  O36      1.0000 0.38580  0.95400  0.60080  Biso   1.000  O
  O37      1.0000 0.37340  0.90910  0.34150  Biso   1.000  O
  O38      1.0000 0.61480  0.44570  0.75430  Biso   1.000  O
  O39      1.0000 0.12520  0.45180  0.40690  Biso   1.000  O
  O40      1.0000 0.03360  0.59260  0.34480  Biso   1.000  O
  O41      1.0000 0.22380  0.26840  0.66140  Biso   1.000  O
  O42      1.0000 0.46840  0.70680  0.82730  Biso   1.000  O
  O43      1.0000 0.47290  0.09790  0.66340  Biso   1.000  O
  O44      1.0000 0.27980  0.76620  0.34230  Biso   1.000  O
  O45      1.0000 0.15150  0.12740  0.39390  Biso   1.000  O
  O46      1.0000 0.34070  0.87850  0.44780  Biso   1.000  O
  O47      1.0000 0.39230  0.56270  0.75320  Biso   1.000  O
  O48      1.0000 0.17380  0.62370  0.37210  Biso   1.000  O
  O49      1.0000 0.10870  0.49390  0.28250  Biso   1.000  O
  O50      1.0000 0.51500  0.52200  0.84960  Biso   1.000  O
  O51      1.0000 0.27730  0.07550  0.48050  Biso   1.000  O
  O52      1.0000 0.48880  0.48190  0.66230  Biso   1.000  O
  O53      1.0000 0.26990  0.76400  0.54700  Biso   1.000  O
  O54      1.0000 0.33330  0.12470  0.63440  Biso   1.000  O
  O55      1.0000 0.12770  0.41230  0.65430  Biso   1.000  O
  O56      1.0000 0.53470  0.29800  0.68740  Biso   1.000  O
  O57      1.0000 0.17070  0.37840  0.55410  Biso   1.000  O
  O58      1.0000 0.26150  0.45850  0.66310  Biso   1.000  O
  O59      1.0000 0.60020  0.41990  0.63000  Biso   1.000  O
  O60      1.0000 0.24430  0.26400  0.45340  Biso   1.000  O
  O61      1.0000 0.24000  0.57480  0.52380  Biso   1.000  O
  O62      1.0000 0.36260  0.62860  0.61220  Biso   1.000  O
  O63      1.0000 0.34490  0.65500  0.48620  Biso   1.000  O
  O64      1.0000 0.39800  0.57930  0.87650  Biso   1.000  O
  In17     1.0000 0.73084  0.08151  0.98639  Biso   1.000  In
  In18     1.0000 0.87549  0.02092  0.16065  Biso   1.000  In
  In19     1.0000 0.71474  0.38766  0.12326  Biso   1.000  In
  In20     1.0000 0.78417  0.57959  0.01794  Biso   1.000  In
  In21     1.0000 0.62945  0.52384  0.84761  Biso   1.000  In
  In22     1.0000 0.79234  0.88690  0.88114  Biso   1.000  In
  In23     1.0000 0.57637  0.14939  0.72954  Biso   1.000  In
  In24     1.0000 0.42907  0.85316  0.77929  Biso   1.000  In
  P17      1.0000 0.69642  0.12060  0.13287  Biso   1.000  P
  P18      1.0000 0.80846  0.62263  0.86895  Biso   1.000  P
  P19      1.0000 0.94309  0.90934  0.32534  Biso   1.000  P
  P20      1.0000 0.06010  0.08713  0.18472  Biso   1.000  P
  P21      1.0000 0.61026  0.95932  0.85168  Biso   1.000  P
  P22      1.0000 0.80440  0.84504  0.04111  Biso   1.000  P
  P23      1.0000 0.71215  0.34416  0.96298  Biso   1.000  P
  P24      1.0000 0.89709  0.45725  0.15563  Biso   1.000  P
  F9       1.0000 0.84000  0.10020  0.06393  Biso   1.000  F
  F10      1.0000 0.67160  0.59780  0.94609  Biso   1.000  F
  F11      1.0000 0.72330  0.54260  0.08830  Biso   1.000  F
  F12      1.0000 0.79060  0.04400  0.91609  Biso   1.000  F
  O65      1.0000 0.67350  0.34190  0.01920  Biso   1.000  O
  O66      1.0000 0.74270  0.54480  0.84240  Biso   1.000  O
  O67      1.0000 0.89750  0.50590  0.22440  Biso   1.000  O
  O68      1.0000 0.88580  0.54600  0.10080  Biso   1.000  O
  O69      1.0000 0.87340  0.59090  0.84150  Biso   1.000  O
  O70      1.0000 0.11480  0.05430  0.25430  Biso   1.000  O
  O71      1.0000 0.62520  0.04820  0.90690  Biso   1.000  O
  O72      1.0000 0.53360  0.90740  0.84480  Biso   1.000  O
  O73      1.0000 0.72380  0.23160  0.16140  Biso   1.000  O
  O74      1.0000 0.96840  0.79320  0.32730  Biso   1.000  O
  O75      1.0000 0.97290  0.40210  0.16340  Biso   1.000  O
  O76      1.0000 0.77980  0.73380  0.84230  Biso   1.000  O
  O77      1.0000 0.65150  0.37260  0.89390  Biso   1.000  O
  O78      1.0000 0.84070  0.62150  0.94780  Biso   1.000  O
  O79      1.0000 0.89230  0.93730  0.25320  Biso   1.000  O
  O80      1.0000 0.67380  0.87630  0.87210  Biso   1.000  O
  O81      1.0000 0.60870  0.00610  0.78250  Biso   1.000  O
  O82      1.0000 0.01500  0.97800  0.34960  Biso   1.000  O
  O83      1.0000 0.77730  0.42450  0.98050  Biso   1.000  O
  O84      1.0000 0.98880  0.01810  0.16230  Biso   1.000  O
  O85      1.0000 0.76990  0.73600  0.04700  Biso   1.000  O
  O86      1.0000 0.83330  0.37530  0.13440  Biso   1.000  O
  O87      1.0000 0.62770  0.08770  0.15430  Biso   1.000  O
  O88      1.0000 0.03470  0.20200  0.18740  Biso   1.000  O
  O89      1.0000 0.67070  0.12160  0.05410  Biso   1.000  O
  O90      1.0000 0.76150  0.04150  0.16310  Biso   1.000  O
  O91      1.0000 0.10020  0.08010  0.13000  Biso   1.000  O
  O92      1.0000 0.74430  0.23600  0.95340  Biso   1.000  O
  O93      1.0000 0.74000  0.92520  0.02380  Biso   1.000  O
  O94      1.0000 0.86260  0.87140  0.11220  Biso   1.000  O
  O95      1.0000 0.84490  0.84500  0.98620  Biso   1.000  O
  O96      1.0000 0.89800  0.92070  0.37650  Biso   1.000  O
  In25     1.0000 0.76916  0.58151  0.51361  Biso   1.000  In
  In26     1.0000 0.62451  0.52092  0.33935  Biso   1.000  In
  In27     1.0000 0.78526  0.88766  0.37674  Biso   1.000  In
  In28     1.0000 0.71583  0.07959  0.48206  Biso   1.000  In
  In29     1.0000 0.87055  0.02384  0.65239  Biso   1.000  In
  In30     1.0000 0.70766  0.38690  0.61886  Biso   1.000  In
  In31     1.0000 0.92363  0.64939  0.77046  Biso   1.000  In
  In32     1.0000 0.07093  0.35316  0.72071  Biso   1.000  In
  P25      1.0000 0.80358  0.62060  0.36713  Biso   1.000  P
  P26      1.0000 0.69154  0.12263  0.63105  Biso   1.000  P
  P27      1.0000 0.55691  0.40934  0.17466  Biso   1.000  P
  P28      1.0000 0.43990  0.58713  0.31528  Biso   1.000  P
  P29      1.0000 0.88974  0.45932  0.64832  Biso   1.000  P
  P30      1.0000 0.69560  0.34504  0.45889  Biso   1.000  P
  P31      1.0000 0.78785  0.84416  0.53702  Biso   1.000  P
  P32      1.0000 0.60291  0.95725  0.34437  Biso   1.000  P
  F13      1.0000 0.66000  0.60020  0.43607  Biso   1.000  F
  F14      1.0000 0.82840  0.09780  0.55391  Biso   1.000  F
  F15      1.0000 0.77670  0.04260  0.41170  Biso   1.000  F
  F16      1.0000 0.70940  0.54400  0.58391  Biso   1.000  F
  O97      1.0000 0.82650  0.84190  0.48080  Biso   1.000  O
  O98      1.0000 0.75730  0.04480  0.65760  Biso   1.000  O
  O99      1.0000 0.60250  0.00590  0.27560  Biso   1.000  O
  O100     1.0000 0.61420  0.04600  0.39920  Biso   1.000  O
  O101     1.0000 0.62660  0.09090  0.65850  Biso   1.000  O
  O102     1.0000 0.38520  0.55430  0.24570  Biso   1.000  O
  O103     1.0000 0.87480  0.54820  0.59310  Biso   1.000  O
  O104     1.0000 0.96640  0.40740  0.65520  Biso   1.000  O
  O105     1.0000 0.77620  0.73160  0.33860  Biso   1.000  O
  O106     1.0000 0.53160  0.29320  0.17270  Biso   1.000  O
  O107     1.0000 0.52710  0.90210  0.33660  Biso   1.000  O
  O108     1.0000 0.72020  0.23380  0.65770  Biso   1.000  O
  O109     1.0000 0.84850  0.87260  0.60610  Biso   1.000  O
  O110     1.0000 0.65930  0.12150  0.55220  Biso   1.000  O
  O111     1.0000 0.60770  0.43730  0.24680  Biso   1.000  O
  O112     1.0000 0.82620  0.37630  0.62790  Biso   1.000  O
  O113     1.0000 0.89130  0.50610  0.71750  Biso   1.000  O
  O114     1.0000 0.48500  0.47800  0.15040  Biso   1.000  O
  O115     1.0000 0.72270  0.92450  0.51950  Biso   1.000  O
  O116     1.0000 0.51120  0.51810  0.33770  Biso   1.000  O
  O117     1.0000 0.73010  0.23600  0.45300  Biso   1.000  O
  O118     1.0000 0.66670  0.87530  0.36560  Biso   1.000  O
  O119     1.0000 0.87230  0.58770  0.34570  Biso   1.000  O
  O120     1.0000 0.46530  0.70200  0.31260  Biso   1.000  O
  O121     1.0000 0.82930  0.62160  0.44590  Biso   1.000  O
  O122     1.0000 0.73850  0.54150  0.33690  Biso   1.000  O
  O123     1.0000 0.39980  0.58010  0.37000  Biso   1.000  O
  O124     1.0000 0.75570  0.73600  0.54660  Biso   1.000  O
  O125     1.0000 0.76000  0.42520  0.47620  Biso   1.000  O
  O126     1.0000 0.63740  0.37140  0.38780  Biso   1.000  O
  O127     1.0000 0.65510  0.34500  0.51380  Biso   1.000  O
  O128     1.0000 0.60200  0.42070  0.12350  Biso   1.000  O
