data_image0
_cell_length_a       13.4678
_cell_length_b       13.4678
_cell_length_c       18.3171
_cell_angle_alpha    90
_cell_angle_beta     90
_cell_angle_gamma    120

_symmetry_space_group_name_H-M    "P 1"
_symmetry_int_tables_number       1

loop_
  _symmetry_equiv_pos_as_xyz
  'x, y, z'

loop_
  _atom_site_label
  _atom_site_occupancy
  _atom_site_fract_x
  _atom_site_fract_y
  _atom_site_fract_z
  _atom_site_thermal_displace_type
  _atom_site_B_iso_or_equiv
  _atom_site_type_symbol
  V1       1.0000 0.43529  0.14332  0.45823  Biso   1.000  V
  P1       1.0000 0.18832  0.02928  0.37115  Biso   1.000  P
  H1       1.0000 0.19300  0.93200  0.34700  Biso   1.000  H
  P2       1.0000 0.49605  0.36972  0.55432  Biso   1.000  P
  H2       1.0000 0.50100  0.31300  0.62000  Biso   1.000  H
  O1       1.0000 0.30880  0.12400  0.39168  Biso   1.000  O
  O2       1.0000 0.43310  0.28250  0.49394  Biso   1.000  O
  O3       1.0000 0.61910  0.45330  0.53504  Biso   1.000  O
  O4       1.0000 0.42850  0.42750  0.57650  Biso   1.000  O
  O5       1.0000 0.55290  0.22760  0.38396  Biso   1.000  O
  O6       1.0000 0.11150  0.97860  0.43833  Biso   1.000  O
  O7       1.0000 0.14110  0.07480  0.31273  Biso   1.000  O
  V2       1.0000 0.85668  0.29197  0.45823  Biso   1.000  V
  P3       1.0000 0.97072  0.15904  0.37115  Biso   1.000  P
  H3       1.0000 0.06800  0.26100  0.34700  Biso   1.000  H
  P4       1.0000 0.63028  0.12633  0.55432  Biso   1.000  P
  H4       1.0000 0.68700  0.18800  0.62000  Biso   1.000  H
  O8       1.0000 0.87600  0.18480  0.39168  Biso   1.000  O
  O9       1.0000 0.71750  0.15060  0.49394  Biso   1.000  O
  O10      1.0000 0.54670  0.16580  0.53504  Biso   1.000  O
  O11      1.0000 0.57250  0.00100  0.57650  Biso   1.000  O
  O12      1.0000 0.77240  0.32530  0.38396  Biso   1.000  O
  O13      1.0000 0.02140  0.13290  0.43833  Biso   1.000  O
  O14      1.0000 0.92520  0.06630  0.31273  Biso   1.000  O
  V3       1.0000 0.70803  0.56471  0.45823  Biso   1.000  V
  P5       1.0000 0.84096  0.81168  0.37115  Biso   1.000  P
  H5       1.0000 0.73900  0.80700  0.34700  Biso   1.000  H
  P6       1.0000 0.87367  0.50395  0.55432  Biso   1.000  P
  H6       1.0000 0.81200  0.49900  0.62000  Biso   1.000  H
  O15      1.0000 0.81520  0.69120  0.39168  Biso   1.000  O
  O16      1.0000 0.84940  0.56690  0.49394  Biso   1.000  O
  O17      1.0000 0.83420  0.38090  0.53504  Biso   1.000  O
  O18      1.0000 0.99900  0.57150  0.57650  Biso   1.000  O
  O19      1.0000 0.67470  0.44710  0.38396  Biso   1.000  O
  O20      1.0000 0.86710  0.88850  0.43833  Biso   1.000  O
  O21      1.0000 0.93370  0.85890  0.31273  Biso   1.000  O
  V4       1.0000 0.14332  0.43529  0.04177  Biso   1.000  V
  P7       1.0000 0.02928  0.18832  0.12885  Biso   1.000  P
  H7       1.0000 0.93200  0.19300  0.15300  Biso   1.000  H
  P8       1.0000 0.36972  0.49605  0.94568  Biso   1.000  P
  H8       1.0000 0.31300  0.50100  0.88000  Biso   1.000  H
  O22      1.0000 0.12400  0.30880  0.10832  Biso   1.000  O
  O23      1.0000 0.28250  0.43310  0.00606  Biso   1.000  O
  O24      1.0000 0.45330  0.61910  0.96496  Biso   1.000  O
  O25      1.0000 0.42750  0.42850  0.92350  Biso   1.000  O
  O26      1.0000 0.22760  0.55290  0.11604  Biso   1.000  O
  O27      1.0000 0.97860  0.11150  0.06167  Biso   1.000  O
  O28      1.0000 0.07480  0.14110  0.18727  Biso   1.000  O
  V5       1.0000 0.29197  0.85668  0.04177  Biso   1.000  V
  P9       1.0000 0.15904  0.97072  0.12885  Biso   1.000  P
  H9       1.0000 0.26100  0.06800  0.15300  Biso   1.000  H
  P10      1.0000 0.12633  0.63028  0.94568  Biso   1.000  P
  H10      1.0000 0.18800  0.68700  0.88000  Biso   1.000  H
  O29      1.0000 0.18480  0.87600  0.10832  Biso   1.000  O
  O30      1.0000 0.15060  0.71750  0.00606  Biso   1.000  O
  O31      1.0000 0.16580  0.54670  0.96496  Biso   1.000  O
  O32      1.0000 0.00100  0.57250  0.92350  Biso   1.000  O
  O33      1.0000 0.32530  0.77240  0.11604  Biso   1.000  O
  O34      1.0000 0.13290  0.02140  0.06167  Biso   1.000  O
  O35      1.0000 0.06630  0.92520  0.18727  Biso   1.000  O
  V6       1.0000 0.56471  0.70803  0.04177  Biso   1.000  V
  P11      1.0000 0.81168  0.84096  0.12885  Biso   1.000  P
  H11      1.0000 0.80700  0.73900  0.15300  Biso   1.000  H
  P12      1.0000 0.50395  0.87367  0.94568  Biso   1.000  P
  H12      1.0000 0.49900  0.81200  0.88000  Biso   1.000  H
  O36      1.0000 0.69120  0.81520  0.10832  Biso   1.000  O
  O37      1.0000 0.56690  0.84940  0.00606  Biso   1.000  O
  O38      1.0000 0.38090  0.83420  0.96496  Biso   1.000  O
  O39      1.0000 0.57150  0.99900  0.92350  Biso   1.000  O
  O40      1.0000 0.44710  0.67470  0.11604  Biso   1.000  O
  O41      1.0000 0.88850  0.86710  0.06167  Biso   1.000  O
  O42      1.0000 0.85890  0.93370  0.18727  Biso   1.000  O
  V7       1.0000 0.56471  0.85668  0.54177  Biso   1.000  V
  P13      1.0000 0.81168  0.97072  0.62885  Biso   1.000  P
  H13      1.0000 0.80700  0.06800  0.65300  Biso   1.000  H
  P14      1.0000 0.50395  0.63028  0.44568  Biso   1.000  P
  H14      1.0000 0.49900  0.68700  0.38000  Biso   1.000  H
  O43      1.0000 0.69120  0.87600  0.60832  Biso   1.000  O
  O44      1.0000 0.56690  0.71750  0.50606  Biso   1.000  O
  O45      1.0000 0.38090  0.54670  0.46496  Biso   1.000  O
  O46      1.0000 0.57150  0.57250  0.42350  Biso   1.000  O
  O47      1.0000 0.44710  0.77240  0.61604  Biso   1.000  O
  O48      1.0000 0.88850  0.02140  0.56167  Biso   1.000  O
  O49      1.0000 0.85890  0.92520  0.68727  Biso   1.000  O
  V8       1.0000 0.14332  0.70803  0.54177  Biso   1.000  V
  P15      1.0000 0.02928  0.84096  0.62885  Biso   1.000  P
  H15      1.0000 0.93200  0.73900  0.65300  Biso   1.000  H
  P16      1.0000 0.36972  0.87367  0.44568  Biso   1.000  P
  H16      1.0000 0.31300  0.81200  0.38000  Biso   1.000  H
  O50      1.0000 0.12400  0.81520  0.60832  Biso   1.000  O
  O51      1.0000 0.28250  0.84940  0.50606  Biso   1.000  O
  O52      1.0000 0.45330  0.83420  0.46496  Biso   1.000  O
  O53      1.0000 0.42750  0.99900  0.42350  Biso   1.000  O
  O54      1.0000 0.22760  0.67470  0.61604  Biso   1.000  O
  O55      1.0000 0.97860  0.86710  0.56167  Biso   1.000  O
  O56      1.0000 0.07480  0.93370  0.68727  Biso   1.000  O
  V9       1.0000 0.29197  0.43529  0.54177  Biso   1.000  V
  P17      1.0000 0.15904  0.18832  0.62885  Biso   1.000  P
  H17      1.0000 0.26100  0.19300  0.65300  Biso   1.000  H
  P18      1.0000 0.12633  0.49605  0.44568  Biso   1.000  P
  H18      1.0000 0.18800  0.50100  0.38000  Biso   1.000  H
  O57      1.0000 0.18480  0.30880  0.60832  Biso   1.000  O
  O58      1.0000 0.15060  0.43310  0.50606  Biso   1.000  O
  O59      1.0000 0.16580  0.61910  0.46496  Biso   1.000  O
  O60      1.0000 0.00100  0.42850  0.42350  Biso   1.000  O
  O61      1.0000 0.32530  0.55290  0.61604  Biso   1.000  O
  O62      1.0000 0.13290  0.11150  0.56167  Biso   1.000  O
  O63      1.0000 0.06630  0.14110  0.68727  Biso   1.000  O
  V10      1.0000 0.85668  0.56471  0.95823  Biso   1.000  V
  P19      1.0000 0.97072  0.81168  0.87115  Biso   1.000  P
  H19      1.0000 0.06800  0.80700  0.84700  Biso   1.000  H
  P20      1.0000 0.63028  0.50395  0.05432  Biso   1.000  P
  H20      1.0000 0.68700  0.49900  0.12000  Biso   1.000  H
  O64      1.0000 0.87600  0.69120  0.89168  Biso   1.000  O
  O65      1.0000 0.71750  0.56690  0.99394  Biso   1.000  O
  O66      1.0000 0.54670  0.38090  0.03504  Biso   1.000  O
  O67      1.0000 0.57250  0.57150  0.07650  Biso   1.000  O
  O68      1.0000 0.77240  0.44710  0.88396  Biso   1.000  O
  O69      1.0000 0.02140  0.88850  0.93833  Biso   1.000  O
  O70      1.0000 0.92520  0.85890  0.81273  Biso   1.000  O
  V11      1.0000 0.70803  0.14332  0.95823  Biso   1.000  V
  P21      1.0000 0.84096  0.02928  0.87115  Biso   1.000  P
  H21      1.0000 0.73900  0.93200  0.84700  Biso   1.000  H
  P22      1.0000 0.87367  0.36972  0.05432  Biso   1.000  P
  H22      1.0000 0.81200  0.31300  0.12000  Biso   1.000  H
  O71      1.0000 0.81520  0.12400  0.89168  Biso   1.000  O
  O72      1.0000 0.84940  0.28250  0.99394  Biso   1.000  O
  O73      1.0000 0.83420  0.45330  0.03504  Biso   1.000  O
  O74      1.0000 0.99900  0.42750  0.07650  Biso   1.000  O
  O75      1.0000 0.67470  0.22760  0.88396  Biso   1.000  O
  O76      1.0000 0.86710  0.97860  0.93833  Biso   1.000  O
  O77      1.0000 0.93370  0.07480  0.81273  Biso   1.000  O
  V12      1.0000 0.43529  0.29197  0.95823  Biso   1.000  V
  P23      1.0000 0.18832  0.15904  0.87115  Biso   1.000  P
  H23      1.0000 0.19300  0.26100  0.84700  Biso   1.000  H
  P24      1.0000 0.49605  0.12633  0.05432  Biso   1.000  P
  H24      1.0000 0.50100  0.18800  0.12000  Biso   1.000  H
  O78      1.0000 0.30880  0.18480  0.89168  Biso   1.000  O
  O79      1.0000 0.43310  0.15060  0.99394  Biso   1.000  O
  O80      1.0000 0.61910  0.16580  0.03504  Biso   1.000  O
  O81      1.0000 0.42850  0.00100  0.07650  Biso   1.000  O
  O82      1.0000 0.55290  0.32530  0.88396  Biso   1.000  O
  O83      1.0000 0.11150  0.13290  0.93833  Biso   1.000  O
  O84      1.0000 0.14110  0.06630  0.81273  Biso   1.000  O
  V13      1.0000 0.00000  0.00000  0.50000  Biso   1.000  V
  V14      1.0000 0.00000  0.00000  0.00000  Biso   1.000  V
  V15      1.0000 0.00000  0.00000  0.25000  Biso   1.000  V
  V16      1.0000 0.00000  0.00000  0.75000  Biso   1.000  V
  P25      1.0000 0.66667  0.33333  0.36331  Biso   1.000  P
  H25      1.0000 0.66667  0.33333  0.29123  Biso   1.000  H
  P26      1.0000 0.33333  0.66667  0.13669  Biso   1.000  P
  H26      1.0000 0.33333  0.66667  0.20877  Biso   1.000  H
  P27      1.0000 0.33333  0.66667  0.63669  Biso   1.000  P
  H27      1.0000 0.33333  0.66667  0.70877  Biso   1.000  H
  P28      1.0000 0.66667  0.33333  0.86331  Biso   1.000  P
  H28      1.0000 0.66667  0.33333  0.79123  Biso   1.000  H
