data_image0
_cell_length_a       10.925
_cell_length_b       10.925
_cell_length_c       20.461
_cell_angle_alpha    90
_cell_angle_beta     90
_cell_angle_gamma    90

_symmetry_space_group_name_H-M    "P 1"
_symmetry_int_tables_number       1

loop_
  _symmetry_equiv_pos_as_xyz
  'x, y, z'

loop_
  _atom_site_label
  _atom_site_occupancy
  _atom_site_fract_x
  _atom_site_fract_y
  _atom_site_fract_z
  _atom_site_thermal_displace_type
  _atom_site_B_iso_or_equiv
  _atom_site_type_symbol
  Gd1      1.0000 0.15357  0.41139  0.18504  Biso   1.000  Gd
  O1       1.0000 0.09960  0.24700  0.11460  Biso   1.000  O
  O2       1.0000 0.31970  0.54030  0.21780  Biso   1.000  O
  O3       1.0000 0.10880  0.44390  0.30014  Biso   1.000  O
  O4       1.0000 0.14590  0.49800  0.07759  Biso   1.000  O
  C1       1.0000 0.06600  0.49970  0.03696  Biso   1.000  C
  Gd2      1.0000 0.65357  0.91139  0.68504  Biso   1.000  Gd
  O5       1.0000 0.59960  0.74700  0.61460  Biso   1.000  O
  O6       1.0000 0.81970  0.04030  0.71780  Biso   1.000  O
  O7       1.0000 0.60880  0.94390  0.80014  Biso   1.000  O
  O8       1.0000 0.64590  0.99800  0.57759  Biso   1.000  O
  C2       1.0000 0.56600  0.99970  0.53696  Biso   1.000  C
  Gd3      1.0000 0.84643  0.58861  0.18504  Biso   1.000  Gd
  O9       1.0000 0.90040  0.75300  0.11460  Biso   1.000  O
  O10      1.0000 0.68030  0.45970  0.21780  Biso   1.000  O
  O11      1.0000 0.89120  0.55610  0.30014  Biso   1.000  O
  O12      1.0000 0.85410  0.50200  0.07759  Biso   1.000  O
  C3       1.0000 0.93400  0.50030  0.03696  Biso   1.000  C
  Gd4      1.0000 0.34643  0.08861  0.68504  Biso   1.000  Gd
  O13      1.0000 0.40040  0.25300  0.61460  Biso   1.000  O
  O14      1.0000 0.18030  0.95970  0.71780  Biso   1.000  O
  O15      1.0000 0.39120  0.05610  0.80014  Biso   1.000  O
  O16      1.0000 0.35410  0.00200  0.57759  Biso   1.000  O
  C4       1.0000 0.43400  0.00030  0.53696  Biso   1.000  C
  Gd5      1.0000 0.41139  0.84643  0.81496  Biso   1.000  Gd
  O17      1.0000 0.24700  0.90040  0.88540  Biso   1.000  O
  O18      1.0000 0.54030  0.68030  0.78220  Biso   1.000  O
  O19      1.0000 0.44390  0.89120  0.69986  Biso   1.000  O
  O20      1.0000 0.49800  0.85410  0.92241  Biso   1.000  O
  C5       1.0000 0.49970  0.93400  0.96304  Biso   1.000  C
  Gd6      1.0000 0.91139  0.34643  0.31496  Biso   1.000  Gd
  O21      1.0000 0.74700  0.40040  0.38540  Biso   1.000  O
  O22      1.0000 0.04030  0.18030  0.28220  Biso   1.000  O
  O23      1.0000 0.94390  0.39120  0.19986  Biso   1.000  O
  O24      1.0000 0.99800  0.35410  0.42241  Biso   1.000  O
  C6       1.0000 0.99970  0.43400  0.46304  Biso   1.000  C
  Gd7      1.0000 0.58861  0.15357  0.81496  Biso   1.000  Gd
  O25      1.0000 0.75300  0.09960  0.88540  Biso   1.000  O
  O26      1.0000 0.45970  0.31970  0.78220  Biso   1.000  O
  O27      1.0000 0.55610  0.10880  0.69986  Biso   1.000  O
  O28      1.0000 0.50200  0.14590  0.92241  Biso   1.000  O
  C7       1.0000 0.50030  0.06600  0.96304  Biso   1.000  C
  Gd8      1.0000 0.08861  0.65357  0.31496  Biso   1.000  Gd
  O29      1.0000 0.25300  0.59960  0.38540  Biso   1.000  O
  O30      1.0000 0.95970  0.81970  0.28220  Biso   1.000  O
  O31      1.0000 0.05610  0.60880  0.19986  Biso   1.000  O
  O32      1.0000 0.00200  0.64590  0.42241  Biso   1.000  O
  C8       1.0000 0.00030  0.56600  0.46304  Biso   1.000  C
  Gd9      1.0000 0.84643  0.41139  0.81496  Biso   1.000  Gd
  O33      1.0000 0.90040  0.24700  0.88540  Biso   1.000  O
  O34      1.0000 0.68030  0.54030  0.78220  Biso   1.000  O
  O35      1.0000 0.89120  0.44390  0.69986  Biso   1.000  O
  O36      1.0000 0.85410  0.49800  0.92241  Biso   1.000  O
  C9       1.0000 0.93400  0.49970  0.96304  Biso   1.000  C
  Gd10     1.0000 0.34643  0.91139  0.31496  Biso   1.000  Gd
  O37      1.0000 0.40040  0.74700  0.38540  Biso   1.000  O
  O38      1.0000 0.18030  0.04030  0.28220  Biso   1.000  O
  O39      1.0000 0.39120  0.94390  0.19986  Biso   1.000  O
  O40      1.0000 0.35410  0.99800  0.42241  Biso   1.000  O
  C10      1.0000 0.43400  0.99970  0.46304  Biso   1.000  C
  Gd11     1.0000 0.15357  0.58861  0.81496  Biso   1.000  Gd
  O41      1.0000 0.09960  0.75300  0.88540  Biso   1.000  O
  O42      1.0000 0.31970  0.45970  0.78220  Biso   1.000  O
  O43      1.0000 0.10880  0.55610  0.69986  Biso   1.000  O
  O44      1.0000 0.14590  0.50200  0.92241  Biso   1.000  O
  C11      1.0000 0.06600  0.50030  0.96304  Biso   1.000  C
  Gd12     1.0000 0.65357  0.08861  0.31496  Biso   1.000  Gd
  O45      1.0000 0.59960  0.25300  0.38540  Biso   1.000  O
  O46      1.0000 0.81970  0.95970  0.28220  Biso   1.000  O
  O47      1.0000 0.60880  0.05610  0.19986  Biso   1.000  O
  O48      1.0000 0.64590  0.00200  0.42241  Biso   1.000  O
  C12      1.0000 0.56600  0.00030  0.46304  Biso   1.000  C
  Gd13     1.0000 0.58861  0.84643  0.18504  Biso   1.000  Gd
  O49      1.0000 0.75300  0.90040  0.11460  Biso   1.000  O
  O50      1.0000 0.45970  0.68030  0.21780  Biso   1.000  O
  O51      1.0000 0.55610  0.89120  0.30014  Biso   1.000  O
  O52      1.0000 0.50200  0.85410  0.07759  Biso   1.000  O
  C13      1.0000 0.50030  0.93400  0.03696  Biso   1.000  C
  Gd14     1.0000 0.08861  0.34643  0.68504  Biso   1.000  Gd
  O53      1.0000 0.25300  0.40040  0.61460  Biso   1.000  O
  O54      1.0000 0.95970  0.18030  0.71780  Biso   1.000  O
  O55      1.0000 0.05610  0.39120  0.80014  Biso   1.000  O
  O56      1.0000 0.00200  0.35410  0.57759  Biso   1.000  O
  C14      1.0000 0.00030  0.43400  0.53696  Biso   1.000  C
  Gd15     1.0000 0.41139  0.15357  0.18504  Biso   1.000  Gd
  O57      1.0000 0.24700  0.09960  0.11460  Biso   1.000  O
  O58      1.0000 0.54030  0.31970  0.21780  Biso   1.000  O
  O59      1.0000 0.44390  0.10880  0.30014  Biso   1.000  O
  O60      1.0000 0.49800  0.14590  0.07759  Biso   1.000  O
  C15      1.0000 0.49970  0.06600  0.03696  Biso   1.000  C
  Gd16     1.0000 0.91139  0.65357  0.68504  Biso   1.000  Gd
  O61      1.0000 0.74700  0.59960  0.61460  Biso   1.000  O
  O62      1.0000 0.04030  0.81970  0.71780  Biso   1.000  O
  O63      1.0000 0.94390  0.60880  0.80014  Biso   1.000  O
  O64      1.0000 0.99800  0.64590  0.57759  Biso   1.000  O
  C16      1.0000 0.99970  0.56600  0.53696  Biso   1.000  C
  Gd17     1.0000 0.50000  0.50000  0.15522  Biso   1.000  Gd
  Gd18     1.0000 0.00000  0.00000  0.65522  Biso   1.000  Gd
  Gd19     1.0000 0.50000  0.50000  0.84478  Biso   1.000  Gd
  Gd20     1.0000 0.00000  0.00000  0.34478  Biso   1.000  Gd
  O65      1.0000 0.27460  0.72540  0.26040  Biso   1.000  O
  C17      1.0000 0.34530  0.65470  0.22820  Biso   1.000  C
  O66      1.0000 0.77460  0.22540  0.76040  Biso   1.000  O
  C18      1.0000 0.84530  0.15470  0.72820  Biso   1.000  C
  O67      1.0000 0.72540  0.27460  0.26040  Biso   1.000  O
  C19      1.0000 0.65470  0.34530  0.22820  Biso   1.000  C
  O68      1.0000 0.22540  0.77460  0.76040  Biso   1.000  O
  C20      1.0000 0.15470  0.84530  0.72820  Biso   1.000  C
  O69      1.0000 0.72540  0.72540  0.73960  Biso   1.000  O
  C21      1.0000 0.65470  0.65470  0.77180  Biso   1.000  C
  O70      1.0000 0.22540  0.22540  0.23960  Biso   1.000  O
  C22      1.0000 0.15470  0.15470  0.27180  Biso   1.000  C
  O71      1.0000 0.27460  0.27460  0.73960  Biso   1.000  O
  C23      1.0000 0.34530  0.34530  0.77180  Biso   1.000  C
  O72      1.0000 0.77460  0.77460  0.23960  Biso   1.000  O
  C24      1.0000 0.84530  0.84530  0.27180  Biso   1.000  C
  O73      1.0000 0.34550  0.34550  0.13500  Biso   1.000  O
  C25      1.0000 0.14670  0.14670  0.08710  Biso   1.000  C
  H1       1.0000 0.11110  0.11110  0.05040  Biso   1.000  H
  O74      1.0000 0.84550  0.84550  0.63500  Biso   1.000  O
  C26      1.0000 0.64670  0.64670  0.58710  Biso   1.000  C
  H2       1.0000 0.61110  0.61110  0.55040  Biso   1.000  H
  O75      1.0000 0.65450  0.65450  0.13500  Biso   1.000  O
  C27      1.0000 0.85330  0.85330  0.08710  Biso   1.000  C
  H3       1.0000 0.88890  0.88890  0.05040  Biso   1.000  H
  O76      1.0000 0.15450  0.15450  0.63500  Biso   1.000  O
  C28      1.0000 0.35330  0.35330  0.58710  Biso   1.000  C
  H4       1.0000 0.38890  0.38890  0.55040  Biso   1.000  H
  O77      1.0000 0.34550  0.65450  0.86500  Biso   1.000  O
  C29      1.0000 0.14670  0.85330  0.91290  Biso   1.000  C
  H5       1.0000 0.11110  0.88890  0.94960  Biso   1.000  H
  O78      1.0000 0.84550  0.15450  0.36500  Biso   1.000  O
  C30      1.0000 0.64670  0.35330  0.41290  Biso   1.000  C
  H6       1.0000 0.61110  0.38890  0.44960  Biso   1.000  H
  O79      1.0000 0.65450  0.34550  0.86500  Biso   1.000  O
  C31      1.0000 0.85330  0.14670  0.91290  Biso   1.000  C
  H7       1.0000 0.88890  0.11110  0.94960  Biso   1.000  H
  O80      1.0000 0.15450  0.84550  0.36500  Biso   1.000  O
  C32      1.0000 0.35330  0.64670  0.41290  Biso   1.000  C
  H8       1.0000 0.38890  0.61110  0.44960  Biso   1.000  H
