data_image0
_cell_length_a       27.841
_cell_length_b       7.5266
_cell_length_c       17.413
_cell_angle_alpha    90
_cell_angle_beta     90
_cell_angle_gamma    90

_symmetry_space_group_name_H-M    "P 1"
_symmetry_int_tables_number       1

loop_
  _symmetry_equiv_pos_as_xyz
  'x, y, z'

loop_
  _atom_site_label
  _atom_site_occupancy
  _atom_site_fract_x
  _atom_site_fract_y
  _atom_site_fract_z
  _atom_site_thermal_displace_type
  _atom_site_B_iso_or_equiv
  _atom_site_type_symbol
  Zn1      1.0000 0.09747  0.30632  0.23386  Biso   1.000  Zn
  O1       1.0000 0.56407  0.01080  0.22294  Biso   1.000  O
  O2       1.0000 0.57634  0.20710  0.87337  Biso   1.000  O
  O3       1.0000 0.51028  0.36360  0.85057  Biso   1.000  O
  O4       1.0000 0.61345  0.96710  0.12550  Biso   1.000  O
  C1       1.0000 0.35514  0.32730  0.19260  Biso   1.000  C
  H1       1.0000 0.34830  0.37260  0.24110  Biso   1.000  H
  C2       1.0000 0.20439  0.32130  0.26320  Biso   1.000  C
  H2       1.0000 0.19590  0.34490  0.31390  Biso   1.000  H
  C3       1.0000 0.25278  0.31210  0.24440  Biso   1.000  C
  H3       1.0000 0.27600  0.32830  0.28220  Biso   1.000  H
  C4       1.0000 0.26655  0.27850  0.16920  Biso   1.000  C
  C5       1.0000 0.31773  0.26760  0.14510  Biso   1.000  C
  C6       1.0000 0.33032  0.20150  0.07340  Biso   1.000  C
  H4       1.0000 0.30640  0.16190  0.04020  Biso   1.000  H
  C7       1.0000 0.37750  0.19380  0.05070  Biso   1.000  C
  H5       1.0000 0.38520  0.14870  0.00260  Biso   1.000  H
  C8       1.0000 0.40207  0.31870  0.16730  Biso   1.000  C
  H6       1.0000 0.42660  0.36000  0.19880  Biso   1.000  H
  C9       1.0000 0.46285  0.23350  0.07460  Biso   1.000  C
  C10      1.0000 0.47528  0.27530  0.00010  Biso   1.000  C
  H7       1.0000 0.45270  0.32290  0.96650  Biso   1.000  H
  C11      1.0000 0.49534  0.16180  0.12630  Biso   1.000  C
  H8       1.0000 0.48600  0.13450  0.17620  Biso   1.000  H
  C12      1.0000 0.54223  0.13160  0.10200  Biso   1.000  C
  C13      1.0000 0.55543  0.17330  0.02710  Biso   1.000  C
  H9       1.0000 0.58680  0.15310  0.01090  Biso   1.000  H
  C14      1.0000 0.53638  0.27650  0.89310  Biso   1.000  C
  C15      1.0000 0.52233  0.24460  0.97620  Biso   1.000  C
  C16      1.0000 0.57699  0.03220  0.15290  Biso   1.000  C
  C17      1.0000 0.23003  0.25560  0.11590  Biso   1.000  C
  H10      1.0000 0.23750  0.23450  0.06470  Biso   1.000  H
  C18      1.0000 0.18276  0.26400  0.13850  Biso   1.000  C
  H11      1.0000 0.15900  0.24570  0.10190  Biso   1.000  H
  N1       1.0000 0.16937  0.29750  0.21120  Biso   1.000  N
  N2       1.0000 0.41277  0.25130  0.09782  Biso   1.000  N
  Zn2      1.0000 0.59747  0.19368  0.76614  Biso   1.000  Zn
  O5       1.0000 0.06407  0.48920  0.77706  Biso   1.000  O
  O6       1.0000 0.07634  0.29290  0.12663  Biso   1.000  O
  O7       1.0000 0.01028  0.13640  0.14943  Biso   1.000  O
  O8       1.0000 0.11345  0.53290  0.87450  Biso   1.000  O
  C19      1.0000 0.85514  0.17270  0.80740  Biso   1.000  C
  H12      1.0000 0.84830  0.12740  0.75890  Biso   1.000  H
  C20      1.0000 0.70439  0.17870  0.73680  Biso   1.000  C
  H13      1.0000 0.69590  0.15510  0.68610  Biso   1.000  H
  C21      1.0000 0.75278  0.18790  0.75560  Biso   1.000  C
  H14      1.0000 0.77600  0.17170  0.71780  Biso   1.000  H
  C22      1.0000 0.76655  0.22150  0.83080  Biso   1.000  C
  C23      1.0000 0.81773  0.23240  0.85490  Biso   1.000  C
  C24      1.0000 0.83032  0.29850  0.92660  Biso   1.000  C
  H15      1.0000 0.80640  0.33810  0.95980  Biso   1.000  H
  C25      1.0000 0.87750  0.30620  0.94930  Biso   1.000  C
  H16      1.0000 0.88520  0.35130  0.99740  Biso   1.000  H
  C26      1.0000 0.90207  0.18130  0.83270  Biso   1.000  C
  H17      1.0000 0.92660  0.14000  0.80120  Biso   1.000  H
  C27      1.0000 0.96285  0.26650  0.92540  Biso   1.000  C
  C28      1.0000 0.97528  0.22470  0.99990  Biso   1.000  C
  H18      1.0000 0.95270  0.17710  0.03350  Biso   1.000  H
  C29      1.0000 0.99534  0.33820  0.87370  Biso   1.000  C
  H19      1.0000 0.98600  0.36550  0.82380  Biso   1.000  H
  C30      1.0000 0.04223  0.36840  0.89800  Biso   1.000  C
  C31      1.0000 0.05543  0.32670  0.97290  Biso   1.000  C
  H20      1.0000 0.08680  0.34690  0.98910  Biso   1.000  H
  C32      1.0000 0.03638  0.22350  0.10690  Biso   1.000  C
  C33      1.0000 0.02233  0.25540  0.02380  Biso   1.000  C
  C34      1.0000 0.07699  0.46780  0.84710  Biso   1.000  C
  C35      1.0000 0.73003  0.24440  0.88410  Biso   1.000  C
  H21      1.0000 0.73750  0.26550  0.93530  Biso   1.000  H
  C36      1.0000 0.68276  0.23600  0.86150  Biso   1.000  C
  H22      1.0000 0.65900  0.25430  0.89810  Biso   1.000  H
  N3       1.0000 0.66937  0.20250  0.78880  Biso   1.000  N
  N4       1.0000 0.91277  0.24870  0.90218  Biso   1.000  N
  Zn3      1.0000 0.59747  0.80632  0.26614  Biso   1.000  Zn
  O9       1.0000 0.06407  0.51080  0.27706  Biso   1.000  O
  O10      1.0000 0.07634  0.70710  0.62663  Biso   1.000  O
  O11      1.0000 0.01028  0.86360  0.64943  Biso   1.000  O
  O12      1.0000 0.11345  0.46710  0.37450  Biso   1.000  O
  C37      1.0000 0.85514  0.82730  0.30740  Biso   1.000  C
  H23      1.0000 0.84830  0.87260  0.25890  Biso   1.000  H
  C38      1.0000 0.70439  0.82130  0.23680  Biso   1.000  C
  H24      1.0000 0.69590  0.84490  0.18610  Biso   1.000  H
  C39      1.0000 0.75278  0.81210  0.25560  Biso   1.000  C
  H25      1.0000 0.77600  0.82830  0.21780  Biso   1.000  H
  C40      1.0000 0.76655  0.77850  0.33080  Biso   1.000  C
  C41      1.0000 0.81773  0.76760  0.35490  Biso   1.000  C
  C42      1.0000 0.83032  0.70150  0.42660  Biso   1.000  C
  H26      1.0000 0.80640  0.66190  0.45980  Biso   1.000  H
  C43      1.0000 0.87750  0.69380  0.44930  Biso   1.000  C
  H27      1.0000 0.88520  0.64870  0.49740  Biso   1.000  H
  C44      1.0000 0.90207  0.81870  0.33270  Biso   1.000  C
  H28      1.0000 0.92660  0.86000  0.30120  Biso   1.000  H
  C45      1.0000 0.96285  0.73350  0.42540  Biso   1.000  C
  C46      1.0000 0.97528  0.77530  0.49990  Biso   1.000  C
  H29      1.0000 0.95270  0.82290  0.53350  Biso   1.000  H
  C47      1.0000 0.99534  0.66180  0.37370  Biso   1.000  C
  H30      1.0000 0.98600  0.63450  0.32380  Biso   1.000  H
  C48      1.0000 0.04223  0.63160  0.39800  Biso   1.000  C
  C49      1.0000 0.05543  0.67330  0.47290  Biso   1.000  C
  H31      1.0000 0.08680  0.65310  0.48910  Biso   1.000  H
  C50      1.0000 0.03638  0.77650  0.60690  Biso   1.000  C
  C51      1.0000 0.02233  0.74460  0.52380  Biso   1.000  C
  C52      1.0000 0.07699  0.53220  0.34710  Biso   1.000  C
  C53      1.0000 0.73003  0.75560  0.38410  Biso   1.000  C
  H32      1.0000 0.73750  0.73450  0.43530  Biso   1.000  H
  C54      1.0000 0.68276  0.76400  0.36150  Biso   1.000  C
  H33      1.0000 0.65900  0.74570  0.39810  Biso   1.000  H
  N5       1.0000 0.66937  0.79750  0.28880  Biso   1.000  N
  N6       1.0000 0.91277  0.75130  0.40218  Biso   1.000  N
  Zn4      1.0000 0.09747  0.69368  0.73386  Biso   1.000  Zn
  O13      1.0000 0.56407  0.98920  0.72294  Biso   1.000  O
  O14      1.0000 0.57634  0.79290  0.37337  Biso   1.000  O
  O15      1.0000 0.51028  0.63640  0.35057  Biso   1.000  O
  O16      1.0000 0.61345  0.03290  0.62550  Biso   1.000  O
  C55      1.0000 0.35514  0.67270  0.69260  Biso   1.000  C
  H34      1.0000 0.34830  0.62740  0.74110  Biso   1.000  H
  C56      1.0000 0.20439  0.67870  0.76320  Biso   1.000  C
  H35      1.0000 0.19590  0.65510  0.81390  Biso   1.000  H
  C57      1.0000 0.25278  0.68790  0.74440  Biso   1.000  C
  H36      1.0000 0.27600  0.67170  0.78220  Biso   1.000  H
  C58      1.0000 0.26655  0.72150  0.66920  Biso   1.000  C
  C59      1.0000 0.31773  0.73240  0.64510  Biso   1.000  C
  C60      1.0000 0.33032  0.79850  0.57340  Biso   1.000  C
  H37      1.0000 0.30640  0.83810  0.54020  Biso   1.000  H
  C61      1.0000 0.37750  0.80620  0.55070  Biso   1.000  C
  H38      1.0000 0.38520  0.85130  0.50260  Biso   1.000  H
  C62      1.0000 0.40207  0.68130  0.66730  Biso   1.000  C
  H39      1.0000 0.42660  0.64000  0.69880  Biso   1.000  H
  C63      1.0000 0.46285  0.76650  0.57460  Biso   1.000  C
  C64      1.0000 0.47528  0.72470  0.50010  Biso   1.000  C
  H40      1.0000 0.45270  0.67710  0.46650  Biso   1.000  H
  C65      1.0000 0.49534  0.83820  0.62630  Biso   1.000  C
  H41      1.0000 0.48600  0.86550  0.67620  Biso   1.000  H
  C66      1.0000 0.54223  0.86840  0.60200  Biso   1.000  C
  C67      1.0000 0.55543  0.82670  0.52710  Biso   1.000  C
  H42      1.0000 0.58680  0.84690  0.51090  Biso   1.000  H
  C68      1.0000 0.53638  0.72350  0.39310  Biso   1.000  C
  C69      1.0000 0.52233  0.75540  0.47620  Biso   1.000  C
  C70      1.0000 0.57699  0.96780  0.65290  Biso   1.000  C
  C71      1.0000 0.23003  0.74440  0.61590  Biso   1.000  C
  H43      1.0000 0.23750  0.76550  0.56470  Biso   1.000  H
  C72      1.0000 0.18276  0.73600  0.63850  Biso   1.000  C
  H44      1.0000 0.15900  0.75430  0.60190  Biso   1.000  H
  N7       1.0000 0.16937  0.70250  0.71120  Biso   1.000  N
  N8       1.0000 0.41277  0.74870  0.59782  Biso   1.000  N
  Zn5      1.0000 0.40253  0.19368  0.73386  Biso   1.000  Zn
  O17      1.0000 0.93593  0.48920  0.72294  Biso   1.000  O
  O18      1.0000 0.92366  0.29290  0.37337  Biso   1.000  O
  O19      1.0000 0.98972  0.13640  0.35057  Biso   1.000  O
  O20      1.0000 0.88655  0.53290  0.62550  Biso   1.000  O
  C73      1.0000 0.14486  0.17270  0.69260  Biso   1.000  C
  H45      1.0000 0.15170  0.12740  0.74110  Biso   1.000  H
  C74      1.0000 0.29561  0.17870  0.76320  Biso   1.000  C
  H46      1.0000 0.30410  0.15510  0.81390  Biso   1.000  H
  C75      1.0000 0.24722  0.18790  0.74440  Biso   1.000  C
  H47      1.0000 0.22400  0.17170  0.78220  Biso   1.000  H
  C76      1.0000 0.23345  0.22150  0.66920  Biso   1.000  C
  C77      1.0000 0.18227  0.23240  0.64510  Biso   1.000  C
  C78      1.0000 0.16968  0.29850  0.57340  Biso   1.000  C
  H48      1.0000 0.19360  0.33810  0.54020  Biso   1.000  H
  C79      1.0000 0.12250  0.30620  0.55070  Biso   1.000  C
  H49      1.0000 0.11480  0.35130  0.50260  Biso   1.000  H
  C80      1.0000 0.09793  0.18130  0.66730  Biso   1.000  C
  H50      1.0000 0.07340  0.14000  0.69880  Biso   1.000  H
  C81      1.0000 0.03715  0.26650  0.57460  Biso   1.000  C
  C82      1.0000 0.02472  0.22470  0.50010  Biso   1.000  C
  H51      1.0000 0.04730  0.17710  0.46650  Biso   1.000  H
  C83      1.0000 0.00466  0.33820  0.62630  Biso   1.000  C
  H52      1.0000 0.01400  0.36550  0.67620  Biso   1.000  H
  C84      1.0000 0.95777  0.36840  0.60200  Biso   1.000  C
  C85      1.0000 0.94457  0.32670  0.52710  Biso   1.000  C
  H53      1.0000 0.91320  0.34690  0.51090  Biso   1.000  H
  C86      1.0000 0.96362  0.22350  0.39310  Biso   1.000  C
  C87      1.0000 0.97767  0.25540  0.47620  Biso   1.000  C
  C88      1.0000 0.92301  0.46780  0.65290  Biso   1.000  C
  C89      1.0000 0.26997  0.24440  0.61590  Biso   1.000  C
  H54      1.0000 0.26250  0.26550  0.56470  Biso   1.000  H
  C90      1.0000 0.31724  0.23600  0.63850  Biso   1.000  C
  H55      1.0000 0.34100  0.25430  0.60190  Biso   1.000  H
  N9       1.0000 0.33063  0.20250  0.71120  Biso   1.000  N
  N10      1.0000 0.08723  0.24870  0.59782  Biso   1.000  N
  Zn6      1.0000 0.90253  0.30632  0.26614  Biso   1.000  Zn
  O21      1.0000 0.43593  0.01080  0.27706  Biso   1.000  O
  O22      1.0000 0.42366  0.20710  0.62663  Biso   1.000  O
  O23      1.0000 0.48972  0.36360  0.64943  Biso   1.000  O
  O24      1.0000 0.38655  0.96710  0.37450  Biso   1.000  O
  C91      1.0000 0.64486  0.32730  0.30740  Biso   1.000  C
  H56      1.0000 0.65170  0.37260  0.25890  Biso   1.000  H
  C92      1.0000 0.79561  0.32130  0.23680  Biso   1.000  C
  H57      1.0000 0.80410  0.34490  0.18610  Biso   1.000  H
  C93      1.0000 0.74722  0.31210  0.25560  Biso   1.000  C
  H58      1.0000 0.72400  0.32830  0.21780  Biso   1.000  H
  C94      1.0000 0.73345  0.27850  0.33080  Biso   1.000  C
  C95      1.0000 0.68227  0.26760  0.35490  Biso   1.000  C
  C96      1.0000 0.66968  0.20150  0.42660  Biso   1.000  C
  H59      1.0000 0.69360  0.16190  0.45980  Biso   1.000  H
  C97      1.0000 0.62250  0.19380  0.44930  Biso   1.000  C
  H60      1.0000 0.61480  0.14870  0.49740  Biso   1.000  H
  C98      1.0000 0.59793  0.31870  0.33270  Biso   1.000  C
  H61      1.0000 0.57340  0.36000  0.30120  Biso   1.000  H
  C99      1.0000 0.53715  0.23350  0.42540  Biso   1.000  C
  C100     1.0000 0.52472  0.27530  0.49990  Biso   1.000  C
  H62      1.0000 0.54730  0.32290  0.53350  Biso   1.000  H
  C101     1.0000 0.50466  0.16180  0.37370  Biso   1.000  C
  H63      1.0000 0.51400  0.13450  0.32380  Biso   1.000  H
  C102     1.0000 0.45777  0.13160  0.39800  Biso   1.000  C
  C103     1.0000 0.44457  0.17330  0.47290  Biso   1.000  C
  H64      1.0000 0.41320  0.15310  0.48910  Biso   1.000  H
  C104     1.0000 0.46362  0.27650  0.60690  Biso   1.000  C
  C105     1.0000 0.47767  0.24460  0.52380  Biso   1.000  C
  C106     1.0000 0.42301  0.03220  0.34710  Biso   1.000  C
  C107     1.0000 0.76997  0.25560  0.38410  Biso   1.000  C
  H65      1.0000 0.76250  0.23450  0.43530  Biso   1.000  H
  C108     1.0000 0.81724  0.26400  0.36150  Biso   1.000  C
  H66      1.0000 0.84100  0.24570  0.39810  Biso   1.000  H
  N11      1.0000 0.83063  0.29750  0.28880  Biso   1.000  N
  N12      1.0000 0.58723  0.25130  0.40218  Biso   1.000  N
  Zn7      1.0000 0.90253  0.69368  0.76614  Biso   1.000  Zn
  O25      1.0000 0.43593  0.98920  0.77706  Biso   1.000  O
  O26      1.0000 0.42366  0.79290  0.12663  Biso   1.000  O
  O27      1.0000 0.48972  0.63640  0.14943  Biso   1.000  O
  O28      1.0000 0.38655  0.03290  0.87450  Biso   1.000  O
  C109     1.0000 0.64486  0.67270  0.80740  Biso   1.000  C
  H67      1.0000 0.65170  0.62740  0.75890  Biso   1.000  H
  C110     1.0000 0.79561  0.67870  0.73680  Biso   1.000  C
  H68      1.0000 0.80410  0.65510  0.68610  Biso   1.000  H
  C111     1.0000 0.74722  0.68790  0.75560  Biso   1.000  C
  H69      1.0000 0.72400  0.67170  0.71780  Biso   1.000  H
  C112     1.0000 0.73345  0.72150  0.83080  Biso   1.000  C
  C113     1.0000 0.68227  0.73240  0.85490  Biso   1.000  C
  C114     1.0000 0.66968  0.79850  0.92660  Biso   1.000  C
  H70      1.0000 0.69360  0.83810  0.95980  Biso   1.000  H
  C115     1.0000 0.62250  0.80620  0.94930  Biso   1.000  C
  H71      1.0000 0.61480  0.85130  0.99740  Biso   1.000  H
  C116     1.0000 0.59793  0.68130  0.83270  Biso   1.000  C
  H72      1.0000 0.57340  0.64000  0.80120  Biso   1.000  H
  C117     1.0000 0.53715  0.76650  0.92540  Biso   1.000  C
  C118     1.0000 0.52472  0.72470  0.99990  Biso   1.000  C
  H73      1.0000 0.54730  0.67710  0.03350  Biso   1.000  H
  C119     1.0000 0.50466  0.83820  0.87370  Biso   1.000  C
  H74      1.0000 0.51400  0.86550  0.82380  Biso   1.000  H
  C120     1.0000 0.45777  0.86840  0.89800  Biso   1.000  C
  C121     1.0000 0.44457  0.82670  0.97290  Biso   1.000  C
  H75      1.0000 0.41320  0.84690  0.98910  Biso   1.000  H
  C122     1.0000 0.46362  0.72350  0.10690  Biso   1.000  C
  C123     1.0000 0.47767  0.75540  0.02380  Biso   1.000  C
  C124     1.0000 0.42301  0.96780  0.84710  Biso   1.000  C
  C125     1.0000 0.76997  0.74440  0.88410  Biso   1.000  C
  H76      1.0000 0.76250  0.76550  0.93530  Biso   1.000  H
  C126     1.0000 0.81724  0.73600  0.86150  Biso   1.000  C
  H77      1.0000 0.84100  0.75430  0.89810  Biso   1.000  H
  N13      1.0000 0.83063  0.70250  0.78880  Biso   1.000  N
  N14      1.0000 0.58723  0.74870  0.90218  Biso   1.000  N
  Zn8      1.0000 0.40253  0.80632  0.23386  Biso   1.000  Zn
  O29      1.0000 0.93593  0.51080  0.22294  Biso   1.000  O
  O30      1.0000 0.92366  0.70710  0.87337  Biso   1.000  O
  O31      1.0000 0.98972  0.86360  0.85057  Biso   1.000  O
  O32      1.0000 0.88655  0.46710  0.12550  Biso   1.000  O
  C127     1.0000 0.14486  0.82730  0.19260  Biso   1.000  C
  H78      1.0000 0.15170  0.87260  0.24110  Biso   1.000  H
  C128     1.0000 0.29561  0.82130  0.26320  Biso   1.000  C
  H79      1.0000 0.30410  0.84490  0.31390  Biso   1.000  H
  C129     1.0000 0.24722  0.81210  0.24440  Biso   1.000  C
  H80      1.0000 0.22400  0.82830  0.28220  Biso   1.000  H
  C130     1.0000 0.23345  0.77850  0.16920  Biso   1.000  C
  C131     1.0000 0.18227  0.76760  0.14510  Biso   1.000  C
  C132     1.0000 0.16968  0.70150  0.07340  Biso   1.000  C
  H81      1.0000 0.19360  0.66190  0.04020  Biso   1.000  H
  C133     1.0000 0.12250  0.69380  0.05070  Biso   1.000  C
  H82      1.0000 0.11480  0.64870  0.00260  Biso   1.000  H
  C134     1.0000 0.09793  0.81870  0.16730  Biso   1.000  C
  H83      1.0000 0.07340  0.86000  0.19880  Biso   1.000  H
  C135     1.0000 0.03715  0.73350  0.07460  Biso   1.000  C
  C136     1.0000 0.02472  0.77530  0.00010  Biso   1.000  C
  H84      1.0000 0.04730  0.82290  0.96650  Biso   1.000  H
  C137     1.0000 0.00466  0.66180  0.12630  Biso   1.000  C
  H85      1.0000 0.01400  0.63450  0.17620  Biso   1.000  H
  C138     1.0000 0.95777  0.63160  0.10200  Biso   1.000  C
  C139     1.0000 0.94457  0.67330  0.02710  Biso   1.000  C
  H86      1.0000 0.91320  0.65310  0.01090  Biso   1.000  H
  C140     1.0000 0.96362  0.77650  0.89310  Biso   1.000  C
  C141     1.0000 0.97767  0.74460  0.97620  Biso   1.000  C
  C142     1.0000 0.92301  0.53220  0.15290  Biso   1.000  C
  C143     1.0000 0.26997  0.75560  0.11590  Biso   1.000  C
  H87      1.0000 0.26250  0.73450  0.06470  Biso   1.000  H
  C144     1.0000 0.31724  0.76400  0.13850  Biso   1.000  C
  H88      1.0000 0.34100  0.74570  0.10190  Biso   1.000  H
  N15      1.0000 0.33063  0.79750  0.21120  Biso   1.000  N
  N16      1.0000 0.08723  0.75130  0.09782  Biso   1.000  N
