data_image0
_cell_length_a       24.743
_cell_length_b       24.743
_cell_length_c       24.743
_cell_angle_alpha    90
_cell_angle_beta     90
_cell_angle_gamma    90

_symmetry_space_group_name_H-M    "P 1"
_symmetry_int_tables_number       1

loop_
  _symmetry_equiv_pos_as_xyz
  'x, y, z'

loop_
  _atom_site_label
  _atom_site_occupancy
  _atom_site_fract_x
  _atom_site_fract_y
  _atom_site_fract_z
  _atom_site_thermal_displace_type
  _atom_site_B_iso_or_equiv
  _atom_site_type_symbol
  N1       1.0000 0.91060  0.52070  0.18660  Biso   1.000  N
  C1       1.0000 0.86700  0.53170  0.15780  Biso   1.000  C
  N2       1.0000 0.91060  0.02070  0.68660  Biso   1.000  N
  C2       1.0000 0.86700  0.03170  0.65780  Biso   1.000  C
  N3       1.0000 0.41060  0.52070  0.68660  Biso   1.000  N
  C3       1.0000 0.36700  0.53170  0.65780  Biso   1.000  C
  N4       1.0000 0.41060  0.02070  0.18660  Biso   1.000  N
  C4       1.0000 0.36700  0.03170  0.15780  Biso   1.000  C
  N5       1.0000 0.33940  0.22930  0.68660  Biso   1.000  N
  C5       1.0000 0.38300  0.21830  0.65780  Biso   1.000  C
  N6       1.0000 0.33940  0.72930  0.18660  Biso   1.000  N
  C6       1.0000 0.38300  0.71830  0.15780  Biso   1.000  C
  N7       1.0000 0.83940  0.22930  0.18660  Biso   1.000  N
  C7       1.0000 0.88300  0.21830  0.15780  Biso   1.000  C
  N8       1.0000 0.83940  0.72930  0.68660  Biso   1.000  N
  C8       1.0000 0.88300  0.71830  0.65780  Biso   1.000  C
  N9       1.0000 0.83940  0.02070  0.06340  Biso   1.000  N
  C9       1.0000 0.88300  0.03170  0.09220  Biso   1.000  C
  N10      1.0000 0.83940  0.52070  0.56340  Biso   1.000  N
  C10      1.0000 0.88300  0.53170  0.59220  Biso   1.000  C
  N11      1.0000 0.33940  0.02070  0.56340  Biso   1.000  N
  C11      1.0000 0.38300  0.03170  0.59220  Biso   1.000  C
  N12      1.0000 0.33940  0.52070  0.06340  Biso   1.000  N
  C12      1.0000 0.38300  0.53170  0.09220  Biso   1.000  C
  N13      1.0000 0.41060  0.72930  0.56340  Biso   1.000  N
  C13      1.0000 0.36700  0.71830  0.59220  Biso   1.000  C
  N14      1.0000 0.41060  0.22930  0.06340  Biso   1.000  N
  C14      1.0000 0.36700  0.21830  0.09220  Biso   1.000  C
  N15      1.0000 0.91060  0.72930  0.06340  Biso   1.000  N
  C15      1.0000 0.86700  0.71830  0.09220  Biso   1.000  C
  N16      1.0000 0.91060  0.22930  0.56340  Biso   1.000  N
  C16      1.0000 0.86700  0.21830  0.59220  Biso   1.000  C
  N17      1.0000 0.18660  0.91060  0.52070  Biso   1.000  N
  C17      1.0000 0.15780  0.86700  0.53170  Biso   1.000  C
  N18      1.0000 0.18660  0.41060  0.02070  Biso   1.000  N
  C18      1.0000 0.15780  0.36700  0.03170  Biso   1.000  C
  N19      1.0000 0.68660  0.91060  0.02070  Biso   1.000  N
  C19      1.0000 0.65780  0.86700  0.03170  Biso   1.000  C
  N20      1.0000 0.68660  0.41060  0.52070  Biso   1.000  N
  C20      1.0000 0.65780  0.36700  0.53170  Biso   1.000  C
  N21      1.0000 0.68660  0.33940  0.22930  Biso   1.000  N
  C21      1.0000 0.65780  0.38300  0.21830  Biso   1.000  C
  N22      1.0000 0.68660  0.83940  0.72930  Biso   1.000  N
  C22      1.0000 0.65780  0.88300  0.71830  Biso   1.000  C
  N23      1.0000 0.18660  0.33940  0.72930  Biso   1.000  N
  C23      1.0000 0.15780  0.38300  0.71830  Biso   1.000  C
  N24      1.0000 0.18660  0.83940  0.22930  Biso   1.000  N
  C24      1.0000 0.15780  0.88300  0.21830  Biso   1.000  C
  N25      1.0000 0.06340  0.83940  0.02070  Biso   1.000  N
  C25      1.0000 0.09220  0.88300  0.03170  Biso   1.000  C
  N26      1.0000 0.06340  0.33940  0.52070  Biso   1.000  N
  C26      1.0000 0.09220  0.38300  0.53170  Biso   1.000  C
  N27      1.0000 0.56340  0.83940  0.52070  Biso   1.000  N
  C27      1.0000 0.59220  0.88300  0.53170  Biso   1.000  C
  N28      1.0000 0.56340  0.33940  0.02070  Biso   1.000  N
  C28      1.0000 0.59220  0.38300  0.03170  Biso   1.000  C
  N29      1.0000 0.56340  0.41060  0.72930  Biso   1.000  N
  C29      1.0000 0.59220  0.36700  0.71830  Biso   1.000  C
  N30      1.0000 0.56340  0.91060  0.22930  Biso   1.000  N
  C30      1.0000 0.59220  0.86700  0.21830  Biso   1.000  C
  N31      1.0000 0.06340  0.41060  0.22930  Biso   1.000  N
  C31      1.0000 0.09220  0.36700  0.21830  Biso   1.000  C
  N32      1.0000 0.06340  0.91060  0.72930  Biso   1.000  N
  C32      1.0000 0.09220  0.86700  0.71830  Biso   1.000  C
  N33      1.0000 0.52070  0.18660  0.91060  Biso   1.000  N
  C33      1.0000 0.53170  0.15780  0.86700  Biso   1.000  C
  N34      1.0000 0.52070  0.68660  0.41060  Biso   1.000  N
  C34      1.0000 0.53170  0.65780  0.36700  Biso   1.000  C
  N35      1.0000 0.02070  0.18660  0.41060  Biso   1.000  N
  C35      1.0000 0.03170  0.15780  0.36700  Biso   1.000  C
  N36      1.0000 0.02070  0.68660  0.91060  Biso   1.000  N
  C36      1.0000 0.03170  0.65780  0.86700  Biso   1.000  C
  N37      1.0000 0.22930  0.68660  0.33940  Biso   1.000  N
  C37      1.0000 0.21830  0.65780  0.38300  Biso   1.000  C
  N38      1.0000 0.22930  0.18660  0.83940  Biso   1.000  N
  C38      1.0000 0.21830  0.15780  0.88300  Biso   1.000  C
  N39      1.0000 0.72930  0.68660  0.83940  Biso   1.000  N
  C39      1.0000 0.71830  0.65780  0.88300  Biso   1.000  C
  N40      1.0000 0.72930  0.18660  0.33940  Biso   1.000  N
  C40      1.0000 0.71830  0.15780  0.38300  Biso   1.000  C
  N41      1.0000 0.02070  0.06340  0.83940  Biso   1.000  N
  C41      1.0000 0.03170  0.09220  0.88300  Biso   1.000  C
  N42      1.0000 0.02070  0.56340  0.33940  Biso   1.000  N
  C42      1.0000 0.03170  0.59220  0.38300  Biso   1.000  C
  N43      1.0000 0.52070  0.06340  0.33940  Biso   1.000  N
  C43      1.0000 0.53170  0.09220  0.38300  Biso   1.000  C
  N44      1.0000 0.52070  0.56340  0.83940  Biso   1.000  N
  C44      1.0000 0.53170  0.59220  0.88300  Biso   1.000  C
  N45      1.0000 0.72930  0.56340  0.41060  Biso   1.000  N
  C45      1.0000 0.71830  0.59220  0.36700  Biso   1.000  C
  N46      1.0000 0.72930  0.06340  0.91060  Biso   1.000  N
  C46      1.0000 0.71830  0.09220  0.86700  Biso   1.000  C
  N47      1.0000 0.22930  0.56340  0.91060  Biso   1.000  N
  C47      1.0000 0.21830  0.59220  0.86700  Biso   1.000  C
  N48      1.0000 0.22930  0.06340  0.41060  Biso   1.000  N
  C48      1.0000 0.21830  0.09220  0.36700  Biso   1.000  C
  N49      1.0000 0.27070  0.16060  0.81340  Biso   1.000  N
  C49      1.0000 0.28170  0.11700  0.84220  Biso   1.000  C
  N50      1.0000 0.27070  0.66060  0.31340  Biso   1.000  N
  C50      1.0000 0.28170  0.61700  0.34220  Biso   1.000  C
  N51      1.0000 0.77070  0.16060  0.31340  Biso   1.000  N
  C51      1.0000 0.78170  0.11700  0.34220  Biso   1.000  C
  N52      1.0000 0.77070  0.66060  0.81340  Biso   1.000  N
  C52      1.0000 0.78170  0.61700  0.84220  Biso   1.000  C
  N53      1.0000 0.97930  0.58940  0.31340  Biso   1.000  N
  C53      1.0000 0.96830  0.63300  0.34220  Biso   1.000  C
  N54      1.0000 0.97930  0.08940  0.81340  Biso   1.000  N
  C54      1.0000 0.96830  0.13300  0.84220  Biso   1.000  C
  N55      1.0000 0.47930  0.58940  0.81340  Biso   1.000  N
  C55      1.0000 0.46830  0.63300  0.84220  Biso   1.000  C
  N56      1.0000 0.47930  0.08940  0.31340  Biso   1.000  N
  C56      1.0000 0.46830  0.13300  0.34220  Biso   1.000  C
  N57      1.0000 0.77070  0.08940  0.93660  Biso   1.000  N
  C57      1.0000 0.78170  0.13300  0.90780  Biso   1.000  C
  N58      1.0000 0.77070  0.58940  0.43660  Biso   1.000  N
  C58      1.0000 0.78170  0.63300  0.40780  Biso   1.000  C
  N59      1.0000 0.27070  0.08940  0.43660  Biso   1.000  N
  C59      1.0000 0.28170  0.13300  0.40780  Biso   1.000  C
  N60      1.0000 0.27070  0.58940  0.93660  Biso   1.000  N
  C60      1.0000 0.28170  0.63300  0.90780  Biso   1.000  C
  N61      1.0000 0.47930  0.66060  0.43660  Biso   1.000  N
  C61      1.0000 0.46830  0.61700  0.40780  Biso   1.000  C
  N62      1.0000 0.47930  0.16060  0.93660  Biso   1.000  N
  C62      1.0000 0.46830  0.11700  0.90780  Biso   1.000  C
  N63      1.0000 0.97930  0.66060  0.93660  Biso   1.000  N
  C63      1.0000 0.96830  0.61700  0.90780  Biso   1.000  C
  N64      1.0000 0.97930  0.16060  0.43660  Biso   1.000  N
  C64      1.0000 0.96830  0.11700  0.40780  Biso   1.000  C
  N65      1.0000 0.66060  0.43660  0.47930  Biso   1.000  N
  C65      1.0000 0.61700  0.40780  0.46830  Biso   1.000  C
  N66      1.0000 0.66060  0.93660  0.97930  Biso   1.000  N
  C66      1.0000 0.61700  0.90780  0.96830  Biso   1.000  C
  N67      1.0000 0.16060  0.43660  0.97930  Biso   1.000  N
  C67      1.0000 0.11700  0.40780  0.96830  Biso   1.000  C
  N68      1.0000 0.16060  0.93660  0.47930  Biso   1.000  N
  C68      1.0000 0.11700  0.90780  0.46830  Biso   1.000  C
  N69      1.0000 0.08940  0.93660  0.77070  Biso   1.000  N
  C69      1.0000 0.13300  0.90780  0.78170  Biso   1.000  C
  N70      1.0000 0.08940  0.43660  0.27070  Biso   1.000  N
  C70      1.0000 0.13300  0.40780  0.28170  Biso   1.000  C
  N71      1.0000 0.58940  0.93660  0.27070  Biso   1.000  N
  C71      1.0000 0.63300  0.90780  0.28170  Biso   1.000  C
  N72      1.0000 0.58940  0.43660  0.77070  Biso   1.000  N
  C72      1.0000 0.63300  0.40780  0.78170  Biso   1.000  C
  N73      1.0000 0.58940  0.31340  0.97930  Biso   1.000  N
  C73      1.0000 0.63300  0.34220  0.96830  Biso   1.000  C
  N74      1.0000 0.58940  0.81340  0.47930  Biso   1.000  N
  C74      1.0000 0.63300  0.84220  0.46830  Biso   1.000  C
  N75      1.0000 0.08940  0.31340  0.47930  Biso   1.000  N
  C75      1.0000 0.13300  0.34220  0.46830  Biso   1.000  C
  N76      1.0000 0.08940  0.81340  0.97930  Biso   1.000  N
  C76      1.0000 0.13300  0.84220  0.96830  Biso   1.000  C
  N77      1.0000 0.16060  0.81340  0.27070  Biso   1.000  N
  C77      1.0000 0.11700  0.84220  0.28170  Biso   1.000  C
  N78      1.0000 0.16060  0.31340  0.77070  Biso   1.000  N
  C78      1.0000 0.11700  0.34220  0.78170  Biso   1.000  C
  N79      1.0000 0.66060  0.81340  0.77070  Biso   1.000  N
  C79      1.0000 0.61700  0.84220  0.78170  Biso   1.000  C
  N80      1.0000 0.66060  0.31340  0.27070  Biso   1.000  N
  C80      1.0000 0.61700  0.34220  0.28170  Biso   1.000  C
  N81      1.0000 0.93660  0.77070  0.08940  Biso   1.000  N
  C81      1.0000 0.90780  0.78170  0.13300  Biso   1.000  C
  N82      1.0000 0.93660  0.27070  0.58940  Biso   1.000  N
  C82      1.0000 0.90780  0.28170  0.63300  Biso   1.000  C
  N83      1.0000 0.43660  0.77070  0.58940  Biso   1.000  N
  C83      1.0000 0.40780  0.78170  0.63300  Biso   1.000  C
  N84      1.0000 0.43660  0.27070  0.08940  Biso   1.000  N
  C84      1.0000 0.40780  0.28170  0.13300  Biso   1.000  C
  N85      1.0000 0.43660  0.47930  0.66060  Biso   1.000  N
  C85      1.0000 0.40780  0.46830  0.61700  Biso   1.000  C
  N86      1.0000 0.43660  0.97930  0.16060  Biso   1.000  N
  C86      1.0000 0.40780  0.96830  0.11700  Biso   1.000  C
  N87      1.0000 0.93660  0.47930  0.16060  Biso   1.000  N
  C87      1.0000 0.90780  0.46830  0.11700  Biso   1.000  C
  N88      1.0000 0.93660  0.97930  0.66060  Biso   1.000  N
  C88      1.0000 0.90780  0.96830  0.61700  Biso   1.000  C
  N89      1.0000 0.81340  0.27070  0.16060  Biso   1.000  N
  C89      1.0000 0.84220  0.28170  0.11700  Biso   1.000  C
  N90      1.0000 0.81340  0.77070  0.66060  Biso   1.000  N
  C90      1.0000 0.84220  0.78170  0.61700  Biso   1.000  C
  N91      1.0000 0.31340  0.27070  0.66060  Biso   1.000  N
  C91      1.0000 0.34220  0.28170  0.61700  Biso   1.000  C
  N92      1.0000 0.31340  0.77070  0.16060  Biso   1.000  N
  C92      1.0000 0.34220  0.78170  0.11700  Biso   1.000  C
  N93      1.0000 0.31340  0.97930  0.58940  Biso   1.000  N
  C93      1.0000 0.34220  0.96830  0.63300  Biso   1.000  C
  N94      1.0000 0.31340  0.47930  0.08940  Biso   1.000  N
  C94      1.0000 0.34220  0.46830  0.13300  Biso   1.000  C
  N95      1.0000 0.81340  0.97930  0.08940  Biso   1.000  N
  C95      1.0000 0.84220  0.96830  0.13300  Biso   1.000  C
  N96      1.0000 0.81340  0.47930  0.58940  Biso   1.000  N
  C96      1.0000 0.84220  0.46830  0.63300  Biso   1.000  C
  N97      1.0000 0.08940  0.47930  0.81340  Biso   1.000  N
  C97      1.0000 0.13300  0.46830  0.84220  Biso   1.000  C
  N98      1.0000 0.08940  0.97930  0.31340  Biso   1.000  N
  C98      1.0000 0.13300  0.96830  0.34220  Biso   1.000  C
  N99      1.0000 0.58940  0.47930  0.31340  Biso   1.000  N
  C99      1.0000 0.63300  0.46830  0.34220  Biso   1.000  C
  N100     1.0000 0.58940  0.97930  0.81340  Biso   1.000  N
  C100     1.0000 0.63300  0.96830  0.84220  Biso   1.000  C
  N101     1.0000 0.66060  0.77070  0.31340  Biso   1.000  N
  C101     1.0000 0.61700  0.78170  0.34220  Biso   1.000  C
  N102     1.0000 0.66060  0.27070  0.81340  Biso   1.000  N
  C102     1.0000 0.61700  0.28170  0.84220  Biso   1.000  C
  N103     1.0000 0.16060  0.77070  0.81340  Biso   1.000  N
  C103     1.0000 0.11700  0.78170  0.84220  Biso   1.000  C
  N104     1.0000 0.16060  0.27070  0.31340  Biso   1.000  N
  C104     1.0000 0.11700  0.28170  0.34220  Biso   1.000  C
  N105     1.0000 0.16060  0.97930  0.93660  Biso   1.000  N
  C105     1.0000 0.11700  0.96830  0.90780  Biso   1.000  C
  N106     1.0000 0.16060  0.47930  0.43660  Biso   1.000  N
  C106     1.0000 0.11700  0.46830  0.40780  Biso   1.000  C
  N107     1.0000 0.66060  0.97930  0.43660  Biso   1.000  N
  C107     1.0000 0.61700  0.96830  0.40780  Biso   1.000  C
  N108     1.0000 0.66060  0.47930  0.93660  Biso   1.000  N
  C108     1.0000 0.61700  0.46830  0.90780  Biso   1.000  C
  N109     1.0000 0.58940  0.27070  0.43660  Biso   1.000  N
  C109     1.0000 0.63300  0.28170  0.40780  Biso   1.000  C
  N110     1.0000 0.58940  0.77070  0.93660  Biso   1.000  N
  C110     1.0000 0.63300  0.78170  0.90780  Biso   1.000  C
  N111     1.0000 0.08940  0.27070  0.93660  Biso   1.000  N
  C111     1.0000 0.13300  0.28170  0.90780  Biso   1.000  C
  N112     1.0000 0.08940  0.77070  0.43660  Biso   1.000  N
  C112     1.0000 0.13300  0.78170  0.40780  Biso   1.000  C
  N113     1.0000 0.81340  0.08940  0.47930  Biso   1.000  N
  C113     1.0000 0.84220  0.13300  0.46830  Biso   1.000  C
  N114     1.0000 0.81340  0.58940  0.97930  Biso   1.000  N
  C114     1.0000 0.84220  0.63300  0.96830  Biso   1.000  C
  N115     1.0000 0.31340  0.08940  0.97930  Biso   1.000  N
  C115     1.0000 0.34220  0.13300  0.96830  Biso   1.000  C
  N116     1.0000 0.31340  0.58940  0.47930  Biso   1.000  N
  C116     1.0000 0.34220  0.63300  0.46830  Biso   1.000  C
  N117     1.0000 0.31340  0.66060  0.77070  Biso   1.000  N
  C117     1.0000 0.34220  0.61700  0.78170  Biso   1.000  C
  N118     1.0000 0.31340  0.16060  0.27070  Biso   1.000  N
  C118     1.0000 0.34220  0.11700  0.28170  Biso   1.000  C
  N119     1.0000 0.81340  0.66060  0.27070  Biso   1.000  N
  C119     1.0000 0.84220  0.61700  0.28170  Biso   1.000  C
  N120     1.0000 0.81340  0.16060  0.77070  Biso   1.000  N
  C120     1.0000 0.84220  0.11700  0.78170  Biso   1.000  C
  N121     1.0000 0.93660  0.16060  0.97930  Biso   1.000  N
  C121     1.0000 0.90780  0.11700  0.96830  Biso   1.000  C
  N122     1.0000 0.93660  0.66060  0.47930  Biso   1.000  N
  C122     1.0000 0.90780  0.61700  0.46830  Biso   1.000  C
  N123     1.0000 0.43660  0.16060  0.47930  Biso   1.000  N
  C123     1.0000 0.40780  0.11700  0.46830  Biso   1.000  C
  N124     1.0000 0.43660  0.66060  0.97930  Biso   1.000  N
  C124     1.0000 0.40780  0.61700  0.96830  Biso   1.000  C
  N125     1.0000 0.43660  0.58940  0.27070  Biso   1.000  N
  C125     1.0000 0.40780  0.63300  0.28170  Biso   1.000  C
  N126     1.0000 0.43660  0.08940  0.77070  Biso   1.000  N
  C126     1.0000 0.40780  0.13300  0.78170  Biso   1.000  C
  N127     1.0000 0.93660  0.58940  0.77070  Biso   1.000  N
  C127     1.0000 0.90780  0.63300  0.78170  Biso   1.000  C
  N128     1.0000 0.93660  0.08940  0.27070  Biso   1.000  N
  C128     1.0000 0.90780  0.13300  0.28170  Biso   1.000  C
  N129     1.0000 0.47930  0.81340  0.08940  Biso   1.000  N
  C129     1.0000 0.46830  0.84220  0.13300  Biso   1.000  C
  N130     1.0000 0.47930  0.31340  0.58940  Biso   1.000  N
  C130     1.0000 0.46830  0.34220  0.63300  Biso   1.000  C
  N131     1.0000 0.97930  0.81340  0.58940  Biso   1.000  N
  C131     1.0000 0.96830  0.84220  0.63300  Biso   1.000  C
  N132     1.0000 0.97930  0.31340  0.08940  Biso   1.000  N
  C132     1.0000 0.96830  0.34220  0.13300  Biso   1.000  C
  N133     1.0000 0.77070  0.31340  0.66060  Biso   1.000  N
  C133     1.0000 0.78170  0.34220  0.61700  Biso   1.000  C
  N134     1.0000 0.77070  0.81340  0.16060  Biso   1.000  N
  C134     1.0000 0.78170  0.84220  0.11700  Biso   1.000  C
  N135     1.0000 0.27070  0.31340  0.16060  Biso   1.000  N
  C135     1.0000 0.28170  0.34220  0.11700  Biso   1.000  C
  N136     1.0000 0.27070  0.81340  0.66060  Biso   1.000  N
  C136     1.0000 0.28170  0.84220  0.61700  Biso   1.000  C
  N137     1.0000 0.97930  0.93660  0.16060  Biso   1.000  N
  C137     1.0000 0.96830  0.90780  0.11700  Biso   1.000  C
  N138     1.0000 0.97930  0.43660  0.66060  Biso   1.000  N
  C138     1.0000 0.96830  0.40780  0.61700  Biso   1.000  C
  N139     1.0000 0.47930  0.93660  0.66060  Biso   1.000  N
  C139     1.0000 0.46830  0.90780  0.61700  Biso   1.000  C
  N140     1.0000 0.47930  0.43660  0.16060  Biso   1.000  N
  C140     1.0000 0.46830  0.40780  0.11700  Biso   1.000  C
  N141     1.0000 0.27070  0.43660  0.58940  Biso   1.000  N
  C141     1.0000 0.28170  0.40780  0.63300  Biso   1.000  C
  N142     1.0000 0.27070  0.93660  0.08940  Biso   1.000  N
  C142     1.0000 0.28170  0.90780  0.13300  Biso   1.000  C
  N143     1.0000 0.77070  0.43660  0.08940  Biso   1.000  N
  C143     1.0000 0.78170  0.40780  0.13300  Biso   1.000  C
  N144     1.0000 0.77070  0.93660  0.58940  Biso   1.000  N
  C144     1.0000 0.78170  0.90780  0.63300  Biso   1.000  C
  N145     1.0000 0.72930  0.83940  0.18660  Biso   1.000  N
  C145     1.0000 0.71830  0.88300  0.15780  Biso   1.000  C
  N146     1.0000 0.72930  0.33940  0.68660  Biso   1.000  N
  C146     1.0000 0.71830  0.38300  0.65780  Biso   1.000  C
  N147     1.0000 0.22930  0.83940  0.68660  Biso   1.000  N
  C147     1.0000 0.21830  0.88300  0.65780  Biso   1.000  C
  N148     1.0000 0.22930  0.33940  0.18660  Biso   1.000  N
  C148     1.0000 0.21830  0.38300  0.15780  Biso   1.000  C
  N149     1.0000 0.02070  0.41060  0.68660  Biso   1.000  N
  C149     1.0000 0.03170  0.36700  0.65780  Biso   1.000  C
  N150     1.0000 0.02070  0.91060  0.18660  Biso   1.000  N
  C150     1.0000 0.03170  0.86700  0.15780  Biso   1.000  C
  N151     1.0000 0.52070  0.41060  0.18660  Biso   1.000  N
  C151     1.0000 0.53170  0.36700  0.15780  Biso   1.000  C
  N152     1.0000 0.52070  0.91060  0.68660  Biso   1.000  N
  C152     1.0000 0.53170  0.86700  0.65780  Biso   1.000  C
  N153     1.0000 0.22930  0.91060  0.06340  Biso   1.000  N
  C153     1.0000 0.21830  0.86700  0.09220  Biso   1.000  C
  N154     1.0000 0.22930  0.41060  0.56340  Biso   1.000  N
  C154     1.0000 0.21830  0.36700  0.59220  Biso   1.000  C
  N155     1.0000 0.72930  0.91060  0.56340  Biso   1.000  N
  C155     1.0000 0.71830  0.86700  0.59220  Biso   1.000  C
  N156     1.0000 0.72930  0.41060  0.06340  Biso   1.000  N
  C156     1.0000 0.71830  0.36700  0.09220  Biso   1.000  C
  N157     1.0000 0.52070  0.33940  0.56340  Biso   1.000  N
  C157     1.0000 0.53170  0.38300  0.59220  Biso   1.000  C
  N158     1.0000 0.52070  0.83940  0.06340  Biso   1.000  N
  C158     1.0000 0.53170  0.88300  0.09220  Biso   1.000  C
  N159     1.0000 0.02070  0.33940  0.06340  Biso   1.000  N
  C159     1.0000 0.03170  0.38300  0.09220  Biso   1.000  C
  N160     1.0000 0.02070  0.83940  0.56340  Biso   1.000  N
  C160     1.0000 0.03170  0.88300  0.59220  Biso   1.000  C
  N161     1.0000 0.33940  0.56340  0.52070  Biso   1.000  N
  C161     1.0000 0.38300  0.59220  0.53170  Biso   1.000  C
  N162     1.0000 0.33940  0.06340  0.02070  Biso   1.000  N
  C162     1.0000 0.38300  0.09220  0.03170  Biso   1.000  C
  N163     1.0000 0.83940  0.56340  0.02070  Biso   1.000  N
  C163     1.0000 0.88300  0.59220  0.03170  Biso   1.000  C
  N164     1.0000 0.83940  0.06340  0.52070  Biso   1.000  N
  C164     1.0000 0.88300  0.09220  0.53170  Biso   1.000  C
  N165     1.0000 0.91060  0.06340  0.22930  Biso   1.000  N
  C165     1.0000 0.86700  0.09220  0.21830  Biso   1.000  C
  N166     1.0000 0.91060  0.56340  0.72930  Biso   1.000  N
  C166     1.0000 0.86700  0.59220  0.71830  Biso   1.000  C
  N167     1.0000 0.41060  0.06340  0.72930  Biso   1.000  N
  C167     1.0000 0.36700  0.09220  0.71830  Biso   1.000  C
  N168     1.0000 0.41060  0.56340  0.22930  Biso   1.000  N
  C168     1.0000 0.36700  0.59220  0.21830  Biso   1.000  C
  N169     1.0000 0.41060  0.68660  0.02070  Biso   1.000  N
  C169     1.0000 0.36700  0.65780  0.03170  Biso   1.000  C
  N170     1.0000 0.41060  0.18660  0.52070  Biso   1.000  N
  C170     1.0000 0.36700  0.15780  0.53170  Biso   1.000  C
  N171     1.0000 0.91060  0.68660  0.52070  Biso   1.000  N
  C171     1.0000 0.86700  0.65780  0.53170  Biso   1.000  C
  N172     1.0000 0.91060  0.18660  0.02070  Biso   1.000  N
  C172     1.0000 0.86700  0.15780  0.03170  Biso   1.000  C
  N173     1.0000 0.83940  0.18660  0.72930  Biso   1.000  N
  C173     1.0000 0.88300  0.15780  0.71830  Biso   1.000  C
  N174     1.0000 0.83940  0.68660  0.22930  Biso   1.000  N
  C174     1.0000 0.88300  0.65780  0.21830  Biso   1.000  C
  N175     1.0000 0.33940  0.18660  0.22930  Biso   1.000  N
  C175     1.0000 0.38300  0.15780  0.21830  Biso   1.000  C
  N176     1.0000 0.33940  0.68660  0.72930  Biso   1.000  N
  C176     1.0000 0.38300  0.65780  0.71830  Biso   1.000  C
  N177     1.0000 0.06340  0.22930  0.91060  Biso   1.000  N
  C177     1.0000 0.09220  0.21830  0.86700  Biso   1.000  C
  N178     1.0000 0.06340  0.72930  0.41060  Biso   1.000  N
  C178     1.0000 0.09220  0.71830  0.36700  Biso   1.000  C
  N179     1.0000 0.56340  0.22930  0.41060  Biso   1.000  N
  C179     1.0000 0.59220  0.21830  0.36700  Biso   1.000  C
  N180     1.0000 0.56340  0.72930  0.91060  Biso   1.000  N
  C180     1.0000 0.59220  0.71830  0.86700  Biso   1.000  C
  N181     1.0000 0.56340  0.52070  0.33940  Biso   1.000  N
  C181     1.0000 0.59220  0.53170  0.38300  Biso   1.000  C
  N182     1.0000 0.56340  0.02070  0.83940  Biso   1.000  N
  C182     1.0000 0.59220  0.03170  0.88300  Biso   1.000  C
  N183     1.0000 0.06340  0.52070  0.83940  Biso   1.000  N
  C183     1.0000 0.09220  0.53170  0.88300  Biso   1.000  C
  N184     1.0000 0.06340  0.02070  0.33940  Biso   1.000  N
  C184     1.0000 0.09220  0.03170  0.38300  Biso   1.000  C
  N185     1.0000 0.18660  0.72930  0.83940  Biso   1.000  N
  C185     1.0000 0.15780  0.71830  0.88300  Biso   1.000  C
  N186     1.0000 0.18660  0.22930  0.33940  Biso   1.000  N
  C186     1.0000 0.15780  0.21830  0.38300  Biso   1.000  C
  N187     1.0000 0.68660  0.72930  0.33940  Biso   1.000  N
  C187     1.0000 0.65780  0.71830  0.38300  Biso   1.000  C
  N188     1.0000 0.68660  0.22930  0.83940  Biso   1.000  N
  C188     1.0000 0.65780  0.21830  0.88300  Biso   1.000  C
  N189     1.0000 0.68660  0.02070  0.41060  Biso   1.000  N
  C189     1.0000 0.65780  0.03170  0.36700  Biso   1.000  C
  N190     1.0000 0.68660  0.52070  0.91060  Biso   1.000  N
  C190     1.0000 0.65780  0.53170  0.86700  Biso   1.000  C
  N191     1.0000 0.18660  0.02070  0.91060  Biso   1.000  N
  C191     1.0000 0.15780  0.03170  0.86700  Biso   1.000  C
  N192     1.0000 0.18660  0.52070  0.41060  Biso   1.000  N
  C192     1.0000 0.15780  0.53170  0.36700  Biso   1.000  C
  Cu1      1.0000 0.80650  0.50000  0.05650  Biso   1.000  Cu
  N193     1.0000 0.86360  0.50000  0.11360  Biso   1.000  N
  Cu2      1.0000 0.80650  0.00000  0.55650  Biso   1.000  Cu
  N194     1.0000 0.86360  0.00000  0.61360  Biso   1.000  N
  Cu3      1.0000 0.44350  0.25000  0.55650  Biso   1.000  Cu
  N195     1.0000 0.38640  0.25000  0.61360  Biso   1.000  N
  Cu4      1.0000 0.44350  0.75000  0.05650  Biso   1.000  Cu
  N196     1.0000 0.38640  0.75000  0.11360  Biso   1.000  N
  Cu5      1.0000 0.94350  0.00000  0.19350  Biso   1.000  Cu
  N197     1.0000 0.88640  0.00000  0.13640  Biso   1.000  N
  Cu6      1.0000 0.94350  0.50000  0.69350  Biso   1.000  Cu
  N198     1.0000 0.88640  0.50000  0.63640  Biso   1.000  N
  Cu7      1.0000 0.30650  0.75000  0.69350  Biso   1.000  Cu
  N199     1.0000 0.36360  0.75000  0.63640  Biso   1.000  N
  Cu8      1.0000 0.30650  0.25000  0.19350  Biso   1.000  Cu
  N200     1.0000 0.36360  0.25000  0.13640  Biso   1.000  N
  Cu9      1.0000 0.05650  0.80650  0.50000  Biso   1.000  Cu
  N201     1.0000 0.11360  0.86360  0.50000  Biso   1.000  N
  Cu10     1.0000 0.05650  0.30650  0.00000  Biso   1.000  Cu
  N202     1.0000 0.11360  0.36360  0.00000  Biso   1.000  N
  Cu11     1.0000 0.55650  0.44350  0.25000  Biso   1.000  Cu
  N203     1.0000 0.61360  0.38640  0.25000  Biso   1.000  N
  Cu12     1.0000 0.55650  0.94350  0.75000  Biso   1.000  Cu
  N204     1.0000 0.61360  0.88640  0.75000  Biso   1.000  N
  Cu13     1.0000 0.19350  0.94350  0.00000  Biso   1.000  Cu
  N205     1.0000 0.13640  0.88640  0.00000  Biso   1.000  N
  Cu14     1.0000 0.19350  0.44350  0.50000  Biso   1.000  Cu
  N206     1.0000 0.13640  0.38640  0.50000  Biso   1.000  N
  Cu15     1.0000 0.69350  0.30650  0.75000  Biso   1.000  Cu
  N207     1.0000 0.63640  0.36360  0.75000  Biso   1.000  N
  Cu16     1.0000 0.69350  0.80650  0.25000  Biso   1.000  Cu
  N208     1.0000 0.63640  0.86360  0.25000  Biso   1.000  N
  Cu17     1.0000 0.50000  0.05650  0.80650  Biso   1.000  Cu
  N209     1.0000 0.50000  0.11360  0.86360  Biso   1.000  N
  Cu18     1.0000 0.00000  0.05650  0.30650  Biso   1.000  Cu
  N210     1.0000 0.00000  0.11360  0.36360  Biso   1.000  N
  Cu19     1.0000 0.25000  0.55650  0.44350  Biso   1.000  Cu
  N211     1.0000 0.25000  0.61360  0.38640  Biso   1.000  N
  Cu20     1.0000 0.75000  0.55650  0.94350  Biso   1.000  Cu
  N212     1.0000 0.75000  0.61360  0.88640  Biso   1.000  N
  Cu21     1.0000 0.00000  0.19350  0.94350  Biso   1.000  Cu
  N213     1.0000 0.00000  0.13640  0.88640  Biso   1.000  N
  Cu22     1.0000 0.50000  0.19350  0.44350  Biso   1.000  Cu
  N214     1.0000 0.50000  0.13640  0.38640  Biso   1.000  N
  Cu23     1.0000 0.75000  0.69350  0.30650  Biso   1.000  Cu
  N215     1.0000 0.75000  0.63640  0.36360  Biso   1.000  N
  Cu24     1.0000 0.25000  0.69350  0.80650  Biso   1.000  Cu
  N216     1.0000 0.25000  0.63640  0.86360  Biso   1.000  N
  Cu25     1.0000 0.25000  0.05650  0.94350  Biso   1.000  Cu
  N217     1.0000 0.25000  0.11360  0.88640  Biso   1.000  N
  Cu26     1.0000 0.75000  0.05650  0.44350  Biso   1.000  Cu
  N218     1.0000 0.75000  0.11360  0.38640  Biso   1.000  N
  Cu27     1.0000 0.00000  0.69350  0.44350  Biso   1.000  Cu
  N219     1.0000 0.00000  0.63640  0.38640  Biso   1.000  N
  Cu28     1.0000 0.50000  0.69350  0.94350  Biso   1.000  Cu
  N220     1.0000 0.50000  0.63640  0.88640  Biso   1.000  N
  Cu29     1.0000 0.75000  0.19350  0.80650  Biso   1.000  Cu
  N221     1.0000 0.75000  0.13640  0.86360  Biso   1.000  N
  Cu30     1.0000 0.25000  0.19350  0.30650  Biso   1.000  Cu
  N222     1.0000 0.25000  0.13640  0.36360  Biso   1.000  N
  Cu31     1.0000 0.50000  0.55650  0.30650  Biso   1.000  Cu
  N223     1.0000 0.50000  0.61360  0.36360  Biso   1.000  N
  Cu32     1.0000 0.00000  0.55650  0.80650  Biso   1.000  Cu
  N224     1.0000 0.00000  0.61360  0.86360  Biso   1.000  N
  Cu33     1.0000 0.55650  0.30650  0.50000  Biso   1.000  Cu
  N225     1.0000 0.61360  0.36360  0.50000  Biso   1.000  N
  Cu34     1.0000 0.55650  0.80650  0.00000  Biso   1.000  Cu
  N226     1.0000 0.61360  0.86360  0.00000  Biso   1.000  N
  Cu35     1.0000 0.19350  0.80650  0.75000  Biso   1.000  Cu
  N227     1.0000 0.13640  0.86360  0.75000  Biso   1.000  N
  Cu36     1.0000 0.19350  0.30650  0.25000  Biso   1.000  Cu
  N228     1.0000 0.13640  0.36360  0.25000  Biso   1.000  N
  Cu37     1.0000 0.69350  0.44350  0.00000  Biso   1.000  Cu
  N229     1.0000 0.63640  0.38640  0.00000  Biso   1.000  N
  Cu38     1.0000 0.69350  0.94350  0.50000  Biso   1.000  Cu
  N230     1.0000 0.63640  0.88640  0.50000  Biso   1.000  N
  Cu39     1.0000 0.05650  0.94350  0.25000  Biso   1.000  Cu
  N231     1.0000 0.11360  0.88640  0.25000  Biso   1.000  N
  Cu40     1.0000 0.05650  0.44350  0.75000  Biso   1.000  Cu
  N232     1.0000 0.11360  0.38640  0.75000  Biso   1.000  N
  Cu41     1.0000 0.80650  0.75000  0.19350  Biso   1.000  Cu
  N233     1.0000 0.86360  0.75000  0.13640  Biso   1.000  N
  Cu42     1.0000 0.80650  0.25000  0.69350  Biso   1.000  Cu
  N234     1.0000 0.86360  0.25000  0.63640  Biso   1.000  N
  Cu43     1.0000 0.30650  0.50000  0.55650  Biso   1.000  Cu
  N235     1.0000 0.36360  0.50000  0.61360  Biso   1.000  N
  Cu44     1.0000 0.30650  0.00000  0.05650  Biso   1.000  Cu
  N236     1.0000 0.36360  0.00000  0.11360  Biso   1.000  N
  Cu45     1.0000 0.94350  0.25000  0.05650  Biso   1.000  Cu
  N237     1.0000 0.88640  0.25000  0.11360  Biso   1.000  N
  Cu46     1.0000 0.94350  0.75000  0.55650  Biso   1.000  Cu
  N238     1.0000 0.88640  0.75000  0.61360  Biso   1.000  N
  Cu47     1.0000 0.44350  0.00000  0.69350  Biso   1.000  Cu
  N239     1.0000 0.38640  0.00000  0.63640  Biso   1.000  N
  Cu48     1.0000 0.44350  0.50000  0.19350  Biso   1.000  Cu
  N240     1.0000 0.38640  0.50000  0.13640  Biso   1.000  N
  Cu49     1.0000 0.19350  0.50000  0.94350  Biso   1.000  Cu
  N241     1.0000 0.13640  0.50000  0.88640  Biso   1.000  N
  Cu50     1.0000 0.19350  0.00000  0.44350  Biso   1.000  Cu
  N242     1.0000 0.13640  0.00000  0.38640  Biso   1.000  N
  Cu51     1.0000 0.55650  0.75000  0.44350  Biso   1.000  Cu
  N243     1.0000 0.61360  0.75000  0.38640  Biso   1.000  N
  Cu52     1.0000 0.55650  0.25000  0.94350  Biso   1.000  Cu
  N244     1.0000 0.61360  0.25000  0.88640  Biso   1.000  N
  Cu53     1.0000 0.05650  0.00000  0.80650  Biso   1.000  Cu
  N245     1.0000 0.11360  0.00000  0.86360  Biso   1.000  N
  Cu54     1.0000 0.05650  0.50000  0.30650  Biso   1.000  Cu
  N246     1.0000 0.11360  0.50000  0.36360  Biso   1.000  N
  Cu55     1.0000 0.69350  0.25000  0.30650  Biso   1.000  Cu
  N247     1.0000 0.63640  0.25000  0.36360  Biso   1.000  N
  Cu56     1.0000 0.69350  0.75000  0.80650  Biso   1.000  Cu
  N248     1.0000 0.63640  0.75000  0.86360  Biso   1.000  N
  Cu57     1.0000 0.94350  0.19350  0.50000  Biso   1.000  Cu
  N249     1.0000 0.88640  0.13640  0.50000  Biso   1.000  N
  Cu58     1.0000 0.94350  0.69350  0.00000  Biso   1.000  Cu
  N250     1.0000 0.88640  0.63640  0.00000  Biso   1.000  N
  Cu59     1.0000 0.44350  0.55650  0.75000  Biso   1.000  Cu
  N251     1.0000 0.38640  0.61360  0.75000  Biso   1.000  N
  Cu60     1.0000 0.44350  0.05650  0.25000  Biso   1.000  Cu
  N252     1.0000 0.38640  0.11360  0.25000  Biso   1.000  N
  Cu61     1.0000 0.80650  0.05650  0.00000  Biso   1.000  Cu
  N253     1.0000 0.86360  0.11360  0.00000  Biso   1.000  N
  Cu62     1.0000 0.80650  0.55650  0.50000  Biso   1.000  Cu
  N254     1.0000 0.86360  0.61360  0.50000  Biso   1.000  N
  Cu63     1.0000 0.30650  0.69350  0.25000  Biso   1.000  Cu
  N255     1.0000 0.36360  0.63640  0.25000  Biso   1.000  N
  Cu64     1.0000 0.30650  0.19350  0.75000  Biso   1.000  Cu
  N256     1.0000 0.36360  0.13640  0.75000  Biso   1.000  N
  Cu65     1.0000 0.50000  0.94350  0.19350  Biso   1.000  Cu
  N257     1.0000 0.50000  0.88640  0.13640  Biso   1.000  N
  Cu66     1.0000 0.00000  0.94350  0.69350  Biso   1.000  Cu
  N258     1.0000 0.00000  0.88640  0.63640  Biso   1.000  N
  Cu67     1.0000 0.75000  0.44350  0.55650  Biso   1.000  Cu
  N259     1.0000 0.75000  0.38640  0.61360  Biso   1.000  N
  Cu68     1.0000 0.25000  0.44350  0.05650  Biso   1.000  Cu
  N260     1.0000 0.25000  0.38640  0.11360  Biso   1.000  N
  Cu69     1.0000 0.00000  0.80650  0.05650  Biso   1.000  Cu
  N261     1.0000 0.00000  0.86360  0.11360  Biso   1.000  N
  Cu70     1.0000 0.50000  0.80650  0.55650  Biso   1.000  Cu
  N262     1.0000 0.50000  0.86360  0.61360  Biso   1.000  N
  Cu71     1.0000 0.25000  0.30650  0.69350  Biso   1.000  Cu
  N263     1.0000 0.25000  0.36360  0.63640  Biso   1.000  N
  Cu72     1.0000 0.75000  0.30650  0.19350  Biso   1.000  Cu
  N264     1.0000 0.75000  0.36360  0.13640  Biso   1.000  N
  Cu73     1.0000 0.75000  0.94350  0.05650  Biso   1.000  Cu
  N265     1.0000 0.75000  0.88640  0.11360  Biso   1.000  N
  Cu74     1.0000 0.25000  0.94350  0.55650  Biso   1.000  Cu
  N266     1.0000 0.25000  0.88640  0.61360  Biso   1.000  N
  Cu75     1.0000 0.00000  0.30650  0.55650  Biso   1.000  Cu
  N267     1.0000 0.00000  0.36360  0.61360  Biso   1.000  N
  Cu76     1.0000 0.50000  0.30650  0.05650  Biso   1.000  Cu
  N268     1.0000 0.50000  0.36360  0.11360  Biso   1.000  N
  Cu77     1.0000 0.25000  0.80650  0.19350  Biso   1.000  Cu
  N269     1.0000 0.25000  0.86360  0.13640  Biso   1.000  N
  Cu78     1.0000 0.75000  0.80650  0.69350  Biso   1.000  Cu
  N270     1.0000 0.75000  0.86360  0.63640  Biso   1.000  N
  Cu79     1.0000 0.50000  0.44350  0.69350  Biso   1.000  Cu
  N271     1.0000 0.50000  0.38640  0.63640  Biso   1.000  N
  Cu80     1.0000 0.00000  0.44350  0.19350  Biso   1.000  Cu
  N272     1.0000 0.00000  0.38640  0.13640  Biso   1.000  N
  Cu81     1.0000 0.44350  0.69350  0.50000  Biso   1.000  Cu
  N273     1.0000 0.38640  0.63640  0.50000  Biso   1.000  N
  Cu82     1.0000 0.44350  0.19350  0.00000  Biso   1.000  Cu
  N274     1.0000 0.38640  0.13640  0.00000  Biso   1.000  N
  Cu83     1.0000 0.80650  0.19350  0.25000  Biso   1.000  Cu
  N275     1.0000 0.86360  0.13640  0.25000  Biso   1.000  N
  Cu84     1.0000 0.80650  0.69350  0.75000  Biso   1.000  Cu
  N276     1.0000 0.86360  0.63640  0.75000  Biso   1.000  N
  Cu85     1.0000 0.30650  0.55650  0.00000  Biso   1.000  Cu
  N277     1.0000 0.36360  0.61360  0.00000  Biso   1.000  N
  Cu86     1.0000 0.30650  0.05650  0.50000  Biso   1.000  Cu
  N278     1.0000 0.36360  0.11360  0.50000  Biso   1.000  N
  Cu87     1.0000 0.94350  0.05650  0.75000  Biso   1.000  Cu
  N279     1.0000 0.88640  0.11360  0.75000  Biso   1.000  N
  Cu88     1.0000 0.94350  0.55650  0.25000  Biso   1.000  Cu
  N280     1.0000 0.88640  0.61360  0.25000  Biso   1.000  N
  Cu89     1.0000 0.19350  0.25000  0.80650  Biso   1.000  Cu
  N281     1.0000 0.13640  0.25000  0.86360  Biso   1.000  N
  Cu90     1.0000 0.19350  0.75000  0.30650  Biso   1.000  Cu
  N282     1.0000 0.13640  0.75000  0.36360  Biso   1.000  N
  Cu91     1.0000 0.69350  0.50000  0.44350  Biso   1.000  Cu
  N283     1.0000 0.63640  0.50000  0.38640  Biso   1.000  N
  Cu92     1.0000 0.69350  0.00000  0.94350  Biso   1.000  Cu
  N284     1.0000 0.63640  0.00000  0.88640  Biso   1.000  N
  Cu93     1.0000 0.05650  0.75000  0.94350  Biso   1.000  Cu
  N285     1.0000 0.11360  0.75000  0.88640  Biso   1.000  N
  Cu94     1.0000 0.05650  0.25000  0.44350  Biso   1.000  Cu
  N286     1.0000 0.11360  0.25000  0.38640  Biso   1.000  N
  Cu95     1.0000 0.55650  0.00000  0.30650  Biso   1.000  Cu
  N287     1.0000 0.61360  0.00000  0.36360  Biso   1.000  N
  Cu96     1.0000 0.55650  0.50000  0.80650  Biso   1.000  Cu
  N288     1.0000 0.61360  0.50000  0.86360  Biso   1.000  N
  O1       1.0000 0.75000  0.50000  0.00000  Biso   1.000  O
  O2       1.0000 0.75000  0.00000  0.50000  Biso   1.000  O
  O3       1.0000 0.50000  0.25000  0.50000  Biso   1.000  O
  O4       1.0000 0.50000  0.75000  0.00000  Biso   1.000  O
  O5       1.0000 0.00000  0.75000  0.50000  Biso   1.000  O
  O6       1.0000 0.00000  0.00000  0.25000  Biso   1.000  O
  O7       1.0000 0.00000  0.50000  0.75000  Biso   1.000  O
  O8       1.0000 0.25000  0.75000  0.75000  Biso   1.000  O
  O9       1.0000 0.25000  0.25000  0.25000  Biso   1.000  O
  O10      1.0000 0.50000  0.50000  0.25000  Biso   1.000  O
  O11      1.0000 0.50000  0.00000  0.75000  Biso   1.000  O
  O12      1.0000 0.25000  0.00000  0.00000  Biso   1.000  O
  O13      1.0000 0.75000  0.25000  0.75000  Biso   1.000  O
  O14      1.0000 0.25000  0.50000  0.50000  Biso   1.000  O
  O15      1.0000 0.00000  0.25000  0.00000  Biso   1.000  O
  O16      1.0000 0.75000  0.75000  0.25000  Biso   1.000  O
  O17      1.0000 0.25000  0.50000  0.00000  Biso   1.000  O
  O18      1.0000 0.25000  0.00000  0.50000  Biso   1.000  O
  O19      1.0000 0.50000  0.75000  0.50000  Biso   1.000  O
  O20      1.0000 0.50000  0.25000  0.00000  Biso   1.000  O
  O21      1.0000 0.00000  0.00000  0.75000  Biso   1.000  O
  O22      1.0000 0.00000  0.50000  0.25000  Biso   1.000  O
  O23      1.0000 0.75000  0.25000  0.25000  Biso   1.000  O
  O24      1.0000 0.75000  0.75000  0.75000  Biso   1.000  O
  O25      1.0000 0.00000  0.25000  0.50000  Biso   1.000  O
  O26      1.0000 0.50000  0.50000  0.75000  Biso   1.000  O
  O27      1.0000 0.75000  0.00000  0.00000  Biso   1.000  O
  O28      1.0000 0.25000  0.75000  0.25000  Biso   1.000  O
  O29      1.0000 0.50000  0.00000  0.25000  Biso   1.000  O
  O30      1.0000 0.75000  0.50000  0.50000  Biso   1.000  O
  O31      1.0000 0.00000  0.75000  0.00000  Biso   1.000  O
  O32      1.0000 0.25000  0.25000  0.75000  Biso   1.000  O
