data_image0
_cell_length_a       19.6796
_cell_length_b       15.5684
_cell_length_c       28.5978
_cell_angle_alpha    90
_cell_angle_beta     103.83
_cell_angle_gamma    90

_symmetry_space_group_name_H-M    "P 1"
_symmetry_int_tables_number       1

loop_
  _symmetry_equiv_pos_as_xyz
  'x, y, z'

loop_
  _atom_site_label
  _atom_site_occupancy
  _atom_site_fract_x
  _atom_site_fract_y
  _atom_site_fract_z
  _atom_site_thermal_displace_type
  _atom_site_B_iso_or_equiv
  _atom_site_type_symbol
  Sn1      1.0000 0.76711  0.72816  0.00410  Biso   1.000  Sn
  C1       1.0000 0.83910  0.75770  0.96221  Biso   1.000  C
  H1       1.0000 0.87090  0.70900  0.96280  Biso   1.000  H
  H2       1.0000 0.86620  0.80860  0.97550  Biso   1.000  H
  H3       1.0000 0.81370  0.76910  0.92890  Biso   1.000  H
  C2       1.0000 0.79930  0.65600  0.06816  Biso   1.000  C
  H4       1.0000 0.80340  0.69400  0.09600  Biso   1.000  H
  H5       1.0000 0.84470  0.62930  0.06920  Biso   1.000  H
  H6       1.0000 0.76460  0.61120  0.06900  Biso   1.000  H
  C3       1.0000 0.66290  0.77160  0.98180  Biso   1.000  C
  H7       1.0000 0.63190  0.72250  0.97110  Biso   1.000  H
  H8       1.0000 0.65900  0.81230  0.95510  Biso   1.000  H
  H9       1.0000 0.64950  0.80010  0.00880  Biso   1.000  H
  Sn2      1.0000 0.74688  0.26573  0.73531  Biso   1.000  Sn
  C4       1.0000 0.84200  0.28590  0.71489  Biso   1.000  C
  H10      1.0000 0.88000  0.29410  0.74380  Biso   1.000  H
  H11      1.0000 0.83800  0.33720  0.69450  Biso   1.000  H
  H12      1.0000 0.85230  0.23590  0.69690  Biso   1.000  H
  C5       1.0000 0.65540  0.32860  0.69592  Biso   1.000  C
  H13      1.0000 0.65020  0.38380  0.71120  Biso   1.000  H
  H14      1.0000 0.61450  0.29260  0.69560  Biso   1.000  H
  H15      1.0000 0.65930  0.33840  0.66280  Biso   1.000  H
  C6       1.0000 0.73810  0.17930  0.79092  Biso   1.000  C
  H16      1.0000 0.70700  0.13180  0.77720  Biso   1.000  H
  H17      1.0000 0.71890  0.20960  0.81490  Biso   1.000  H
  H18      1.0000 0.78450  0.15650  0.80640  Biso   1.000  H
  Sn3      1.0000 0.77380  0.67135  0.23564  Biso   1.000  Sn
  C7       1.0000 0.77000  0.75590  0.29316  Biso   1.000  C
  H19      1.0000 0.79210  0.72840  0.32390  Biso   1.000  H
  H20      1.0000 0.72120  0.76940  0.29250  Biso   1.000  H
  H21      1.0000 0.79510  0.80900  0.28970  Biso   1.000  H
  C8       1.0000 0.86970  0.64270  0.21844  Biso   1.000  C
  H22      1.0000 0.89660  0.60290  0.24240  Biso   1.000  H
  H23      1.0000 0.89650  0.69580  0.21840  Biso   1.000  H
  H24      1.0000 0.86070  0.61610  0.18650  Biso   1.000  H
  C9       1.0000 0.68190  0.61530  0.19301  Biso   1.000  C
  H25      1.0000 0.64080  0.64120  0.20120  Biso   1.000  H
  H26      1.0000 0.68220  0.55340  0.19920  Biso   1.000  H
  H27      1.0000 0.67990  0.62530  0.15890  Biso   1.000  H
  Sn4      1.0000 0.00666  0.99042  0.25378  Biso   1.000  Sn
  C10      1.0000 0.07470  0.93990  0.21359  Biso   1.000  C
  H28      1.0000 0.08720  0.88070  0.22380  Biso   1.000  H
  H29      1.0000 0.05130  0.94050  0.17930  Biso   1.000  H
  H30      1.0000 0.11720  0.97500  0.21910  Biso   1.000  H
  C11      1.0000 0.99270  0.12470  0.25614  Biso   1.000  C
  H31      1.0000 0.96950  0.13880  0.28190  Biso   1.000  H
  H32      1.0000 0.03840  0.15320  0.26240  Biso   1.000  H
  H33      1.0000 0.96380  0.14440  0.22520  Biso   1.000  H
  C12      1.0000 0.95480  0.90600  0.29170  Biso   1.000  C
  H34      1.0000 0.91600  0.87780  0.26900  Biso   1.000  H
  H35      1.0000 0.98780  0.86260  0.30840  Biso   1.000  H
  H36      1.0000 0.93650  0.93870  0.31530  Biso   1.000  H
  Fe1      1.0000 0.75887  0.96030  0.13006  Biso   1.000  Fe
  C13      1.0000 0.78479  0.89653  0.07943  Biso   1.000  C
  N1       1.0000 0.79504  0.85325  0.04927  Biso   1.000  N
  C14      1.0000 0.75737  0.85180  0.16302  Biso   1.000  C
  N2       1.0000 0.75877  0.78820  0.18335  Biso   1.000  N
  C15      1.0000 0.72978  0.02050  0.18067  Biso   1.000  C
  N3       1.0000 0.71500  0.05810  0.21110  Biso   1.000  N
  C16      1.0000 0.85469  0.97410  0.16613  Biso   1.000  C
  N4       1.0000 0.91115  0.98150  0.18887  Biso   1.000  N
  C17      1.0000 0.76473  0.07100  0.10004  Biso   1.000  C
  N5       1.0000 0.76789  0.13751  0.08367  Biso   1.000  N
  C18      1.0000 0.66310  0.94480  0.09359  Biso   1.000  C
  N6       1.0000 0.60778  0.93450  0.07007  Biso   1.000  N
  Fe2      1.0000 0.75606  0.48820  0.87520  Biso   1.000  Fe
  C19      1.0000 0.74289  0.55865  0.92754  Biso   1.000  C
  N7       1.0000 0.73849  0.60388  0.95828  Biso   1.000  N
  C20      1.0000 0.76819  0.41810  0.82242  Biso   1.000  C
  N8       1.0000 0.77044  0.37510  0.79058  Biso   1.000  N
  C21      1.0000 0.77015  0.59120  0.84098  Biso   1.000  C
  N9       1.0000 0.77615  0.65200  0.81977  Biso   1.000  N
  C22      1.0000 0.65849  0.49440  0.84153  Biso   1.000  C
  N10      1.0000 0.60190  0.49910  0.81902  Biso   1.000  N
  C23      1.0000 0.85475  0.48904  0.90715  Biso   1.000  C
  N11      1.0000 0.91269  0.49360  0.92724  Biso   1.000  N
  C24      1.0000 0.73833  0.38336  0.90685  Biso   1.000  C
  N12      1.0000 0.72760  0.32000  0.92411  Biso   1.000  N
  Sn5      1.0000 0.73289  0.22816  0.49590  Biso   1.000  Sn
  C25      1.0000 0.66090  0.25770  0.53779  Biso   1.000  C
  H37      1.0000 0.62910  0.20900  0.53720  Biso   1.000  H
  H38      1.0000 0.63380  0.30860  0.52450  Biso   1.000  H
  H39      1.0000 0.68630  0.26910  0.57110  Biso   1.000  H
  C26      1.0000 0.70070  0.15600  0.43184  Biso   1.000  C
  H40      1.0000 0.69660  0.19400  0.40400  Biso   1.000  H
  H41      1.0000 0.65530  0.12930  0.43080  Biso   1.000  H
  H42      1.0000 0.73540  0.11120  0.43100  Biso   1.000  H
  C27      1.0000 0.83710  0.27160  0.51820  Biso   1.000  C
  H43      1.0000 0.86810  0.22250  0.52890  Biso   1.000  H
  H44      1.0000 0.84100  0.31230  0.54490  Biso   1.000  H
  H45      1.0000 0.85050  0.30010  0.49120  Biso   1.000  H
  Sn6      1.0000 0.75312  0.76573  0.76469  Biso   1.000  Sn
  C28      1.0000 0.65800  0.78590  0.78511  Biso   1.000  C
  H46      1.0000 0.62000  0.79410  0.75620  Biso   1.000  H
  H47      1.0000 0.66200  0.83720  0.80550  Biso   1.000  H
  H48      1.0000 0.64770  0.73590  0.80310  Biso   1.000  H
  C29      1.0000 0.84460  0.82860  0.80408  Biso   1.000  C
  H49      1.0000 0.84980  0.88380  0.78880  Biso   1.000  H
  H50      1.0000 0.88550  0.79260  0.80440  Biso   1.000  H
  H51      1.0000 0.84070  0.83840  0.83720  Biso   1.000  H
  C30      1.0000 0.76190  0.67930  0.70908  Biso   1.000  C
  H52      1.0000 0.79300  0.63180  0.72280  Biso   1.000  H
  H53      1.0000 0.78110  0.70960  0.68510  Biso   1.000  H
  H54      1.0000 0.71550  0.65650  0.69360  Biso   1.000  H
  Sn7      1.0000 0.72620  0.17135  0.26436  Biso   1.000  Sn
  C31      1.0000 0.73000  0.25590  0.20684  Biso   1.000  C
  H55      1.0000 0.70790  0.22840  0.17610  Biso   1.000  H
  H56      1.0000 0.77880  0.26940  0.20750  Biso   1.000  H
  H57      1.0000 0.70490  0.30900  0.21030  Biso   1.000  H
  C32      1.0000 0.63030  0.14270  0.28156  Biso   1.000  C
  H58      1.0000 0.60340  0.10290  0.25760  Biso   1.000  H
  H59      1.0000 0.60350  0.19580  0.28160  Biso   1.000  H
  H60      1.0000 0.63930  0.11610  0.31350  Biso   1.000  H
  C33      1.0000 0.81810  0.11530  0.30699  Biso   1.000  C
  H61      1.0000 0.85920  0.14120  0.29880  Biso   1.000  H
  H62      1.0000 0.81780  0.05340  0.30080  Biso   1.000  H
  H63      1.0000 0.82010  0.12530  0.34110  Biso   1.000  H
  Sn8      1.0000 0.49334  0.49042  0.24622  Biso   1.000  Sn
  C34      1.0000 0.42530  0.43990  0.28641  Biso   1.000  C
  H64      1.0000 0.41280  0.38070  0.27620  Biso   1.000  H
  H65      1.0000 0.44870  0.44050  0.32070  Biso   1.000  H
  H66      1.0000 0.38280  0.47500  0.28090  Biso   1.000  H
  C35      1.0000 0.50730  0.62470  0.24386  Biso   1.000  C
  H67      1.0000 0.53050  0.63880  0.21810  Biso   1.000  H
  H68      1.0000 0.46160  0.65320  0.23760  Biso   1.000  H
  H69      1.0000 0.53620  0.64440  0.27480  Biso   1.000  H
  C36      1.0000 0.54520  0.40600  0.20830  Biso   1.000  C
  H70      1.0000 0.58400  0.37780  0.23100  Biso   1.000  H
  H71      1.0000 0.51220  0.36260  0.19160  Biso   1.000  H
  H72      1.0000 0.56350  0.43870  0.18470  Biso   1.000  H
  Fe3      1.0000 0.74113  0.46030  0.36994  Biso   1.000  Fe
  C37      1.0000 0.71521  0.39653  0.42057  Biso   1.000  C
  N13      1.0000 0.70496  0.35325  0.45073  Biso   1.000  N
  C38      1.0000 0.74263  0.35180  0.33698  Biso   1.000  C
  N14      1.0000 0.74123  0.28820  0.31665  Biso   1.000  N
  C39      1.0000 0.77022  0.52050  0.31933  Biso   1.000  C
  N15      1.0000 0.78500  0.55810  0.28890  Biso   1.000  N
  C40      1.0000 0.64531  0.47410  0.33387  Biso   1.000  C
  N16      1.0000 0.58885  0.48150  0.31113  Biso   1.000  N
  C41      1.0000 0.73527  0.57100  0.39996  Biso   1.000  C
  N17      1.0000 0.73211  0.63751  0.41633  Biso   1.000  N
  C42      1.0000 0.83690  0.44480  0.40641  Biso   1.000  C
  N18      1.0000 0.89222  0.43450  0.42993  Biso   1.000  N
  Fe4      1.0000 0.74394  0.98820  0.62480  Biso   1.000  Fe
  C43      1.0000 0.75711  0.05865  0.57246  Biso   1.000  C
  N19      1.0000 0.76151  0.10388  0.54172  Biso   1.000  N
  C44      1.0000 0.73181  0.91810  0.67758  Biso   1.000  C
  N20      1.0000 0.72956  0.87510  0.70942  Biso   1.000  N
  C45      1.0000 0.72985  0.09120  0.65902  Biso   1.000  C
  N21      1.0000 0.72385  0.15200  0.68023  Biso   1.000  N
  C46      1.0000 0.84151  0.99440  0.65847  Biso   1.000  C
  N22      1.0000 0.89810  0.99910  0.68098  Biso   1.000  N
  C47      1.0000 0.64525  0.98904  0.59285  Biso   1.000  C
  N23      1.0000 0.58731  0.99360  0.57276  Biso   1.000  N
  C48      1.0000 0.76167  0.88336  0.59315  Biso   1.000  C
  N24      1.0000 0.77240  0.82000  0.57589  Biso   1.000  N
  Sn9      1.0000 0.23289  0.27184  0.99590  Biso   1.000  Sn
  C49      1.0000 0.16090  0.24230  0.03779  Biso   1.000  C
  H73      1.0000 0.12910  0.29100  0.03720  Biso   1.000  H
  H74      1.0000 0.13380  0.19140  0.02450  Biso   1.000  H
  H75      1.0000 0.18630  0.23090  0.07110  Biso   1.000  H
  C50      1.0000 0.20070  0.34400  0.93184  Biso   1.000  C
  H76      1.0000 0.19660  0.30600  0.90400  Biso   1.000  H
  H77      1.0000 0.15530  0.37070  0.93080  Biso   1.000  H
  H78      1.0000 0.23540  0.38880  0.93100  Biso   1.000  H
  C51      1.0000 0.33710  0.22840  0.01820  Biso   1.000  C
  H79      1.0000 0.36810  0.27750  0.02890  Biso   1.000  H
  H80      1.0000 0.34100  0.18770  0.04490  Biso   1.000  H
  H81      1.0000 0.35050  0.19990  0.99120  Biso   1.000  H
  Sn10     1.0000 0.25312  0.73427  0.26469  Biso   1.000  Sn
  C52      1.0000 0.15800  0.71410  0.28511  Biso   1.000  C
  H82      1.0000 0.12000  0.70590  0.25620  Biso   1.000  H
  H83      1.0000 0.16200  0.66280  0.30550  Biso   1.000  H
  H84      1.0000 0.14770  0.76410  0.30310  Biso   1.000  H
  C53      1.0000 0.34460  0.67140  0.30408  Biso   1.000  C
  H85      1.0000 0.34980  0.61620  0.28880  Biso   1.000  H
  H86      1.0000 0.38550  0.70740  0.30440  Biso   1.000  H
  H87      1.0000 0.34070  0.66160  0.33720  Biso   1.000  H
  C54      1.0000 0.26190  0.82070  0.20908  Biso   1.000  C
  H88      1.0000 0.29300  0.86820  0.22280  Biso   1.000  H
  H89      1.0000 0.28110  0.79040  0.18510  Biso   1.000  H
  H90      1.0000 0.21550  0.84350  0.19360  Biso   1.000  H
  Sn11     1.0000 0.22620  0.32865  0.76436  Biso   1.000  Sn
  C55      1.0000 0.23000  0.24410  0.70684  Biso   1.000  C
  H91      1.0000 0.20790  0.27160  0.67610  Biso   1.000  H
  H92      1.0000 0.27880  0.23060  0.70750  Biso   1.000  H
  H93      1.0000 0.20490  0.19100  0.71030  Biso   1.000  H
  C56      1.0000 0.13030  0.35730  0.78156  Biso   1.000  C
  H94      1.0000 0.10340  0.39710  0.75760  Biso   1.000  H
  H95      1.0000 0.10350  0.30420  0.78160  Biso   1.000  H
  H96      1.0000 0.13930  0.38390  0.81350  Biso   1.000  H
  C57      1.0000 0.31810  0.38470  0.80699  Biso   1.000  C
  H97      1.0000 0.35920  0.35880  0.79880  Biso   1.000  H
  H98      1.0000 0.31780  0.44660  0.80080  Biso   1.000  H
  H99      1.0000 0.32010  0.37470  0.84110  Biso   1.000  H
  Sn12     1.0000 0.99334  0.00958  0.74622  Biso   1.000  Sn
  C58      1.0000 0.92530  0.06010  0.78641  Biso   1.000  C
  H100     1.0000 0.91280  0.11930  0.77620  Biso   1.000  H
  H101     1.0000 0.94870  0.05950  0.82070  Biso   1.000  H
  H102     1.0000 0.88280  0.02500  0.78090  Biso   1.000  H
  C59      1.0000 0.00730  0.87530  0.74386  Biso   1.000  C
  H103     1.0000 0.03050  0.86120  0.71810  Biso   1.000  H
  H104     1.0000 0.96160  0.84680  0.73760  Biso   1.000  H
  H105     1.0000 0.03620  0.85560  0.77480  Biso   1.000  H
  C60      1.0000 0.04520  0.09400  0.70830  Biso   1.000  C
  H106     1.0000 0.08400  0.12220  0.73100  Biso   1.000  H
  H107     1.0000 0.01220  0.13740  0.69160  Biso   1.000  H
  H108     1.0000 0.06350  0.06130  0.68470  Biso   1.000  H
  Fe5      1.0000 0.24113  0.03970  0.86994  Biso   1.000  Fe
  C61      1.0000 0.21521  0.10347  0.92057  Biso   1.000  C
  N25      1.0000 0.20496  0.14675  0.95073  Biso   1.000  N
  C62      1.0000 0.24263  0.14820  0.83698  Biso   1.000  C
  N26      1.0000 0.24123  0.21180  0.81665  Biso   1.000  N
  C63      1.0000 0.27022  0.97950  0.81933  Biso   1.000  C
  N27      1.0000 0.28500  0.94190  0.78890  Biso   1.000  N
  C64      1.0000 0.14531  0.02590  0.83387  Biso   1.000  C
  N28      1.0000 0.08885  0.01850  0.81113  Biso   1.000  N
  C65      1.0000 0.23527  0.92900  0.89996  Biso   1.000  C
  N29      1.0000 0.23211  0.86249  0.91633  Biso   1.000  N
  C66      1.0000 0.33690  0.05520  0.90641  Biso   1.000  C
  N30      1.0000 0.39222  0.06550  0.92993  Biso   1.000  N
  Fe6      1.0000 0.24394  0.51180  0.12480  Biso   1.000  Fe
  C67      1.0000 0.25711  0.44135  0.07246  Biso   1.000  C
  N31      1.0000 0.26151  0.39612  0.04172  Biso   1.000  N
  C68      1.0000 0.23181  0.58190  0.17758  Biso   1.000  C
  N32      1.0000 0.22956  0.62490  0.20942  Biso   1.000  N
  C69      1.0000 0.22985  0.40880  0.15902  Biso   1.000  C
  N33      1.0000 0.22385  0.34800  0.18023  Biso   1.000  N
  C70      1.0000 0.34151  0.50560  0.15847  Biso   1.000  C
  N34      1.0000 0.39810  0.50090  0.18098  Biso   1.000  N
  C71      1.0000 0.14525  0.51096  0.09285  Biso   1.000  C
  N35      1.0000 0.08731  0.50640  0.07276  Biso   1.000  N
  C72      1.0000 0.26167  0.61664  0.09315  Biso   1.000  C
  N36      1.0000 0.27240  0.68000  0.07589  Biso   1.000  N
  Sn13     1.0000 0.26711  0.77184  0.50410  Biso   1.000  Sn
  C73      1.0000 0.33910  0.74230  0.46221  Biso   1.000  C
  H109     1.0000 0.37090  0.79100  0.46280  Biso   1.000  H
  H110     1.0000 0.36620  0.69140  0.47550  Biso   1.000  H
  H111     1.0000 0.31370  0.73090  0.42890  Biso   1.000  H
  C74      1.0000 0.29930  0.84400  0.56816  Biso   1.000  C
  H112     1.0000 0.30340  0.80600  0.59600  Biso   1.000  H
  H113     1.0000 0.34470  0.87070  0.56920  Biso   1.000  H
  H114     1.0000 0.26460  0.88880  0.56900  Biso   1.000  H
  C75      1.0000 0.16290  0.72840  0.48180  Biso   1.000  C
  H115     1.0000 0.13190  0.77750  0.47110  Biso   1.000  H
  H116     1.0000 0.15900  0.68770  0.45510  Biso   1.000  H
  H117     1.0000 0.14950  0.69990  0.50880  Biso   1.000  H
  Sn14     1.0000 0.24688  0.23427  0.23531  Biso   1.000  Sn
  C76      1.0000 0.34200  0.21410  0.21489  Biso   1.000  C
  H118     1.0000 0.38000  0.20590  0.24380  Biso   1.000  H
  H119     1.0000 0.33800  0.16280  0.19450  Biso   1.000  H
  H120     1.0000 0.35230  0.26410  0.19690  Biso   1.000  H
  C77      1.0000 0.15540  0.17140  0.19592  Biso   1.000  C
  H121     1.0000 0.15020  0.11620  0.21120  Biso   1.000  H
  H122     1.0000 0.11450  0.20740  0.19560  Biso   1.000  H
  H123     1.0000 0.15930  0.16160  0.16280  Biso   1.000  H
  C78      1.0000 0.23810  0.32070  0.29092  Biso   1.000  C
  H124     1.0000 0.20700  0.36820  0.27720  Biso   1.000  H
  H125     1.0000 0.21890  0.29040  0.31490  Biso   1.000  H
  H126     1.0000 0.28450  0.34350  0.30640  Biso   1.000  H
  Sn15     1.0000 0.27380  0.82865  0.73564  Biso   1.000  Sn
  C79      1.0000 0.27000  0.74410  0.79316  Biso   1.000  C
  H127     1.0000 0.29210  0.77160  0.82390  Biso   1.000  H
  H128     1.0000 0.22120  0.73060  0.79250  Biso   1.000  H
  H129     1.0000 0.29510  0.69100  0.78970  Biso   1.000  H
  C80      1.0000 0.36970  0.85730  0.71844  Biso   1.000  C
  H130     1.0000 0.39660  0.89710  0.74240  Biso   1.000  H
  H131     1.0000 0.39650  0.80420  0.71840  Biso   1.000  H
  H132     1.0000 0.36070  0.88390  0.68650  Biso   1.000  H
  C81      1.0000 0.18190  0.88470  0.69301  Biso   1.000  C
  H133     1.0000 0.14080  0.85880  0.70120  Biso   1.000  H
  H134     1.0000 0.18220  0.94660  0.69920  Biso   1.000  H
  H135     1.0000 0.17990  0.87470  0.65890  Biso   1.000  H
  Sn16     1.0000 0.50666  0.50958  0.75378  Biso   1.000  Sn
  C82      1.0000 0.57470  0.56010  0.71359  Biso   1.000  C
  H136     1.0000 0.58720  0.61930  0.72380  Biso   1.000  H
  H137     1.0000 0.55130  0.55950  0.67930  Biso   1.000  H
  H138     1.0000 0.61720  0.52500  0.71910  Biso   1.000  H
  C83      1.0000 0.49270  0.37530  0.75614  Biso   1.000  C
  H139     1.0000 0.46950  0.36120  0.78190  Biso   1.000  H
  H140     1.0000 0.53840  0.34680  0.76240  Biso   1.000  H
  H141     1.0000 0.46380  0.35560  0.72520  Biso   1.000  H
  C84      1.0000 0.45480  0.59400  0.79170  Biso   1.000  C
  H142     1.0000 0.41600  0.62220  0.76900  Biso   1.000  H
  H143     1.0000 0.48780  0.63740  0.80840  Biso   1.000  H
  H144     1.0000 0.43650  0.56130  0.81530  Biso   1.000  H
  Fe7      1.0000 0.25887  0.53970  0.63006  Biso   1.000  Fe
  C85      1.0000 0.28479  0.60347  0.57943  Biso   1.000  C
  N37      1.0000 0.29504  0.64675  0.54927  Biso   1.000  N
  C86      1.0000 0.25737  0.64820  0.66302  Biso   1.000  C
  N38      1.0000 0.25877  0.71180  0.68335  Biso   1.000  N
  C87      1.0000 0.22978  0.47950  0.68067  Biso   1.000  C
  N39      1.0000 0.21500  0.44190  0.71110  Biso   1.000  N
  C88      1.0000 0.35469  0.52590  0.66613  Biso   1.000  C
  N40      1.0000 0.41115  0.51850  0.68887  Biso   1.000  N
  C89      1.0000 0.26473  0.42900  0.60004  Biso   1.000  C
  N41      1.0000 0.26789  0.36249  0.58367  Biso   1.000  N
  C90      1.0000 0.16310  0.55520  0.59359  Biso   1.000  C
  N42      1.0000 0.10778  0.56550  0.57007  Biso   1.000  N
  Fe8      1.0000 0.25606  0.01180  0.37520  Biso   1.000  Fe
  C91      1.0000 0.24289  0.94135  0.42754  Biso   1.000  C
  N43      1.0000 0.23849  0.89612  0.45828  Biso   1.000  N
  C92      1.0000 0.26819  0.08190  0.32242  Biso   1.000  C
  N44      1.0000 0.27044  0.12490  0.29058  Biso   1.000  N
  C93      1.0000 0.27015  0.90880  0.34098  Biso   1.000  C
  N45      1.0000 0.27615  0.84800  0.31977  Biso   1.000  N
  C94      1.0000 0.15849  0.00560  0.34153  Biso   1.000  C
  N46      1.0000 0.10190  0.00090  0.31902  Biso   1.000  N
  C95      1.0000 0.35475  0.01096  0.40715  Biso   1.000  C
  N47      1.0000 0.41269  0.00640  0.42724  Biso   1.000  N
  C96      1.0000 0.23833  0.11664  0.40685  Biso   1.000  C
  N48      1.0000 0.22760  0.18000  0.42411  Biso   1.000  N
