data_QAMVEH01_clean
_audit_creation_date              2014-07-02
_audit_creation_method            'Materials Studio'
_symmetry_space_group_name_H-M    'P1'
_symmetry_Int_Tables_number       1
_symmetry_cell_setting            triclinic
loop_
_symmetry_equiv_pos_as_xyz
  x,y,z
_cell_length_a                    16.5126
_cell_length_b                    16.5126
_cell_length_c                    24.5098
_cell_angle_alpha                 90.0000
_cell_angle_beta                  90.0000
_cell_angle_gamma                 120.0000
loop_
_atom_site_label
_atom_site_type_symbol
_atom_site_fract_x
_atom_site_fract_y
_atom_site_fract_z
_atom_site_U_iso_or_equiv
_atom_site_adp_type
_atom_site_occupancy
Ce1    Ce    0.92298   0.92298   0.00000   0.01267  Uiso   1.00
Ce2    Ce    0.00000   0.07702   0.66667   0.01267  Uiso   1.00
Ce3    Ce    0.07702  -0.00000   0.33333   0.01267  Uiso   1.00
Ce4    Ce    0.07702   0.07702   0.50000   0.01267  Uiso   1.00
Ce5    Ce    0.00000   0.92298   0.16667   0.01267  Uiso   1.00
Ce6    Ce    0.92298  -0.00000   0.83333   0.01267  Uiso   1.00
H1     H     0.02230   0.68330   0.99680   0.01267  Uiso   1.00
H2     H     0.11490   0.61570   0.01100   0.01267  Uiso   1.00
H3     H     0.28110   0.82580   0.10910   0.01267  Uiso   1.00
H4     H     0.19110   0.89690   0.09600   0.01267  Uiso   1.00
H5     H     0.15180   0.53530   0.06310   0.01267  Uiso   1.00
H6     H     0.12580   0.39340   0.01700   0.01267  Uiso   1.00
H7     H     0.04450   0.23680   0.01940   0.01267  Uiso   1.00
H8     H     0.66100   0.97770   0.66347   0.01267  Uiso   1.00
H9     H     0.50080   0.88510   0.67767   0.01267  Uiso   1.00
H10    H     0.54470   0.71890   0.77577   0.01267  Uiso   1.00
H11    H     0.70580   0.80890   0.76267   0.01267  Uiso   1.00
H12    H     0.38350   0.84820   0.72977   0.01267  Uiso   1.00
H13    H     0.26760   0.87420   0.68367   0.01267  Uiso   1.00
H14    H     0.19230   0.95550   0.68607   0.01267  Uiso   1.00
H15    H     0.31670   0.33900   0.33013   0.01267  Uiso   1.00
H16    H     0.38430   0.49920   0.34433   0.01267  Uiso   1.00
H17    H     0.17420   0.45530   0.44243   0.01267  Uiso   1.00
H18    H     0.10310   0.29420   0.42933   0.01267  Uiso   1.00
H19    H     0.46470   0.61650   0.39643   0.01267  Uiso   1.00
H20    H     0.60660   0.73240   0.35033   0.01267  Uiso   1.00
H21    H     0.76320   0.80770   0.35273   0.01267  Uiso   1.00
H22    H     0.97770   0.31670   0.49680   0.01267  Uiso   1.00
H23    H     0.88510   0.38430   0.51100   0.01267  Uiso   1.00
H24    H     0.71890   0.17420   0.60910   0.01267  Uiso   1.00
H25    H     0.80890   0.10310   0.59600   0.01267  Uiso   1.00
H26    H     0.84820   0.46470   0.56310   0.01267  Uiso   1.00
H27    H     0.87420   0.60660   0.51700   0.01267  Uiso   1.00
H28    H     0.95550   0.76320   0.51940   0.01267  Uiso   1.00
H29    H     0.33900   0.02230   0.16347   0.01267  Uiso   1.00
H30    H     0.49920   0.11490   0.17767   0.01267  Uiso   1.00
H31    H     0.45530   0.28110   0.27577   0.01267  Uiso   1.00
H32    H     0.29420   0.19110   0.26267   0.01267  Uiso   1.00
H33    H     0.61650   0.15180   0.22977   0.01267  Uiso   1.00
H34    H     0.73240   0.12580   0.18367   0.01267  Uiso   1.00
H35    H     0.80770   0.04450   0.18607   0.01267  Uiso   1.00
H36    H     0.68330   0.66100   0.83013   0.01267  Uiso   1.00
H37    H     0.61570   0.50080   0.84433   0.01267  Uiso   1.00
H38    H     0.82580   0.54470   0.94243   0.01267  Uiso   1.00
H39    H     0.89690   0.70580   0.92933   0.01267  Uiso   1.00
H40    H     0.53530   0.38350   0.89643   0.01267  Uiso   1.00
H41    H     0.39340   0.26760   0.85033   0.01267  Uiso   1.00
H42    H     0.23680   0.19230   0.85273   0.01267  Uiso   1.00
H43    H     0.33900   0.31670   0.66987   0.01267  Uiso   1.00
H44    H     0.49920   0.38430   0.65567   0.01267  Uiso   1.00
H45    H     0.45530   0.17420   0.55757   0.01267  Uiso   1.00
H46    H     0.29420   0.10310   0.57067   0.01267  Uiso   1.00
H47    H     0.61650   0.46470   0.60357   0.01267  Uiso   1.00
H48    H     0.73240   0.60660   0.64967   0.01267  Uiso   1.00
H49    H     0.80770   0.76320   0.64727   0.01267  Uiso   1.00
H50    H     0.68330   0.02230   0.00320   0.01267  Uiso   1.00
H51    H     0.61570   0.11490   0.98900   0.01267  Uiso   1.00
H52    H     0.82580   0.28110   0.89090   0.01267  Uiso   1.00
H53    H     0.89690   0.19110   0.90400   0.01267  Uiso   1.00
H54    H     0.53530   0.15180   0.93690   0.01267  Uiso   1.00
H55    H     0.39340   0.12580   0.98300   0.01267  Uiso   1.00
H56    H     0.23680   0.04450   0.98060   0.01267  Uiso   1.00
H57    H     0.97770   0.66100   0.33653   0.01267  Uiso   1.00
H58    H     0.88510   0.50080   0.32233   0.01267  Uiso   1.00
H59    H     0.71890   0.54470   0.22423   0.01267  Uiso   1.00
H60    H     0.80890   0.70580   0.23733   0.01267  Uiso   1.00
H61    H     0.84820   0.38350   0.27023   0.01267  Uiso   1.00
H62    H     0.87420   0.26760   0.31633   0.01267  Uiso   1.00
H63    H     0.95550   0.19230   0.31393   0.01267  Uiso   1.00
H64    H     0.66100   0.68330   0.16987   0.01267  Uiso   1.00
H65    H     0.50080   0.61570   0.15567   0.01267  Uiso   1.00
H66    H     0.54470   0.82580   0.05757   0.01267  Uiso   1.00
H67    H     0.70580   0.89690   0.07067   0.01267  Uiso   1.00
H68    H     0.38350   0.53530   0.10357   0.01267  Uiso   1.00
H69    H     0.26760   0.39340   0.14967   0.01267  Uiso   1.00
H70    H     0.19230   0.23680   0.14727   0.01267  Uiso   1.00
H71    H     0.31670   0.97770   0.50320   0.01267  Uiso   1.00
H72    H     0.38430   0.88510   0.48900   0.01267  Uiso   1.00
H73    H     0.17420   0.71890   0.39090   0.01267  Uiso   1.00
H74    H     0.10310   0.80890   0.40400   0.01267  Uiso   1.00
H75    H     0.46470   0.84820   0.43690   0.01267  Uiso   1.00
H76    H     0.60660   0.87420   0.48300   0.01267  Uiso   1.00
H77    H     0.76320   0.95550   0.48060   0.01267  Uiso   1.00
H78    H     0.02230   0.33900   0.83653   0.01267  Uiso   1.00
H79    H     0.11490   0.49920   0.82233   0.01267  Uiso   1.00
H80    H     0.28110   0.45530   0.72423   0.01267  Uiso   1.00
H81    H     0.19110   0.29420   0.73733   0.01267  Uiso   1.00
H82    H     0.15180   0.61650   0.77023   0.01267  Uiso   1.00
H83    H     0.12580   0.73240   0.81633   0.01267  Uiso   1.00
H84    H     0.04450   0.80770   0.81393   0.01267  Uiso   1.00
H85    H     0.38720   0.77440   0.08333   0.01267  Uiso   1.00
H86    H     0.38720   0.61280   0.75000   0.01267  Uiso   1.00
H87    H     0.22560   0.61280   0.41667   0.01267  Uiso   1.00
H88    H     0.61280   0.22560   0.58333   0.01267  Uiso   1.00
H89    H     0.61280   0.38720   0.25000   0.01267  Uiso   1.00
H90    H     0.77440   0.38720   0.91667   0.01267  Uiso   1.00
C1     C     0.02970   0.83340   0.03980   0.01267  Uiso   1.00
C2     C     0.09640   0.79500   0.04600   0.01267  Uiso   1.00
C3     C     0.07390   0.71180   0.01980   0.01267  Uiso   1.00
C4     C     0.13030   0.67160   0.02850   0.01267  Uiso   1.00
C5     C     0.20620   0.71150   0.06150   0.01267  Uiso   1.00
C6     C     0.22860   0.79700   0.08670   0.01267  Uiso   1.00
C7     C     0.17490   0.84010   0.07930   0.01267  Uiso   1.00
C8     C     0.25910   0.66290   0.07240   0.01267  Uiso   1.00
C9     C     0.21510   0.56800   0.07180   0.01267  Uiso   1.00
C10    C     0.13830   0.36180   0.04410   0.01267  Uiso   1.00
C11    C     0.09110   0.26870   0.04520   0.01267  Uiso   1.00
C12    C     0.80370   0.97030   0.70647   0.01267  Uiso   1.00
C13    C     0.69860   0.90360   0.71267   0.01267  Uiso   1.00
C14    C     0.63790   0.92610   0.68647   0.01267  Uiso   1.00
C15    C     0.54130   0.86970   0.69517   0.01267  Uiso   1.00
C16    C     0.50530   0.79380   0.72817   0.01267  Uiso   1.00
C17    C     0.56840   0.77140   0.75337   0.01267  Uiso   1.00
C18    C     0.66520   0.82510   0.74597   0.01267  Uiso   1.00
C19    C     0.40380   0.74090   0.73907   0.01267  Uiso   1.00
C20    C     0.35290   0.78490   0.73847   0.01267  Uiso   1.00
C21    C     0.22350   0.86170   0.71077   0.01267  Uiso   1.00
C22    C     0.17760   0.90890   0.71187   0.01267  Uiso   1.00
C23    C     0.16660   0.19630   0.37313   0.01267  Uiso   1.00
C24    C     0.20500   0.30140   0.37933   0.01267  Uiso   1.00
C25    C     0.28820   0.36210   0.35313   0.01267  Uiso   1.00
C26    C     0.32840   0.45870   0.36183   0.01267  Uiso   1.00
C27    C     0.28850   0.49470   0.39483   0.01267  Uiso   1.00
C28    C     0.20300   0.43160   0.42003   0.01267  Uiso   1.00
C29    C     0.15990   0.33480   0.41263   0.01267  Uiso   1.00
C30    C     0.33710   0.59620   0.40573   0.01267  Uiso   1.00
C31    C     0.43200   0.64710   0.40513   0.01267  Uiso   1.00
C32    C     0.63820   0.77650   0.37743   0.01267  Uiso   1.00
C33    C     0.73130   0.82240   0.37853   0.01267  Uiso   1.00
C34    C     0.97030   0.16660   0.53980   0.01267  Uiso   1.00
C35    C     0.90360   0.20500   0.54600   0.01267  Uiso   1.00
C36    C     0.92610   0.28820   0.51980   0.01267  Uiso   1.00
C37    C     0.86970   0.32840   0.52850   0.01267  Uiso   1.00
C38    C     0.79380   0.28850   0.56150   0.01267  Uiso   1.00
C39    C     0.77140   0.20300   0.58670   0.01267  Uiso   1.00
C40    C     0.82510   0.15990   0.57930   0.01267  Uiso   1.00
C41    C     0.74090   0.33710   0.57240   0.01267  Uiso   1.00
C42    C     0.78490   0.43200   0.57180   0.01267  Uiso   1.00
C43    C     0.86170   0.63820   0.54410   0.01267  Uiso   1.00
C44    C     0.90890   0.73130   0.54520   0.01267  Uiso   1.00
C45    C     0.19630   0.02970   0.20647   0.01267  Uiso   1.00
C46    C     0.30140   0.09640   0.21267   0.01267  Uiso   1.00
C47    C     0.36210   0.07390   0.18647   0.01267  Uiso   1.00
C48    C     0.45870   0.13030   0.19517   0.01267  Uiso   1.00
C49    C     0.49470   0.20620   0.22817   0.01267  Uiso   1.00
C50    C     0.43160   0.22860   0.25337   0.01267  Uiso   1.00
C51    C     0.33480   0.17490   0.24597   0.01267  Uiso   1.00
C52    C     0.59620   0.25910   0.23907   0.01267  Uiso   1.00
C53    C     0.64710   0.21510   0.23847   0.01267  Uiso   1.00
C54    C     0.77650   0.13830   0.21077   0.01267  Uiso   1.00
C55    C     0.82240   0.09110   0.21187   0.01267  Uiso   1.00
C56    C     0.83340   0.80370   0.87313   0.01267  Uiso   1.00
C57    C     0.79500   0.69860   0.87933   0.01267  Uiso   1.00
C58    C     0.71180   0.63790   0.85313   0.01267  Uiso   1.00
C59    C     0.67160   0.54130   0.86183   0.01267  Uiso   1.00
C60    C     0.71150   0.50530   0.89483   0.01267  Uiso   1.00
C61    C     0.79700   0.56840   0.92003   0.01267  Uiso   1.00
C62    C     0.84010   0.66520   0.91263   0.01267  Uiso   1.00
C63    C     0.66290   0.40380   0.90573   0.01267  Uiso   1.00
C64    C     0.56800   0.35290   0.90513   0.01267  Uiso   1.00
C65    C     0.36180   0.22350   0.87743   0.01267  Uiso   1.00
C66    C     0.26870   0.17760   0.87853   0.01267  Uiso   1.00
C67    C     0.19630   0.16660   0.62687   0.01267  Uiso   1.00
C68    C     0.30140   0.20500   0.62067   0.01267  Uiso   1.00
C69    C     0.36210   0.28820   0.64687   0.01267  Uiso   1.00
C70    C     0.45870   0.32840   0.63817   0.01267  Uiso   1.00
C71    C     0.49470   0.28850   0.60517   0.01267  Uiso   1.00
C72    C     0.43160   0.20300   0.57997   0.01267  Uiso   1.00
C73    C     0.33480   0.15990   0.58737   0.01267  Uiso   1.00
C74    C     0.59620   0.33710   0.59427   0.01267  Uiso   1.00
C75    C     0.64710   0.43200   0.59487   0.01267  Uiso   1.00
C76    C     0.77650   0.63820   0.62257   0.01267  Uiso   1.00
C77    C     0.82240   0.73130   0.62147   0.01267  Uiso   1.00
C78    C     0.83340   0.02970   0.96020   0.01267  Uiso   1.00
C79    C     0.79500   0.09640   0.95400   0.01267  Uiso   1.00
C80    C     0.71180   0.07390   0.98020   0.01267  Uiso   1.00
C81    C     0.67160   0.13030   0.97150   0.01267  Uiso   1.00
C82    C     0.71150   0.20620   0.93850   0.01267  Uiso   1.00
C83    C     0.79700   0.22860   0.91330   0.01267  Uiso   1.00
C84    C     0.84010   0.17490   0.92070   0.01267  Uiso   1.00
C85    C     0.66290   0.25910   0.92760   0.01267  Uiso   1.00
C86    C     0.56800   0.21510   0.92820   0.01267  Uiso   1.00
C87    C     0.36180   0.13830   0.95590   0.01267  Uiso   1.00
C88    C     0.26870   0.09110   0.95480   0.01267  Uiso   1.00
C89    C     0.97030   0.80370   0.29353   0.01267  Uiso   1.00
C90    C     0.90360   0.69860   0.28733   0.01267  Uiso   1.00
C91    C     0.92610   0.63790   0.31353   0.01267  Uiso   1.00
C92    C     0.86970   0.54130   0.30483   0.01267  Uiso   1.00
C93    C     0.79380   0.50530   0.27183   0.01267  Uiso   1.00
C94    C     0.77140   0.56840   0.24663   0.01267  Uiso   1.00
C95    C     0.82510   0.66520   0.25403   0.01267  Uiso   1.00
C96    C     0.74090   0.40380   0.26093   0.01267  Uiso   1.00
C97    C     0.78490   0.35290   0.26153   0.01267  Uiso   1.00
C98    C     0.86170   0.22350   0.28923   0.01267  Uiso   1.00
C99    C     0.90890   0.17760   0.28813   0.01267  Uiso   1.00
C100   C     0.80370   0.83340   0.12687   0.01267  Uiso   1.00
C101   C     0.69860   0.79500   0.12067   0.01267  Uiso   1.00
C102   C     0.63790   0.71180   0.14687   0.01267  Uiso   1.00
C103   C     0.54130   0.67160   0.13817   0.01267  Uiso   1.00
C104   C     0.50530   0.71150   0.10517   0.01267  Uiso   1.00
C105   C     0.56840   0.79700   0.07997   0.01267  Uiso   1.00
C106   C     0.66520   0.84010   0.08737   0.01267  Uiso   1.00
C107   C     0.40380   0.66290   0.09427   0.01267  Uiso   1.00
C108   C     0.35290   0.56800   0.09487   0.01267  Uiso   1.00
C109   C     0.22350   0.36180   0.12257   0.01267  Uiso   1.00
C110   C     0.17760   0.26870   0.12147   0.01267  Uiso   1.00
C111   C     0.16660   0.97030   0.46020   0.01267  Uiso   1.00
C112   C     0.20500   0.90360   0.45400   0.01267  Uiso   1.00
C113   C     0.28820   0.92610   0.48020   0.01267  Uiso   1.00
C114   C     0.32840   0.86970   0.47150   0.01267  Uiso   1.00
C115   C     0.28850   0.79380   0.43850   0.01267  Uiso   1.00
C116   C     0.20300   0.77140   0.41330   0.01267  Uiso   1.00
C117   C     0.15990   0.82510   0.42070   0.01267  Uiso   1.00
C118   C     0.33710   0.74090   0.42760   0.01267  Uiso   1.00
C119   C     0.43200   0.78490   0.42820   0.01267  Uiso   1.00
C120   C     0.63820   0.86170   0.45590   0.01267  Uiso   1.00
C121   C     0.73130   0.90890   0.45480   0.01267  Uiso   1.00
C122   C     0.02970   0.19630   0.79353   0.01267  Uiso   1.00
C123   C     0.09640   0.30140   0.78733   0.01267  Uiso   1.00
C124   C     0.07390   0.36210   0.81353   0.01267  Uiso   1.00
C125   C     0.13030   0.45870   0.80483   0.01267  Uiso   1.00
C126   C     0.20620   0.49470   0.77183   0.01267  Uiso   1.00
C127   C     0.22860   0.43160   0.74663   0.01267  Uiso   1.00
C128   C     0.17490   0.33480   0.75403   0.01267  Uiso   1.00
C129   C     0.25910   0.59620   0.76093   0.01267  Uiso   1.00
C130   C     0.21510   0.64710   0.76153   0.01267  Uiso   1.00
C131   C     0.13830   0.77650   0.78923   0.01267  Uiso   1.00
C132   C     0.09110   0.82240   0.78813   0.01267  Uiso   1.00
C133   C     0.35460   0.70920   0.08333   0.01267  Uiso   1.00
C134   C     0.25860   0.51720   0.08333   0.01267  Uiso   1.00
C135   C     0.20600   0.41200   0.08333   0.01267  Uiso   1.00
C136   C     0.10890   0.21780   0.08333   0.01267  Uiso   1.00
C137   C     0.05610   0.11220   0.08333   0.01267  Uiso   1.00
C138   C     0.35460   0.64540   0.75000   0.01267  Uiso   1.00
C139   C     0.25860   0.74140   0.75000   0.01267  Uiso   1.00
C140   C     0.20600   0.79400   0.75000   0.01267  Uiso   1.00
C141   C     0.10890   0.89110   0.75000   0.01267  Uiso   1.00
C142   C     0.05610   0.94390   0.75000   0.01267  Uiso   1.00
C143   C     0.29080   0.64540   0.41667   0.01267  Uiso   1.00
C144   C     0.48280   0.74140   0.41667   0.01267  Uiso   1.00
C145   C     0.58800   0.79400   0.41667   0.01267  Uiso   1.00
C146   C     0.78220   0.89110   0.41667   0.01267  Uiso   1.00
C147   C     0.88780   0.94390   0.41667   0.01267  Uiso   1.00
C148   C     0.64540   0.29080   0.58333   0.01267  Uiso   1.00
C149   C     0.74140   0.48280   0.58333   0.01267  Uiso   1.00
C150   C     0.79400   0.58800   0.58333   0.01267  Uiso   1.00
C151   C     0.89110   0.78220   0.58333   0.01267  Uiso   1.00
C152   C     0.94390   0.88780   0.58333   0.01267  Uiso   1.00
C153   C     0.64540   0.35460   0.25000   0.01267  Uiso   1.00
C154   C     0.74140   0.25860   0.25000   0.01267  Uiso   1.00
C155   C     0.79400   0.20600   0.25000   0.01267  Uiso   1.00
C156   C     0.89110   0.10890   0.25000   0.01267  Uiso   1.00
C157   C     0.94390   0.05610   0.25000   0.01267  Uiso   1.00
C158   C     0.70920   0.35460   0.91667   0.01267  Uiso   1.00
C159   C     0.51720   0.25860   0.91667   0.01267  Uiso   1.00
C160   C     0.41200   0.20600   0.91667   0.01267  Uiso   1.00
C161   C     0.21780   0.10890   0.91667   0.01267  Uiso   1.00
C162   C     0.11220   0.05610   0.91667   0.01267  Uiso   1.00
O1     O     0.96850   0.79990   0.00360   0.01267  Uiso   1.00
O2     O     0.03760   0.89880   0.07100   0.01267  Uiso   1.00
O3     O     0.00120   0.07200   0.04520   0.01267  Uiso   1.00
O4     O     0.83140   0.03150   0.67027   0.01267  Uiso   1.00
O5     O     0.86120   0.96240   0.73767   0.01267  Uiso   1.00
O6     O     0.07080   0.99880   0.71187   0.01267  Uiso   1.00
O7     O     0.20010   0.16860   0.33693   0.01267  Uiso   1.00
O8     O     0.10120   0.13880   0.40433   0.01267  Uiso   1.00
O9     O     0.92800   0.92920   0.37853   0.01267  Uiso   1.00
O10    O     0.03150   0.20010   0.50360   0.01267  Uiso   1.00
O11    O     0.96240   0.10120   0.57100   0.01267  Uiso   1.00
O12    O     0.99880   0.92800   0.54520   0.01267  Uiso   1.00
O13    O     0.16860   0.96850   0.17027   0.01267  Uiso   1.00
O14    O     0.13880   0.03760   0.23767   0.01267  Uiso   1.00
O15    O     0.92920   0.00120   0.21187   0.01267  Uiso   1.00
O16    O     0.79990   0.83140   0.83693   0.01267  Uiso   1.00
O17    O     0.89880   0.86120   0.90433   0.01267  Uiso   1.00
O18    O     0.07200   0.07080   0.87853   0.01267  Uiso   1.00
O19    O     0.16860   0.20010   0.66307   0.01267  Uiso   1.00
O20    O     0.13880   0.10120   0.59567   0.01267  Uiso   1.00
O21    O     0.92920   0.92800   0.62147   0.01267  Uiso   1.00
O22    O     0.79990   0.96850   0.99640   0.01267  Uiso   1.00
O23    O     0.89880   0.03760   0.92900   0.01267  Uiso   1.00
O24    O     0.07200   0.00120   0.95480   0.01267  Uiso   1.00
O25    O     0.03150   0.83140   0.32973   0.01267  Uiso   1.00
O26    O     0.96240   0.86120   0.26233   0.01267  Uiso   1.00
O27    O     0.99880   0.07080   0.28813   0.01267  Uiso   1.00
O28    O     0.83140   0.79990   0.16307   0.01267  Uiso   1.00
O29    O     0.86120   0.89880   0.09567   0.01267  Uiso   1.00
O30    O     0.07080   0.07200   0.12147   0.01267  Uiso   1.00
O31    O     0.20010   0.03150   0.49640   0.01267  Uiso   1.00
O32    O     0.10120   0.96240   0.42900   0.01267  Uiso   1.00
O33    O     0.92800   0.99880   0.45480   0.01267  Uiso   1.00
O34    O     0.96850   0.16860   0.82973   0.01267  Uiso   1.00
O35    O     0.03760   0.13880   0.76233   0.01267  Uiso   1.00
O36    O     0.00120   0.92920   0.78813   0.01267  Uiso   1.00
