data_image0
_cell_length_a       10.3605
_cell_length_b       10.5224
_cell_length_c       15.014
_cell_angle_alpha    89.979
_cell_angle_beta     76.656
_cell_angle_gamma    89.98

_symmetry_space_group_name_H-M    "P 1"
_symmetry_int_tables_number       1

loop_
  _symmetry_equiv_pos_as_xyz
  'x, y, z'

loop_
  _atom_site_label
  _atom_site_occupancy
  _atom_site_fract_x
  _atom_site_fract_y
  _atom_site_fract_z
  _atom_site_thermal_displace_type
  _atom_site_B_iso_or_equiv
  _atom_site_type_symbol
  Ag1      1.0000 0.63777  0.38787  0.51539  Biso   1.000  Ag
  N1       1.0000 0.32300  0.10130  0.06220  Biso   1.000  N
  N2       1.0000 0.83100  0.12670  0.05830  Biso   1.000  N
  N3       1.0000 0.42470  0.13240  0.10410  Biso   1.000  N
  N4       1.0000 0.57320  0.30390  0.38590  Biso   1.000  N
  N5       1.0000 0.23840  0.18250  0.19700  Biso   1.000  N
  N6       1.0000 0.15090  0.23840  0.27300  Biso   1.000  N
  C1       1.0000 0.84770  0.08940  0.13930  Biso   1.000  C
  C2       1.0000 0.93940  0.16370  0.99690  Biso   1.000  C
  C3       1.0000 0.06430  0.16580  0.01330  Biso   1.000  C
  C4       1.0000 0.08000  0.12800  0.09880  Biso   1.000  C
  C5       1.0000 0.96840  0.08770  0.16320  Biso   1.000  C
  C6       1.0000 0.21190  0.13360  0.11940  Biso   1.000  C
  C7       1.0000 0.37130  0.18150  0.18420  Biso   1.000  C
  C8       1.0000 0.44350  0.22410  0.25300  Biso   1.000  C
  C9       1.0000 0.40700  0.17810  0.34150  Biso   1.000  C
  C10      1.0000 0.47510  0.21950  0.40470  Biso   1.000  C
  C11      1.0000 0.60970  0.34520  0.29970  Biso   1.000  C
  C12      1.0000 0.54880  0.30780  0.23160  Biso   1.000  C
  H1       1.0000 0.76600  0.06200  0.18700  Biso   1.000  H
  H2       1.0000 0.92100  0.18600  0.93600  Biso   1.000  H
  H3       1.0000 0.13600  0.19100  0.96900  Biso   1.000  H
  H4       1.0000 0.97100  0.05700  0.22100  Biso   1.000  H
  H5       1.0000 0.34000  0.12100  0.35800  Biso   1.000  H
  H6       1.0000 0.44300  0.19100  0.46700  Biso   1.000  H
  H7       1.0000 0.67600  0.41300  0.28500  Biso   1.000  H
  H8       1.0000 0.57400  0.33700  0.17900  Biso   1.000  H
  H9       1.0000 0.11800  0.28100  0.25600  Biso   1.000  H
  H10      1.0000 0.10300  0.17400  0.30700  Biso   1.000  H
  Ag2      1.0000 0.63778  0.11213  0.01539  Biso   1.000  Ag
  N7       1.0000 0.57360  0.19630  0.88600  Biso   1.000  N
  N8       1.0000 0.32250  0.39870  0.56270  Biso   1.000  N
  N9       1.0000 0.83130  0.37300  0.55820  Biso   1.000  N
  N10      1.0000 0.42520  0.36740  0.60410  Biso   1.000  N
  N11      1.0000 0.23830  0.31760  0.69720  Biso   1.000  N
  N12      1.0000 0.15130  0.25950  0.77230  Biso   1.000  N
  C13      1.0000 0.47480  0.28030  0.90540  Biso   1.000  C
  C14      1.0000 0.61000  0.15570  0.79990  Biso   1.000  C
  C15      1.0000 0.37230  0.31800  0.68400  Biso   1.000  C
  C16      1.0000 0.44300  0.27570  0.75340  Biso   1.000  C
  C17      1.0000 0.40680  0.32150  0.84140  Biso   1.000  C
  C18      1.0000 0.54910  0.19210  0.73080  Biso   1.000  C
  C19      1.0000 0.93970  0.33620  0.49670  Biso   1.000  C
  C20      1.0000 0.84720  0.41090  0.63920  Biso   1.000  C
  C21      1.0000 0.21190  0.36630  0.61930  Biso   1.000  C
  C22      1.0000 0.07950  0.37220  0.59880  Biso   1.000  C
  C23      1.0000 0.06390  0.33420  0.51420  Biso   1.000  C
  C24      1.0000 0.96730  0.41140  0.66330  Biso   1.000  C
  H11      1.0000 0.44600  0.31100  0.96500  Biso   1.000  H
  H12      1.0000 0.67800  0.10000  0.78700  Biso   1.000  H
  H13      1.0000 0.97700  0.44200  0.71700  Biso   1.000  H
  H14      1.0000 0.34200  0.38100  0.85600  Biso   1.000  H
  H15      1.0000 0.57800  0.16600  0.67400  Biso   1.000  H
  H16      1.0000 0.92700  0.30300  0.44200  Biso   1.000  H
  H17      1.0000 0.77500  0.44500  0.68100  Biso   1.000  H
  H18      1.0000 0.13400  0.31600  0.47400  Biso   1.000  H
  H19      1.0000 0.09900  0.21500  0.74800  Biso   1.000  H
  H20      1.0000 0.11500  0.30800  0.78700  Biso   1.000  H
  Ag3      1.0000 0.36222  0.88787  0.98461  Biso   1.000  Ag
  N13      1.0000 0.42640  0.80370  0.11400  Biso   1.000  N
  N14      1.0000 0.67750  0.60130  0.43730  Biso   1.000  N
  N15      1.0000 0.16870  0.62700  0.44180  Biso   1.000  N
  N16      1.0000 0.57480  0.63260  0.39590  Biso   1.000  N
  N17      1.0000 0.76170  0.68240  0.30280  Biso   1.000  N
  N18      1.0000 0.84870  0.74050  0.22770  Biso   1.000  N
  C25      1.0000 0.52520  0.71970  0.09460  Biso   1.000  C
  C26      1.0000 0.39000  0.84430  0.20010  Biso   1.000  C
  C27      1.0000 0.62770  0.68200  0.31600  Biso   1.000  C
  C28      1.0000 0.55700  0.72430  0.24660  Biso   1.000  C
  C29      1.0000 0.59320  0.67850  0.15860  Biso   1.000  C
  C30      1.0000 0.45090  0.80790  0.26920  Biso   1.000  C
  C31      1.0000 0.06030  0.66380  0.50330  Biso   1.000  C
  C32      1.0000 0.15280  0.58910  0.36080  Biso   1.000  C
  C33      1.0000 0.78810  0.63370  0.38070  Biso   1.000  C
  C34      1.0000 0.92050  0.62780  0.40120  Biso   1.000  C
  C35      1.0000 0.93610  0.66580  0.48580  Biso   1.000  C
  C36      1.0000 0.03270  0.58860  0.33670  Biso   1.000  C
  H21      1.0000 0.55400  0.68900  0.03500  Biso   1.000  H
  H22      1.0000 0.32200  0.90000  0.21300  Biso   1.000  H
  H23      1.0000 0.02300  0.55800  0.28300  Biso   1.000  H
  H24      1.0000 0.65800  0.61900  0.14400  Biso   1.000  H
  H25      1.0000 0.42200  0.83400  0.32600  Biso   1.000  H
  H26      1.0000 0.07300  0.69700  0.55800  Biso   1.000  H
  H27      1.0000 0.22500  0.55500  0.31900  Biso   1.000  H
  H28      1.0000 0.86600  0.68400  0.52600  Biso   1.000  H
  H29      1.0000 0.90100  0.78500  0.25200  Biso   1.000  H
  H30      1.0000 0.88500  0.69200  0.21300  Biso   1.000  H
  Ag4      1.0000 0.36223  0.61213  0.48461  Biso   1.000  Ag
  N19      1.0000 0.67700  0.89870  0.93780  Biso   1.000  N
  N20      1.0000 0.16900  0.87330  0.94170  Biso   1.000  N
  N21      1.0000 0.57530  0.86760  0.89590  Biso   1.000  N
  N22      1.0000 0.42680  0.69610  0.61410  Biso   1.000  N
  N23      1.0000 0.76160  0.81750  0.80300  Biso   1.000  N
  N24      1.0000 0.84910  0.76160  0.72700  Biso   1.000  N
  C37      1.0000 0.15230  0.91060  0.86070  Biso   1.000  C
  C38      1.0000 0.06060  0.83630  0.00310  Biso   1.000  C
  C39      1.0000 0.93570  0.83420  0.98670  Biso   1.000  C
  C40      1.0000 0.92000  0.87200  0.90120  Biso   1.000  C
  C41      1.0000 0.03160  0.91230  0.83680  Biso   1.000  C
  C42      1.0000 0.78810  0.86640  0.88060  Biso   1.000  C
  C43      1.0000 0.62870  0.81850  0.81580  Biso   1.000  C
  C44      1.0000 0.55650  0.77590  0.74700  Biso   1.000  C
  C45      1.0000 0.59300  0.82190  0.65850  Biso   1.000  C
  C46      1.0000 0.52490  0.78050  0.59530  Biso   1.000  C
  C47      1.0000 0.39030  0.65480  0.70030  Biso   1.000  C
  C48      1.0000 0.45120  0.69220  0.76840  Biso   1.000  C
  H31      1.0000 0.23400  0.93800  0.81300  Biso   1.000  H
  H32      1.0000 0.07900  0.81400  0.06400  Biso   1.000  H
  H33      1.0000 0.86400  0.80900  0.03100  Biso   1.000  H
  H34      1.0000 0.02900  0.94300  0.77900  Biso   1.000  H
  H35      1.0000 0.66000  0.87900  0.64200  Biso   1.000  H
  H36      1.0000 0.55700  0.80900  0.53300  Biso   1.000  H
  H37      1.0000 0.32400  0.58700  0.71500  Biso   1.000  H
  H38      1.0000 0.42600  0.66300  0.82100  Biso   1.000  H
  H39      1.0000 0.88200  0.71900  0.74400  Biso   1.000  H
  H40      1.0000 0.89700  0.82600  0.69300  Biso   1.000  H
