data_image0
_cell_length_a       15.2035
_cell_length_b       16.5919
_cell_length_c       16.124
_cell_angle_alpha    90
_cell_angle_beta     116.849
_cell_angle_gamma    90

_symmetry_space_group_name_H-M    "P 1"
_symmetry_int_tables_number       1

loop_
  _symmetry_equiv_pos_as_xyz
  'x, y, z'

loop_
  _atom_site_label
  _atom_site_occupancy
  _atom_site_fract_x
  _atom_site_fract_y
  _atom_site_fract_z
  _atom_site_thermal_displace_type
  _atom_site_B_iso_or_equiv
  _atom_site_type_symbol
  Ag1      1.0000 0.07027  0.41106  0.39558  Biso   1.000  Ag
  C1       1.0000 0.16677  0.26358  0.55504  Biso   1.000  C
  H1       1.0000 0.18900  0.30550  0.60010  Biso   1.000  H
  C2       1.0000 0.20316  0.18656  0.58266  Biso   1.000  C
  C3       1.0000 0.17143  0.12508  0.51683  Biso   1.000  C
  H2       1.0000 0.19570  0.07170  0.53350  Biso   1.000  H
  C4       1.0000 0.10370  0.14335  0.42644  Biso   1.000  C
  H3       1.0000 0.08060  0.10280  0.37980  Biso   1.000  H
  C5       1.0000 0.07047  0.22158  0.40574  Biso   1.000  C
  H4       1.0000 0.02280  0.23340  0.34400  Biso   1.000  H
  C6       1.0000 0.38960  0.09724  0.09860  Biso   1.000  C
  H5       1.0000 0.40020  0.08550  0.16010  Biso   1.000  H
  C7       1.0000 0.36740  0.17520  0.06730  Biso   1.000  C
  H6       1.0000 0.36370  0.21620  0.10670  Biso   1.000  H
  C8       1.0000 0.35050  0.19315  0.97710  Biso   1.000  C
  H7       1.0000 0.33420  0.24640  0.95340  Biso   1.000  H
  C9       1.0000 0.35782  0.13167  0.92283  Biso   1.000  C
  C10      1.0000 0.38134  0.05481  0.96051  Biso   1.000  C
  H8       1.0000 0.38670  0.01280  0.92300  Biso   1.000  H
  C11      1.0000 0.27620  0.16705  0.67845  Biso   1.000  C
  C12      1.0000 0.34293  0.14270  0.82700  Biso   1.000  C
  N1       1.0000 0.10146  0.28183  0.46741  Biso   1.000  N
  N2       1.0000 0.39687  0.03704  0.04698  Biso   1.000  N
  N3       1.0000 0.40322  0.11563  0.79582  Biso   1.000  N
  N4       1.0000 0.36062  0.13110  0.70120  Biso   1.000  N
  N5       1.0000 0.26295  0.17698  0.75621  Biso   1.000  N
  N6       1.0000 0.18221  0.20960  0.76514  Biso   1.000  N
  H9       1.0000 0.13200  0.18170  0.72800  Biso   1.000  H
  H10      1.0000 0.18200  0.26300  0.75000  Biso   1.000  H
  Ag2      1.0000 0.57027  0.91106  0.39558  Biso   1.000  Ag
  C13      1.0000 0.66677  0.76358  0.55504  Biso   1.000  C
  H11      1.0000 0.68900  0.80550  0.60010  Biso   1.000  H
  C14      1.0000 0.70316  0.68656  0.58266  Biso   1.000  C
  C15      1.0000 0.67143  0.62508  0.51683  Biso   1.000  C
  H12      1.0000 0.69570  0.57170  0.53350  Biso   1.000  H
  C16      1.0000 0.60370  0.64335  0.42644  Biso   1.000  C
  H13      1.0000 0.58060  0.60280  0.37980  Biso   1.000  H
  C17      1.0000 0.57047  0.72158  0.40574  Biso   1.000  C
  H14      1.0000 0.52280  0.73340  0.34400  Biso   1.000  H
  C18      1.0000 0.88960  0.59724  0.09860  Biso   1.000  C
  H15      1.0000 0.90020  0.58550  0.16010  Biso   1.000  H
  C19      1.0000 0.86740  0.67520  0.06730  Biso   1.000  C
  H16      1.0000 0.86370  0.71620  0.10670  Biso   1.000  H
  C20      1.0000 0.85050  0.69315  0.97710  Biso   1.000  C
  H17      1.0000 0.83420  0.74640  0.95340  Biso   1.000  H
  C21      1.0000 0.85782  0.63167  0.92283  Biso   1.000  C
  C22      1.0000 0.88134  0.55481  0.96051  Biso   1.000  C
  H18      1.0000 0.88670  0.51280  0.92300  Biso   1.000  H
  C23      1.0000 0.77620  0.66705  0.67845  Biso   1.000  C
  C24      1.0000 0.84293  0.64270  0.82700  Biso   1.000  C
  N7       1.0000 0.60146  0.78183  0.46741  Biso   1.000  N
  N8       1.0000 0.89687  0.53704  0.04698  Biso   1.000  N
  N9       1.0000 0.90322  0.61563  0.79582  Biso   1.000  N
  N10      1.0000 0.86062  0.63110  0.70120  Biso   1.000  N
  N11      1.0000 0.76295  0.67698  0.75621  Biso   1.000  N
  N12      1.0000 0.68221  0.70960  0.76514  Biso   1.000  N
  H19      1.0000 0.63200  0.68170  0.72800  Biso   1.000  H
  H20      1.0000 0.68200  0.76300  0.75000  Biso   1.000  H
  Ag3      1.0000 0.92973  0.41106  0.10442  Biso   1.000  Ag
  C25      1.0000 0.83323  0.26358  0.94496  Biso   1.000  C
  H21      1.0000 0.81100  0.30550  0.89990  Biso   1.000  H
  C26      1.0000 0.79684  0.18656  0.91734  Biso   1.000  C
  C27      1.0000 0.82857  0.12508  0.98317  Biso   1.000  C
  H22      1.0000 0.80430  0.07170  0.96650  Biso   1.000  H
  C28      1.0000 0.89630  0.14335  0.07356  Biso   1.000  C
  H23      1.0000 0.91940  0.10280  0.12020  Biso   1.000  H
  C29      1.0000 0.92953  0.22158  0.09426  Biso   1.000  C
  H24      1.0000 0.97720  0.23340  0.15600  Biso   1.000  H
  C30      1.0000 0.61040  0.09724  0.40140  Biso   1.000  C
  H25      1.0000 0.59980  0.08550  0.33990  Biso   1.000  H
  C31      1.0000 0.63260  0.17520  0.43270  Biso   1.000  C
  H26      1.0000 0.63630  0.21620  0.39330  Biso   1.000  H
  C32      1.0000 0.64950  0.19315  0.52290  Biso   1.000  C
  H27      1.0000 0.66580  0.24640  0.54660  Biso   1.000  H
  C33      1.0000 0.64218  0.13167  0.57717  Biso   1.000  C
  C34      1.0000 0.61866  0.05481  0.53949  Biso   1.000  C
  H28      1.0000 0.61330  0.01280  0.57700  Biso   1.000  H
  C35      1.0000 0.72380  0.16705  0.82155  Biso   1.000  C
  C36      1.0000 0.65707  0.14270  0.67300  Biso   1.000  C
  N13      1.0000 0.89854  0.28183  0.03259  Biso   1.000  N
  N14      1.0000 0.60313  0.03704  0.45302  Biso   1.000  N
  N15      1.0000 0.59678  0.11563  0.70418  Biso   1.000  N
  N16      1.0000 0.63938  0.13110  0.79880  Biso   1.000  N
  N17      1.0000 0.73705  0.17698  0.74379  Biso   1.000  N
  N18      1.0000 0.81779  0.20960  0.73486  Biso   1.000  N
  H29      1.0000 0.86800  0.18170  0.77200  Biso   1.000  H
  H30      1.0000 0.81800  0.26300  0.75000  Biso   1.000  H
  Ag4      1.0000 0.42973  0.91106  0.10442  Biso   1.000  Ag
  C37      1.0000 0.33323  0.76358  0.94496  Biso   1.000  C
  H31      1.0000 0.31100  0.80550  0.89990  Biso   1.000  H
  C38      1.0000 0.29684  0.68656  0.91734  Biso   1.000  C
  C39      1.0000 0.32857  0.62508  0.98317  Biso   1.000  C
  H32      1.0000 0.30430  0.57170  0.96650  Biso   1.000  H
  C40      1.0000 0.39630  0.64335  0.07356  Biso   1.000  C
  H33      1.0000 0.41940  0.60280  0.12020  Biso   1.000  H
  C41      1.0000 0.42953  0.72158  0.09426  Biso   1.000  C
  H34      1.0000 0.47720  0.73340  0.15600  Biso   1.000  H
  C42      1.0000 0.11040  0.59724  0.40140  Biso   1.000  C
  H35      1.0000 0.09980  0.58550  0.33990  Biso   1.000  H
  C43      1.0000 0.13260  0.67520  0.43270  Biso   1.000  C
  H36      1.0000 0.13630  0.71620  0.39330  Biso   1.000  H
  C44      1.0000 0.14950  0.69315  0.52290  Biso   1.000  C
  H37      1.0000 0.16580  0.74640  0.54660  Biso   1.000  H
  C45      1.0000 0.14218  0.63167  0.57717  Biso   1.000  C
  C46      1.0000 0.11866  0.55481  0.53949  Biso   1.000  C
  H38      1.0000 0.11330  0.51280  0.57700  Biso   1.000  H
  C47      1.0000 0.22380  0.66705  0.82155  Biso   1.000  C
  C48      1.0000 0.15707  0.64270  0.67300  Biso   1.000  C
  N19      1.0000 0.39854  0.78183  0.03259  Biso   1.000  N
  N20      1.0000 0.10313  0.53704  0.45302  Biso   1.000  N
  N21      1.0000 0.09678  0.61563  0.70418  Biso   1.000  N
  N22      1.0000 0.13938  0.63110  0.79880  Biso   1.000  N
  N23      1.0000 0.23705  0.67698  0.74379  Biso   1.000  N
  N24      1.0000 0.31779  0.70960  0.73486  Biso   1.000  N
  H39      1.0000 0.36800  0.68170  0.77200  Biso   1.000  H
  H40      1.0000 0.31800  0.76300  0.75000  Biso   1.000  H
  Ag5      1.0000 0.92973  0.58894  0.60442  Biso   1.000  Ag
  C49      1.0000 0.83323  0.73642  0.44496  Biso   1.000  C
  H41      1.0000 0.81100  0.69450  0.39990  Biso   1.000  H
  C50      1.0000 0.79684  0.81344  0.41734  Biso   1.000  C
  C51      1.0000 0.82857  0.87492  0.48317  Biso   1.000  C
  H42      1.0000 0.80430  0.92830  0.46650  Biso   1.000  H
  C52      1.0000 0.89630  0.85665  0.57356  Biso   1.000  C
  H43      1.0000 0.91940  0.89720  0.62020  Biso   1.000  H
  C53      1.0000 0.92953  0.77842  0.59426  Biso   1.000  C
  H44      1.0000 0.97720  0.76660  0.65600  Biso   1.000  H
  C54      1.0000 0.61040  0.90276  0.90140  Biso   1.000  C
  H45      1.0000 0.59980  0.91450  0.83990  Biso   1.000  H
  C55      1.0000 0.63260  0.82480  0.93270  Biso   1.000  C
  H46      1.0000 0.63630  0.78380  0.89330  Biso   1.000  H
  C56      1.0000 0.64950  0.80685  0.02290  Biso   1.000  C
  H47      1.0000 0.66580  0.75360  0.04660  Biso   1.000  H
  C57      1.0000 0.64218  0.86833  0.07717  Biso   1.000  C
  C58      1.0000 0.61866  0.94519  0.03949  Biso   1.000  C
  H48      1.0000 0.61330  0.98720  0.07700  Biso   1.000  H
  C59      1.0000 0.72380  0.83295  0.32155  Biso   1.000  C
  C60      1.0000 0.65707  0.85730  0.17300  Biso   1.000  C
  N25      1.0000 0.89854  0.71817  0.53259  Biso   1.000  N
  N26      1.0000 0.60313  0.96296  0.95302  Biso   1.000  N
  N27      1.0000 0.59678  0.88437  0.20418  Biso   1.000  N
  N28      1.0000 0.63938  0.86890  0.29880  Biso   1.000  N
  N29      1.0000 0.73705  0.82302  0.24379  Biso   1.000  N
  N30      1.0000 0.81779  0.79040  0.23486  Biso   1.000  N
  H49      1.0000 0.86800  0.81830  0.27200  Biso   1.000  H
  H50      1.0000 0.81800  0.73700  0.25000  Biso   1.000  H
  Ag6      1.0000 0.42973  0.08894  0.60442  Biso   1.000  Ag
  C61      1.0000 0.33323  0.23642  0.44496  Biso   1.000  C
  H51      1.0000 0.31100  0.19450  0.39990  Biso   1.000  H
  C62      1.0000 0.29684  0.31344  0.41734  Biso   1.000  C
  C63      1.0000 0.32857  0.37492  0.48317  Biso   1.000  C
  H52      1.0000 0.30430  0.42830  0.46650  Biso   1.000  H
  C64      1.0000 0.39630  0.35665  0.57356  Biso   1.000  C
  H53      1.0000 0.41940  0.39720  0.62020  Biso   1.000  H
  C65      1.0000 0.42953  0.27842  0.59426  Biso   1.000  C
  H54      1.0000 0.47720  0.26660  0.65600  Biso   1.000  H
  C66      1.0000 0.11040  0.40276  0.90140  Biso   1.000  C
  H55      1.0000 0.09980  0.41450  0.83990  Biso   1.000  H
  C67      1.0000 0.13260  0.32480  0.93270  Biso   1.000  C
  H56      1.0000 0.13630  0.28380  0.89330  Biso   1.000  H
  C68      1.0000 0.14950  0.30685  0.02290  Biso   1.000  C
  H57      1.0000 0.16580  0.25360  0.04660  Biso   1.000  H
  C69      1.0000 0.14218  0.36833  0.07717  Biso   1.000  C
  C70      1.0000 0.11866  0.44519  0.03949  Biso   1.000  C
  H58      1.0000 0.11330  0.48720  0.07700  Biso   1.000  H
  C71      1.0000 0.22380  0.33295  0.32155  Biso   1.000  C
  C72      1.0000 0.15707  0.35730  0.17300  Biso   1.000  C
  N31      1.0000 0.39854  0.21817  0.53259  Biso   1.000  N
  N32      1.0000 0.10313  0.46296  0.95302  Biso   1.000  N
  N33      1.0000 0.09678  0.38437  0.20418  Biso   1.000  N
  N34      1.0000 0.13938  0.36890  0.29880  Biso   1.000  N
  N35      1.0000 0.23705  0.32302  0.24379  Biso   1.000  N
  N36      1.0000 0.31779  0.29040  0.23486  Biso   1.000  N
  H59      1.0000 0.36800  0.31830  0.27200  Biso   1.000  H
  H60      1.0000 0.31800  0.23700  0.25000  Biso   1.000  H
  Ag7      1.0000 0.07027  0.58894  0.89558  Biso   1.000  Ag
  C73      1.0000 0.16677  0.73642  0.05504  Biso   1.000  C
  H61      1.0000 0.18900  0.69450  0.10010  Biso   1.000  H
  C74      1.0000 0.20316  0.81344  0.08266  Biso   1.000  C
  C75      1.0000 0.17143  0.87492  0.01683  Biso   1.000  C
  H62      1.0000 0.19570  0.92830  0.03350  Biso   1.000  H
  C76      1.0000 0.10370  0.85665  0.92644  Biso   1.000  C
  H63      1.0000 0.08060  0.89720  0.87980  Biso   1.000  H
  C77      1.0000 0.07047  0.77842  0.90574  Biso   1.000  C
  H64      1.0000 0.02280  0.76660  0.84400  Biso   1.000  H
  C78      1.0000 0.38960  0.90276  0.59860  Biso   1.000  C
  H65      1.0000 0.40020  0.91450  0.66010  Biso   1.000  H
  C79      1.0000 0.36740  0.82480  0.56730  Biso   1.000  C
  H66      1.0000 0.36370  0.78380  0.60670  Biso   1.000  H
  C80      1.0000 0.35050  0.80685  0.47710  Biso   1.000  C
  H67      1.0000 0.33420  0.75360  0.45340  Biso   1.000  H
  C81      1.0000 0.35782  0.86833  0.42283  Biso   1.000  C
  C82      1.0000 0.38134  0.94519  0.46051  Biso   1.000  C
  H68      1.0000 0.38670  0.98720  0.42300  Biso   1.000  H
  C83      1.0000 0.27620  0.83295  0.17845  Biso   1.000  C
  C84      1.0000 0.34293  0.85730  0.32700  Biso   1.000  C
  N37      1.0000 0.10146  0.71817  0.96741  Biso   1.000  N
  N38      1.0000 0.39687  0.96296  0.54698  Biso   1.000  N
  N39      1.0000 0.40322  0.88437  0.29582  Biso   1.000  N
  N40      1.0000 0.36062  0.86890  0.20120  Biso   1.000  N
  N41      1.0000 0.26295  0.82302  0.25621  Biso   1.000  N
  N42      1.0000 0.18221  0.79040  0.26514  Biso   1.000  N
  H69      1.0000 0.13200  0.81830  0.22800  Biso   1.000  H
  H70      1.0000 0.18200  0.73700  0.25000  Biso   1.000  H
  Ag8      1.0000 0.57027  0.08894  0.89558  Biso   1.000  Ag
  C85      1.0000 0.66677  0.23642  0.05504  Biso   1.000  C
  H71      1.0000 0.68900  0.19450  0.10010  Biso   1.000  H
  C86      1.0000 0.70316  0.31344  0.08266  Biso   1.000  C
  C87      1.0000 0.67143  0.37492  0.01683  Biso   1.000  C
  H72      1.0000 0.69570  0.42830  0.03350  Biso   1.000  H
  C88      1.0000 0.60370  0.35665  0.92644  Biso   1.000  C
  H73      1.0000 0.58060  0.39720  0.87980  Biso   1.000  H
  C89      1.0000 0.57047  0.27842  0.90574  Biso   1.000  C
  H74      1.0000 0.52280  0.26660  0.84400  Biso   1.000  H
  C90      1.0000 0.88960  0.40276  0.59860  Biso   1.000  C
  H75      1.0000 0.90020  0.41450  0.66010  Biso   1.000  H
  C91      1.0000 0.86740  0.32480  0.56730  Biso   1.000  C
  H76      1.0000 0.86370  0.28380  0.60670  Biso   1.000  H
  C92      1.0000 0.85050  0.30685  0.47710  Biso   1.000  C
  H77      1.0000 0.83420  0.25360  0.45340  Biso   1.000  H
  C93      1.0000 0.85782  0.36833  0.42283  Biso   1.000  C
  C94      1.0000 0.88134  0.44519  0.46051  Biso   1.000  C
  H78      1.0000 0.88670  0.48720  0.42300  Biso   1.000  H
  C95      1.0000 0.77620  0.33295  0.17845  Biso   1.000  C
  C96      1.0000 0.84293  0.35730  0.32700  Biso   1.000  C
  N43      1.0000 0.60146  0.21817  0.96741  Biso   1.000  N
  N44      1.0000 0.89687  0.46296  0.54698  Biso   1.000  N
  N45      1.0000 0.90322  0.38437  0.29582  Biso   1.000  N
  N46      1.0000 0.86062  0.36890  0.20120  Biso   1.000  N
  N47      1.0000 0.76295  0.32302  0.25621  Biso   1.000  N
  N48      1.0000 0.68221  0.29040  0.26514  Biso   1.000  N
  H79      1.0000 0.63200  0.31830  0.22800  Biso   1.000  H
  H80      1.0000 0.68200  0.23700  0.25000  Biso   1.000  H
