data_image0
_cell_length_a       5.0996
_cell_length_b       21.2595
_cell_length_c       8.9209
_cell_angle_alpha    90
_cell_angle_beta     90.2394
_cell_angle_gamma    90

_symmetry_space_group_name_H-M    "P 1"
_symmetry_int_tables_number       1

loop_
  _symmetry_equiv_pos_as_xyz
  'x, y, z'

loop_
  _atom_site_label
  _atom_site_occupancy
  _atom_site_fract_x
  _atom_site_fract_y
  _atom_site_fract_z
  _atom_site_thermal_displace_type
  _atom_site_B_iso_or_equiv
  _atom_site_type_symbol
  Ti1      1.0000 0.72781  0.10040  0.02196  Biso   1.000  Ti
  P1       1.0000 0.21323  0.38578  0.26543  Biso   1.000  P
  P2       1.0000 0.23973  0.04614  0.83991  Biso   1.000  P
  O1       1.0000 0.26380  0.32270  0.34900  Biso   1.000  O
  O2       1.0000 0.72040  0.19070  0.96930  Biso   1.000  O
  O3       1.0000 0.41740  0.39243  0.14160  Biso   1.000  O
  O4       1.0000 0.02490  0.09140  0.89370  Biso   1.000  O
  O5       1.0000 0.93840  0.38292  0.19590  Biso   1.000  O
  O6       1.0000 0.75090  0.01240  0.06180  Biso   1.000  O
  O7       1.0000 0.50590  0.08086  0.84430  Biso   1.000  O
  O8       1.0000 0.23470  0.43885  0.37990  Biso   1.000  O
  O9       1.0000 0.18490  0.02950  0.67600  Biso   1.000  O
  Ti2      1.0000 0.27219  0.60040  0.97804  Biso   1.000  Ti
  P3       1.0000 0.78677  0.88578  0.73457  Biso   1.000  P
  P4       1.0000 0.76027  0.54614  0.16009  Biso   1.000  P
  O10      1.0000 0.73620  0.82270  0.65100  Biso   1.000  O
  O11      1.0000 0.27960  0.69070  0.03070  Biso   1.000  O
  O12      1.0000 0.58260  0.89243  0.85840  Biso   1.000  O
  O13      1.0000 0.97510  0.59140  0.10630  Biso   1.000  O
  O14      1.0000 0.06160  0.88292  0.80410  Biso   1.000  O
  O15      1.0000 0.24910  0.51240  0.93820  Biso   1.000  O
  O16      1.0000 0.49410  0.58086  0.15570  Biso   1.000  O
  O17      1.0000 0.76530  0.93885  0.62010  Biso   1.000  O
  O18      1.0000 0.81510  0.52950  0.32400  Biso   1.000  O
  Ti3      1.0000 0.27219  0.89960  0.97804  Biso   1.000  Ti
  P5       1.0000 0.78677  0.61422  0.73457  Biso   1.000  P
  P6       1.0000 0.76027  0.95386  0.16009  Biso   1.000  P
  O19      1.0000 0.73620  0.67730  0.65100  Biso   1.000  O
  O20      1.0000 0.27960  0.80930  0.03070  Biso   1.000  O
  O21      1.0000 0.58260  0.60757  0.85840  Biso   1.000  O
  O22      1.0000 0.97510  0.90860  0.10630  Biso   1.000  O
  O23      1.0000 0.06160  0.61708  0.80410  Biso   1.000  O
  O24      1.0000 0.24910  0.98760  0.93820  Biso   1.000  O
  O25      1.0000 0.49410  0.91914  0.15570  Biso   1.000  O
  O26      1.0000 0.76530  0.56115  0.62010  Biso   1.000  O
  O27      1.0000 0.81510  0.97050  0.32400  Biso   1.000  O
  Ti4      1.0000 0.72781  0.39960  0.02196  Biso   1.000  Ti
  P7       1.0000 0.21323  0.11422  0.26543  Biso   1.000  P
  P8       1.0000 0.23973  0.45386  0.83991  Biso   1.000  P
  O28      1.0000 0.26380  0.17730  0.34900  Biso   1.000  O
  O29      1.0000 0.72040  0.30930  0.96930  Biso   1.000  O
  O30      1.0000 0.41740  0.10757  0.14160  Biso   1.000  O
  O31      1.0000 0.02490  0.40860  0.89370  Biso   1.000  O
  O32      1.0000 0.93840  0.11708  0.19590  Biso   1.000  O
  O33      1.0000 0.75090  0.48760  0.06180  Biso   1.000  O
  O34      1.0000 0.50590  0.41914  0.84430  Biso   1.000  O
  O35      1.0000 0.23470  0.06115  0.37990  Biso   1.000  O
  O36      1.0000 0.18490  0.47050  0.67600  Biso   1.000  O
  Ga1      1.0000 0.31530  0.25000  0.24392  Biso   1.000  Ga
  P9       1.0000 0.80270  0.25000  0.05581  Biso   1.000  P
  O37      1.0000 0.66760  0.25000  0.21090  Biso   1.000  O
  O38      1.0000 0.10260  0.25000  0.07860  Biso   1.000  O
  Ga2      1.0000 0.68470  0.75000  0.75608  Biso   1.000  Ga
  P10      1.0000 0.19730  0.75000  0.94419  Biso   1.000  P
  O39      1.0000 0.33240  0.75000  0.78910  Biso   1.000  O
  O40      1.0000 0.89740  0.75000  0.92140  Biso   1.000  O
  Ti5      1.0000 0.00000  0.50000  0.50000  Biso   1.000  Ti
  Ti6      1.0000 0.00000  0.00000  0.50000  Biso   1.000  Ti
