data_QAQRUW_clean
_audit_creation_date              2014-07-02
_audit_creation_method            'Materials Studio'
_symmetry_space_group_name_H-M    'P1'
_symmetry_Int_Tables_number       1
_symmetry_cell_setting            triclinic
loop_
_symmetry_equiv_pos_as_xyz
  x,y,z
_cell_length_a                    11.7436
_cell_length_b                    11.7436
_cell_length_c                    20.9790
_cell_angle_alpha                 97.3327
_cell_angle_beta                  97.3327
_cell_angle_gamma                 100.3330
loop_
_atom_site_label
_atom_site_type_symbol
_atom_site_fract_x
_atom_site_fract_y
_atom_site_fract_z
_atom_site_U_iso_or_equiv
_atom_site_adp_type
_atom_site_occupancy
Mg1    Mg    0.04988   0.54042   0.30768   0.01267  Uiso   1.00
Mg2    Mg    0.45958   0.95012   0.19232   0.01267  Uiso   1.00
Mg3    Mg    0.95012   0.45958   0.69232   0.01267  Uiso   1.00
Mg4    Mg    0.54042   0.04988   0.80768   0.01267  Uiso   1.00
Mg5    Mg    0.24815   0.75185   0.25000   0.01267  Uiso   1.00
Mg6    Mg    0.75185   0.24815   0.75000   0.01267  Uiso   1.00
H1     H     0.12440   0.02300   0.36100   0.01267  Uiso   1.00
H2     H     0.07970   0.16650   0.43370   0.01267  Uiso   1.00
H3     H     0.99950   0.77610   0.46330   0.01267  Uiso   1.00
H4     H     0.50180   0.73080   0.41430   0.01267  Uiso   1.00
H5     H     0.63540   0.70600   0.49930   0.01267  Uiso   1.00
H6     H     0.30420   0.41480   0.41780   0.01267  Uiso   1.00
H7     H     0.03390   0.31070   0.11000   0.01267  Uiso   1.00
H8     H     0.98990   0.27170   0.99840   0.01267  Uiso   1.00
H9     H     0.05390   0.65690   0.10870   0.01267  Uiso   1.00
H10    H     0.97700   0.87560   0.13900   0.01267  Uiso   1.00
H11    H     0.83350   0.92030   0.06630   0.01267  Uiso   1.00
H12    H     0.22390   0.00050   0.03670   0.01267  Uiso   1.00
H13    H     0.26920   0.49820   0.08570   0.01267  Uiso   1.00
H14    H     0.29400   0.36460   0.00070   0.01267  Uiso   1.00
H15    H     0.58520   0.69580   0.08220   0.01267  Uiso   1.00
H16    H     0.68930   0.96610   0.39000   0.01267  Uiso   1.00
H17    H     0.72830   0.01010   0.50160   0.01267  Uiso   1.00
H18    H     0.34310   0.94610   0.39130   0.01267  Uiso   1.00
H19    H     0.87560   0.97700   0.63900   0.01267  Uiso   1.00
H20    H     0.92030   0.83350   0.56630   0.01267  Uiso   1.00
H21    H     0.00050   0.22390   0.53670   0.01267  Uiso   1.00
H22    H     0.49820   0.26920   0.58570   0.01267  Uiso   1.00
H23    H     0.36460   0.29400   0.50070   0.01267  Uiso   1.00
H24    H     0.69580   0.58520   0.58220   0.01267  Uiso   1.00
H25    H     0.96610   0.68930   0.89000   0.01267  Uiso   1.00
H26    H     0.01010   0.72830   0.00160   0.01267  Uiso   1.00
H27    H     0.94610   0.34310   0.89130   0.01267  Uiso   1.00
H28    H     0.02300   0.12440   0.86100   0.01267  Uiso   1.00
H29    H     0.16650   0.07970   0.93370   0.01267  Uiso   1.00
H30    H     0.77610   0.99950   0.96330   0.01267  Uiso   1.00
H31    H     0.73080   0.50180   0.91430   0.01267  Uiso   1.00
H32    H     0.70600   0.63540   0.99930   0.01267  Uiso   1.00
H33    H     0.41480   0.30420   0.91780   0.01267  Uiso   1.00
H34    H     0.31070   0.03390   0.61000   0.01267  Uiso   1.00
H35    H     0.27170   0.98990   0.49840   0.01267  Uiso   1.00
H36    H     0.65690   0.05390   0.60870   0.01267  Uiso   1.00
C1     C     0.10240   0.79520   0.35980   0.01267  Uiso   1.00
C2     C     0.06880   0.88660   0.40630   0.01267  Uiso   1.00
C3     C     0.09020   0.00200   0.39760   0.01267  Uiso   1.00
C4     C     0.06340   0.08720   0.44070   0.01267  Uiso   1.00
C5     C     0.01210   0.05890   0.49530   0.01267  Uiso   1.00
C6     C     0.01670   0.85630   0.45820   0.01267  Uiso   1.00
C7     C     0.30190   0.59050   0.35180   0.01267  Uiso   1.00
C8     C     0.39000   0.57400   0.40680   0.01267  Uiso   1.00
C9     C     0.48890   0.66050   0.43260   0.01267  Uiso   1.00
C10    C     0.56760   0.64660   0.48350   0.01267  Uiso   1.00
C11    C     0.54910   0.54470   0.51270   0.01267  Uiso   1.00
C12    C     0.37180   0.47360   0.43460   0.01267  Uiso   1.00
C13    C     0.06660   0.50920   0.19130   0.01267  Uiso   1.00
C14    C     0.04700   0.48820   0.11920   0.01267  Uiso   1.00
C15    C     0.02800   0.37340   0.08600   0.01267  Uiso   1.00
C16    C     0.00110   0.35010   0.01990   0.01267  Uiso   1.00
C17    C     0.98950   0.44090   0.98310   0.01267  Uiso   1.00
C18    C     0.03960   0.57920   0.08580   0.01267  Uiso   1.00
C19    C     0.20480   0.89760   0.14020   0.01267  Uiso   1.00
C20    C     0.11340   0.93120   0.09370   0.01267  Uiso   1.00
C21    C     0.99800   0.90980   0.10240   0.01267  Uiso   1.00
C22    C     0.91280   0.93660   0.05930   0.01267  Uiso   1.00
C23    C     0.94110   0.98790   0.00470   0.01267  Uiso   1.00
C24    C     0.14370   0.98330   0.04180   0.01267  Uiso   1.00
C25    C     0.40950   0.69810   0.14820   0.01267  Uiso   1.00
C26    C     0.42600   0.61000   0.09320   0.01267  Uiso   1.00
C27    C     0.33950   0.51110   0.06740   0.01267  Uiso   1.00
C28    C     0.35340   0.43240   0.01650   0.01267  Uiso   1.00
C29    C     0.45530   0.45090   0.98730   0.01267  Uiso   1.00
C30    C     0.52640   0.62820   0.06540   0.01267  Uiso   1.00
C31    C     0.49080   0.93340   0.30870   0.01267  Uiso   1.00
C32    C     0.51180   0.95300   0.38080   0.01267  Uiso   1.00
C33    C     0.62660   0.97200   0.41400   0.01267  Uiso   1.00
C34    C     0.64990   0.99890   0.48010   0.01267  Uiso   1.00
C35    C     0.55910   0.01050   0.51690   0.01267  Uiso   1.00
C36    C     0.42080   0.96040   0.41420   0.01267  Uiso   1.00
C37    C     0.89760   0.20480   0.64020   0.01267  Uiso   1.00
C38    C     0.93120   0.11340   0.59370   0.01267  Uiso   1.00
C39    C     0.90980   0.99800   0.60240   0.01267  Uiso   1.00
C40    C     0.93660   0.91280   0.55930   0.01267  Uiso   1.00
C41    C     0.98790   0.94110   0.50470   0.01267  Uiso   1.00
C42    C     0.98330   0.14370   0.54180   0.01267  Uiso   1.00
C43    C     0.69810   0.40950   0.64820   0.01267  Uiso   1.00
C44    C     0.61000   0.42600   0.59320   0.01267  Uiso   1.00
C45    C     0.51110   0.33950   0.56740   0.01267  Uiso   1.00
C46    C     0.43240   0.35340   0.51650   0.01267  Uiso   1.00
C47    C     0.45090   0.45530   0.48730   0.01267  Uiso   1.00
C48    C     0.62820   0.52640   0.56540   0.01267  Uiso   1.00
C49    C     0.93340   0.49080   0.80870   0.01267  Uiso   1.00
C50    C     0.95300   0.51180   0.88080   0.01267  Uiso   1.00
C51    C     0.97200   0.62660   0.91400   0.01267  Uiso   1.00
C52    C     0.99890   0.64990   0.98010   0.01267  Uiso   1.00
C53    C     0.01050   0.55910   0.01690   0.01267  Uiso   1.00
C54    C     0.96040   0.42080   0.91420   0.01267  Uiso   1.00
C55    C     0.79520   0.10240   0.85980   0.01267  Uiso   1.00
C56    C     0.88660   0.06880   0.90630   0.01267  Uiso   1.00
C57    C     0.00200   0.09020   0.89760   0.01267  Uiso   1.00
C58    C     0.08720   0.06340   0.94070   0.01267  Uiso   1.00
C59    C     0.05890   0.01210   0.99530   0.01267  Uiso   1.00
C60    C     0.85630   0.01670   0.95820   0.01267  Uiso   1.00
C61    C     0.59050   0.30190   0.85180   0.01267  Uiso   1.00
C62    C     0.57400   0.39000   0.90680   0.01267  Uiso   1.00
C63    C     0.66050   0.48890   0.93260   0.01267  Uiso   1.00
C64    C     0.64660   0.56760   0.98350   0.01267  Uiso   1.00
C65    C     0.54470   0.54910   0.01270   0.01267  Uiso   1.00
C66    C     0.47360   0.37180   0.93460   0.01267  Uiso   1.00
C67    C     0.50920   0.06660   0.69130   0.01267  Uiso   1.00
C68    C     0.48820   0.04700   0.61920   0.01267  Uiso   1.00
C69    C     0.37340   0.02800   0.58600   0.01267  Uiso   1.00
C70    C     0.35010   0.00110   0.51990   0.01267  Uiso   1.00
C71    C     0.44090   0.98950   0.48310   0.01267  Uiso   1.00
C72    C     0.57920   0.03960   0.58580   0.01267  Uiso   1.00
O1     O     0.07370   0.68990   0.36920   0.01267  Uiso   1.00
O2     O     0.15530   0.82890   0.31544   0.01267  Uiso   1.00
O3     O     0.32910   0.67470   0.32234   0.01267  Uiso   1.00
O4     O     0.20810   0.51490   0.33983   0.01267  Uiso   1.00
O5     O     0.10500   0.61140   0.22307   0.01267  Uiso   1.00
O6     O     0.03530   0.42330   0.21984   0.01267  Uiso   1.00
O7     O     0.31010   0.92630   0.13080   0.01267  Uiso   1.00
O8     O     0.17110   0.84470   0.18456   0.01267  Uiso   1.00
O9     O     0.32530   0.67090   0.17766   0.01267  Uiso   1.00
O10    O     0.48510   0.79190   0.16017   0.01267  Uiso   1.00
O11    O     0.38860   0.89500   0.27693   0.01267  Uiso   1.00
O12    O     0.57670   0.96470   0.28016   0.01267  Uiso   1.00
O13    O     0.92630   0.31010   0.63080   0.01267  Uiso   1.00
O14    O     0.84470   0.17110   0.68456   0.01267  Uiso   1.00
O15    O     0.67090   0.32530   0.67766   0.01267  Uiso   1.00
O16    O     0.79190   0.48510   0.66017   0.01267  Uiso   1.00
O17    O     0.89500   0.38860   0.77693   0.01267  Uiso   1.00
O18    O     0.96470   0.57670   0.78016   0.01267  Uiso   1.00
O19    O     0.68990   0.07370   0.86920   0.01267  Uiso   1.00
O20    O     0.82890   0.15530   0.81544   0.01267  Uiso   1.00
O21    O     0.67470   0.32910   0.82234   0.01267  Uiso   1.00
O22    O     0.51490   0.20810   0.83983   0.01267  Uiso   1.00
O23    O     0.61140   0.10500   0.72307   0.01267  Uiso   1.00
O24    O     0.42330   0.03530   0.71984   0.01267  Uiso   1.00
