data_QAQSAD_clean
_audit_creation_date              2014-07-02
_audit_creation_method            'Materials Studio'
_symmetry_space_group_name_H-M    'P1'
_symmetry_Int_Tables_number       1
_symmetry_cell_setting            triclinic
loop_
_symmetry_equiv_pos_as_xyz
  x,y,z
_cell_length_a                    10.3270
_cell_length_b                    11.0670
_cell_length_c                    11.6920
_cell_angle_alpha                 112.3300
_cell_angle_beta                  97.3100
_cell_angle_gamma                 106.7900
loop_
_atom_site_label
_atom_site_type_symbol
_atom_site_fract_x
_atom_site_fract_y
_atom_site_fract_z
_atom_site_U_iso_or_equiv
_atom_site_adp_type
_atom_site_occupancy
Zn1    Zn    0.83336   0.16711   0.86002   0.01267  Uiso   1.00
Zn2    Zn    0.16664   0.83289   0.13998   0.01267  Uiso   1.00
Zn3    Zn    0.00000   0.00000   0.00000   0.01267  Uiso   1.00
H1     H     0.09520   0.33090   0.33600   0.01267  Uiso   1.00
H2     H     0.22810   0.45370   0.56800   0.01267  Uiso   1.00
H3     H     0.74930   0.39890   0.22380   0.01267  Uiso   1.00
H4     H     0.67750   0.66020   0.82000   0.01267  Uiso   1.00
H5     H     0.55810   0.42730   0.68550   0.01267  Uiso   1.00
H6     H     0.57510   0.76360   0.53490   0.01267  Uiso   1.00
H7     H     0.35250   0.14600   0.91420   0.01267  Uiso   1.00
H8     H     0.58400   0.29060   0.98310   0.01267  Uiso   1.00
H9     H     0.23320   0.46910   0.94010   0.01267  Uiso   1.00
H10    H     0.90480   0.66910   0.66400   0.01267  Uiso   1.00
H11    H     0.77190   0.54630   0.43200   0.01267  Uiso   1.00
H12    H     0.25070   0.60110   0.77620   0.01267  Uiso   1.00
H13    H     0.32250   0.33980   0.18000   0.01267  Uiso   1.00
H14    H     0.44190   0.57270   0.31450   0.01267  Uiso   1.00
H15    H     0.42490   0.23640   0.46510   0.01267  Uiso   1.00
H16    H     0.64750   0.85400   0.08580   0.01267  Uiso   1.00
H17    H     0.41600   0.70940   0.01690   0.01267  Uiso   1.00
H18    H     0.76680   0.53090   0.05990   0.01267  Uiso   1.00
C1     C     0.91050   0.25530   0.12470   0.01267  Uiso   1.00
C2     C     0.92180   0.35040   0.26040   0.01267  Uiso   1.00
C3     C     0.03170   0.37530   0.35630   0.01267  Uiso   1.00
C4     C     0.05030   0.46760   0.48600   0.01267  Uiso   1.00
C5     C     0.16260   0.49570   0.58640   0.01267  Uiso   1.00
C6     C     0.82340   0.41580   0.28920   0.01267  Uiso   1.00
C7     C     0.72080   0.88790   0.77830   0.01267  Uiso   1.00
C8     C     0.63920   0.73580   0.68890   0.01267  Uiso   1.00
C9     C     0.63340   0.63270   0.73490   0.01267  Uiso   1.00
C10    C     0.56310   0.49370   0.65420   0.01267  Uiso   1.00
C11    C     0.57330   0.69550   0.56350   0.01267  Uiso   1.00
C12    C     0.49760   0.44890   0.52330   0.01267  Uiso   1.00
C13    C     0.11740   0.20050   0.88520   0.01267  Uiso   1.00
C14    C     0.26850   0.29460   0.92200   0.01267  Uiso   1.00
C15    C     0.37620   0.24070   0.93430   0.01267  Uiso   1.00
C16    C     0.51460   0.32730   0.97530   0.01267  Uiso   1.00
C17    C     0.55370   0.47270   0.00640   0.01267  Uiso   1.00
C18    C     0.30400   0.43460   0.95000   0.01267  Uiso   1.00
C19    C     0.08950   0.74470   0.87530   0.01267  Uiso   1.00
C20    C     0.07820   0.64960   0.73960   0.01267  Uiso   1.00
C21    C     0.96830   0.62470   0.64370   0.01267  Uiso   1.00
C22    C     0.94970   0.53240   0.51400   0.01267  Uiso   1.00
C23    C     0.83740   0.50430   0.41360   0.01267  Uiso   1.00
C24    C     0.17660   0.58420   0.71080   0.01267  Uiso   1.00
C25    C     0.27920   0.11210   0.22170   0.01267  Uiso   1.00
C26    C     0.36080   0.26420   0.31110   0.01267  Uiso   1.00
C27    C     0.36660   0.36730   0.26510   0.01267  Uiso   1.00
C28    C     0.43690   0.50630   0.34580   0.01267  Uiso   1.00
C29    C     0.42670   0.30450   0.43650   0.01267  Uiso   1.00
C30    C     0.50240   0.55110   0.47670   0.01267  Uiso   1.00
C31    C     0.88260   0.79950   0.11480   0.01267  Uiso   1.00
C32    C     0.73150   0.70540   0.07800   0.01267  Uiso   1.00
C33    C     0.62380   0.75930   0.06570   0.01267  Uiso   1.00
C34    C     0.48540   0.67270   0.02470   0.01267  Uiso   1.00
C35    C     0.44630   0.52730   0.99360   0.01267  Uiso   1.00
C36    C     0.69600   0.56540   0.05000   0.01267  Uiso   1.00
O1     O     0.99350   0.19155   0.10729   0.01267  Uiso   1.00
O2     O     0.81900   0.24940   0.03622   0.01267  Uiso   1.00
O3     O     0.71360   0.97787   0.73584   0.01267  Uiso   1.00
O4     O     0.79130   0.92181   0.88808   0.01267  Uiso   1.00
O5     O     0.08630   0.07771   0.87559   0.01267  Uiso   1.00
O6     O     0.02710   0.25320   0.86540   0.01267  Uiso   1.00
O7     O     0.00650   0.80845   0.89271   0.01267  Uiso   1.00
O8     O     0.18100   0.75060   0.96378   0.01267  Uiso   1.00
O9     O     0.28640   0.02213   0.26416   0.01267  Uiso   1.00
O10    O     0.20870   0.07819   0.11192   0.01267  Uiso   1.00
O11    O     0.91370   0.92229   0.12441   0.01267  Uiso   1.00
O12    O     0.97290   0.74680   0.13460   0.01267  Uiso   1.00
