data_QARCET_clean
_audit_creation_date              2014-07-02
_audit_creation_method            'Materials Studio'
_symmetry_space_group_name_H-M    'P1'
_symmetry_Int_Tables_number       1
_symmetry_cell_setting            triclinic
loop_
_symmetry_equiv_pos_as_xyz
  x,y,z
_cell_length_a                    13.5510
_cell_length_b                    16.1810
_cell_length_c                    16.5400
_cell_angle_alpha                 109.4600
_cell_angle_beta                  101.2100
_cell_angle_gamma                 109.7500
loop_
_atom_site_label
_atom_site_type_symbol
_atom_site_fract_x
_atom_site_fract_y
_atom_site_fract_z
_atom_site_U_iso_or_equiv
_atom_site_adp_type
_atom_site_occupancy
Zn1    Zn    0.50457   0.42315   0.82476   0.01267  Uiso   1.00
Zn2    Zn    0.82959   0.54317   0.42653   0.01267  Uiso   1.00
Zn3    Zn    0.41081   0.79647   0.48912   0.01267  Uiso   1.00
Zn4    Zn    0.49543   0.57685   0.17524   0.01267  Uiso   1.00
Zn5    Zn    0.17041   0.45683   0.57347   0.01267  Uiso   1.00
Zn6    Zn    0.58919   0.20353   0.51088   0.01267  Uiso   1.00
H1     H     0.87590   0.67960   0.87850   0.01267  Uiso   1.00
H2     H     0.84120   0.67100   0.73100   0.01267  Uiso   1.00
H3     H     0.65800   0.58390   0.62890   0.01267  Uiso   1.00
H4     H     0.52390   0.49190   0.66790   0.01267  Uiso   1.00
H5     H     0.02950   0.73230   0.11080   0.01267  Uiso   1.00
H6     H     0.16830   0.87490   0.13280   0.01267  Uiso   1.00
H7     H     0.11900   0.98850   0.10110   0.01267  Uiso   1.00
H8     H     0.93500   0.94900   0.03270   0.01267  Uiso   1.00
H9     H     0.00410   0.88550   0.67840   0.01267  Uiso   1.00
H10    H     0.83850   0.89800   0.68230   0.01267  Uiso   1.00
H11    H     0.66900   0.76770   0.58530   0.01267  Uiso   1.00
H12    H     0.66790   0.62910   0.48840   0.01267  Uiso   1.00
H13    H     0.12550   0.81820   0.78680   0.01267  Uiso   1.00
H14    H     0.21300   0.96070   0.92200   0.01267  Uiso   1.00
H15    H     0.31720   0.10420   0.91690   0.01267  Uiso   1.00
H16    H     0.34180   0.09970   0.78330   0.01267  Uiso   1.00
H17    H     0.04440   0.75570   0.28990   0.01267  Uiso   1.00
H18    H     0.98820   0.60060   0.17990   0.01267  Uiso   1.00
H19    H     0.09330   0.51780   0.19350   0.01267  Uiso   1.00
H20    H     0.25050   0.59050   0.32040   0.01267  Uiso   1.00
H21    H     0.09580   0.95970   0.31990   0.01267  Uiso   1.00
H22    H     0.90920   0.90830   0.24200   0.01267  Uiso   1.00
H23    H     0.77640   0.82450   0.29030   0.01267  Uiso   1.00
H24    H     0.83130   0.79170   0.40910   0.01267  Uiso   1.00
H25    H     0.12410   0.32040   0.12150   0.01267  Uiso   1.00
H26    H     0.15880   0.32900   0.26900   0.01267  Uiso   1.00
H27    H     0.34200   0.41610   0.37110   0.01267  Uiso   1.00
H28    H     0.47610   0.50810   0.33210   0.01267  Uiso   1.00
H29    H     0.97050   0.26770   0.88920   0.01267  Uiso   1.00
H30    H     0.83170   0.12510   0.86720   0.01267  Uiso   1.00
H31    H     0.88100   0.01150   0.89890   0.01267  Uiso   1.00
H32    H     0.06500   0.05100   0.96730   0.01267  Uiso   1.00
H33    H     0.99590   0.11450   0.32160   0.01267  Uiso   1.00
H34    H     0.16150   0.10200   0.31770   0.01267  Uiso   1.00
H35    H     0.33100   0.23230   0.41470   0.01267  Uiso   1.00
H36    H     0.33210   0.37090   0.51160   0.01267  Uiso   1.00
H37    H     0.87450   0.18180   0.21320   0.01267  Uiso   1.00
H38    H     0.78700   0.03930   0.07800   0.01267  Uiso   1.00
H39    H     0.68280   0.89580   0.08310   0.01267  Uiso   1.00
H40    H     0.65820   0.90030   0.21670   0.01267  Uiso   1.00
H41    H     0.95560   0.24430   0.71010   0.01267  Uiso   1.00
H42    H     0.01180   0.39940   0.82010   0.01267  Uiso   1.00
H43    H     0.90670   0.48220   0.80650   0.01267  Uiso   1.00
H44    H     0.74950   0.40950   0.67960   0.01267  Uiso   1.00
H45    H     0.90420   0.04030   0.68010   0.01267  Uiso   1.00
H46    H     0.09080   0.09170   0.75800   0.01267  Uiso   1.00
H47    H     0.22360   0.17550   0.70970   0.01267  Uiso   1.00
H48    H     0.16870   0.20830   0.59090   0.01267  Uiso   1.00
C1     C     0.54680   0.41210   0.00050   0.01267  Uiso   1.00
C2     C     0.72260   0.56190   0.18910   0.01267  Uiso   1.00
C3     C     0.64540   0.49930   0.01920   0.01267  Uiso   1.00
C4     C     0.72950   0.56760   0.10290   0.01267  Uiso   1.00
C5     C     0.81530   0.65590   0.03150   0.01267  Uiso   1.00
C6     C     0.73100   0.58850   0.94690   0.01267  Uiso   1.00
C7     C     0.71820   0.59070   0.85620   0.01267  Uiso   1.00
C8     C     0.80450   0.64230   0.83500   0.01267  Uiso   1.00
C9     C     0.78380   0.63810   0.74750   0.01267  Uiso   1.00
C10    C     0.67590   0.58400   0.68620   0.01267  Uiso   1.00
C11    C     0.59580   0.53080   0.71050   0.01267  Uiso   1.00
C12    C     0.90550   0.75060   0.04860   0.01267  Uiso   1.00
C13    C     0.01140   0.77480   0.09170   0.01267  Uiso   1.00
C14    C     0.09360   0.86080   0.10810   0.01267  Uiso   1.00
C15    C     0.06410   0.92770   0.08720   0.01267  Uiso   1.00
C16    C     0.95370   0.90360   0.04610   0.01267  Uiso   1.00
C17    C     0.02990   0.51440   0.40850   0.01267  Uiso   1.00
C18    C     0.27960   0.63730   0.53710   0.01267  Uiso   1.00
C19    C     0.07750   0.61140   0.48510   0.01267  Uiso   1.00
C20    C     0.19010   0.67020   0.54140   0.01267  Uiso   1.00
C21    C     0.14310   0.78720   0.62530   0.01267  Uiso   1.00
C22    C     0.02870   0.72860   0.57150   0.01267  Uiso   1.00
C23    C     0.92870   0.74730   0.58030   0.01267  Uiso   1.00
C24    C     0.93520   0.83340   0.64010   0.01267  Uiso   1.00
C25    C     0.83630   0.84070   0.64210   0.01267  Uiso   1.00
C26    C     0.73580   0.76370   0.58490   0.01267  Uiso   1.00
C27    C     0.73610   0.68140   0.52780   0.01267  Uiso   1.00
C28    C     0.18760   0.87910   0.70990   0.01267  Uiso   1.00
C29    C     0.17080   0.87650   0.78760   0.01267  Uiso   1.00
C30    C     0.22140   0.96110   0.86770   0.01267  Uiso   1.00
C31    C     0.28410   0.04540   0.86480   0.01267  Uiso   1.00
C32    C     0.29750   0.04200   0.78400   0.01267  Uiso   1.00
C33    C     0.50880   0.00210   0.61670   0.01267  Uiso   1.00
C34    C     0.42690   0.16200   0.62000   0.01267  Uiso   1.00
C35    C     0.39980   0.98610   0.56140   0.01267  Uiso   1.00
C36    C     0.35870   0.05470   0.56410   0.01267  Uiso   1.00
C37    C     0.18910   0.93260   0.45740   0.01267  Uiso   1.00
C38    C     0.23500   0.86510   0.44400   0.01267  Uiso   1.00
C39    C     0.18250   0.76320   0.36990   0.01267  Uiso   1.00
C40    C     0.08650   0.72160   0.29570   0.01267  Uiso   1.00
C41    C     0.05340   0.62930   0.23010   0.01267  Uiso   1.00
C42    C     0.11440   0.58000   0.23790   0.01267  Uiso   1.00
C43    C     0.20900   0.62480   0.31380   0.01267  Uiso   1.00
C44    C     0.06950   0.90540   0.41030   0.01267  Uiso   1.00
C45    C     0.04070   0.92560   0.33780   0.01267  Uiso   1.00
C46    C     0.93040   0.89510   0.29160   0.01267  Uiso   1.00
C47    C     0.85190   0.84500   0.31970   0.01267  Uiso   1.00
C48    C     0.88550   0.82560   0.39050   0.01267  Uiso   1.00
C49    C     0.45320   0.58790   0.99950   0.01267  Uiso   1.00
C50    C     0.27740   0.43810   0.81090   0.01267  Uiso   1.00
C51    C     0.35460   0.50070   0.98080   0.01267  Uiso   1.00
C52    C     0.27050   0.43240   0.89710   0.01267  Uiso   1.00
C53    C     0.18470   0.34410   0.96850   0.01267  Uiso   1.00
C54    C     0.26900   0.41150   0.05310   0.01267  Uiso   1.00
C55    C     0.28180   0.40930   0.14380   0.01267  Uiso   1.00
C56    C     0.19550   0.35770   0.16500   0.01267  Uiso   1.00
C57    C     0.21620   0.36190   0.25250   0.01267  Uiso   1.00
C58    C     0.32410   0.41600   0.31380   0.01267  Uiso   1.00
C59    C     0.40420   0.46920   0.28950   0.01267  Uiso   1.00
C60    C     0.09450   0.24940   0.95140   0.01267  Uiso   1.00
C61    C     0.98860   0.22520   0.90830   0.01267  Uiso   1.00
C62    C     0.90640   0.13920   0.89190   0.01267  Uiso   1.00
C63    C     0.93590   0.07230   0.91280   0.01267  Uiso   1.00
C64    C     0.04630   0.09640   0.95390   0.01267  Uiso   1.00
C65    C     0.97010   0.48560   0.59150   0.01267  Uiso   1.00
C66    C     0.72040   0.36270   0.46290   0.01267  Uiso   1.00
C67    C     0.92250   0.38860   0.51490   0.01267  Uiso   1.00
C68    C     0.80990   0.32980   0.45860   0.01267  Uiso   1.00
C69    C     0.85690   0.21280   0.37470   0.01267  Uiso   1.00
C70    C     0.97130   0.27140   0.42850   0.01267  Uiso   1.00
C71    C     0.07130   0.25270   0.41970   0.01267  Uiso   1.00
C72    C     0.06480   0.16660   0.35990   0.01267  Uiso   1.00
C73    C     0.16370   0.15930   0.35790   0.01267  Uiso   1.00
C74    C     0.26420   0.23630   0.41510   0.01267  Uiso   1.00
C75    C     0.26390   0.31860   0.47220   0.01267  Uiso   1.00
C76    C     0.81240   0.12090   0.29010   0.01267  Uiso   1.00
C77    C     0.82920   0.12350   0.21240   0.01267  Uiso   1.00
C78    C     0.77860   0.03890   0.13230   0.01267  Uiso   1.00
C79    C     0.71590   0.95460   0.13520   0.01267  Uiso   1.00
C80    C     0.70250   0.95800   0.21600   0.01267  Uiso   1.00
C81    C     0.49120   0.99790   0.38330   0.01267  Uiso   1.00
C82    C     0.57310   0.83800   0.38000   0.01267  Uiso   1.00
C83    C     0.60020   0.01390   0.43860   0.01267  Uiso   1.00
C84    C     0.64130   0.94530   0.43590   0.01267  Uiso   1.00
C85    C     0.81090   0.06740   0.54260   0.01267  Uiso   1.00
C86    C     0.76500   0.13490   0.55600   0.01267  Uiso   1.00
C87    C     0.81750   0.23680   0.63010   0.01267  Uiso   1.00
C88    C     0.91350   0.27840   0.70430   0.01267  Uiso   1.00
C89    C     0.94660   0.37070   0.76990   0.01267  Uiso   1.00
C90    C     0.88560   0.42000   0.76210   0.01267  Uiso   1.00
C91    C     0.79100   0.37520   0.68620   0.01267  Uiso   1.00
C92    C     0.93050   0.09460   0.58970   0.01267  Uiso   1.00
C93    C     0.95930   0.07440   0.66220   0.01267  Uiso   1.00
C94    C     0.06960   0.10490   0.70840   0.01267  Uiso   1.00
C95    C     0.14810   0.15500   0.68030   0.01267  Uiso   1.00
C96    C     0.11450   0.17440   0.60950   0.01267  Uiso   1.00
N1     N     0.47000   0.36410   0.91770   0.01267  Uiso   1.00
N2     N     0.39190   0.28830   0.92000   0.01267  Uiso   1.00
N3     N     0.42250   0.29160   0.00220   0.01267  Uiso   1.00
N4     N     0.52210   0.37110   0.05560   0.01267  Uiso   1.00
N5     N     0.64010   0.56720   0.21980   0.01267  Uiso   1.00
N6     N     0.66330   0.56210   0.29970   0.01267  Uiso   1.00
N7     N     0.75740   0.55400   0.31440   0.01267  Uiso   1.00
N8     N     0.79740   0.55340   0.24620   0.01267  Uiso   1.00
N9     N     0.64780   0.51260   0.94360   0.01267  Uiso   1.00
N10    N     0.81430   0.64330   0.10760   0.01267  Uiso   1.00
N11    N     0.61720   0.53260   0.79380   0.01267  Uiso   1.00
N12    N     0.86900   0.81310   0.02400   0.01267  Uiso   1.00
N13    N     0.91880   0.46850   0.36960   0.01267  Uiso   1.00
N14    N     0.89840   0.38370   0.30190   0.01267  Uiso   1.00
N15    N     0.99520   0.38030   0.30270   0.01267  Uiso   1.00
N16    N     0.08070   0.46340   0.37140   0.01267  Uiso   1.00
N17    N     0.37470   0.68590   0.52780   0.01267  Uiso   1.00
N18    N     0.43750   0.63730   0.53480   0.01267  Uiso   1.00
N19    N     0.38240   0.56310   0.54930   0.01267  Uiso   1.00
N20    N     0.28150   0.56130   0.55080   0.01267  Uiso   1.00
N21    N     0.00120   0.64290   0.50130   0.01267  Uiso   1.00
N22    N     0.22100   0.75820   0.60860   0.01267  Uiso   1.00
N23    N     0.83040   0.67170   0.52520   0.01267  Uiso   1.00
N24    N     0.25020   0.96000   0.70580   0.01267  Uiso   1.00
N25    N     0.53300   0.92630   0.60040   0.01267  Uiso   1.00
N26    N     0.63770   0.96130   0.65760   0.01267  Uiso   1.00
N27    N     0.67250   0.05530   0.70710   0.01267  Uiso   1.00
N28    N     0.59100   0.08400   0.68180   0.01267  Uiso   1.00
N29    N     0.41410   0.21290   0.69460   0.01267  Uiso   1.00
N30    N     0.48750   0.30500   0.71940   0.01267  Uiso   1.00
N31    N     0.54030   0.30930   0.66210   0.01267  Uiso   1.00
N32    N     0.50370   0.21840   0.59780   0.01267  Uiso   1.00
N33    N     0.33760   0.89370   0.49930   0.01267  Uiso   1.00
N34    N     0.25270   0.02720   0.51430   0.01267  Uiso   1.00
N35    N     0.24510   0.71460   0.37880   0.01267  Uiso   1.00
N36    N     0.99470   0.85320   0.43620   0.01267  Uiso   1.00
N37    N     0.53000   0.63590   0.08230   0.01267  Uiso   1.00
N38    N     0.60810   0.71170   0.08000   0.01267  Uiso   1.00
N39    N     0.57750   0.70840   0.99780   0.01267  Uiso   1.00
N40    N     0.47790   0.62890   0.94440   0.01267  Uiso   1.00
N41    N     0.35990   0.43280   0.78020   0.01267  Uiso   1.00
N42    N     0.33670   0.43790   0.70030   0.01267  Uiso   1.00
N43    N     0.24260   0.44600   0.68560   0.01267  Uiso   1.00
N44    N     0.20260   0.44660   0.75380   0.01267  Uiso   1.00
N45    N     0.35220   0.48740   0.05640   0.01267  Uiso   1.00
N46    N     0.18570   0.35670   0.89240   0.01267  Uiso   1.00
N47    N     0.38280   0.46740   0.20620   0.01267  Uiso   1.00
N48    N     0.13100   0.18690   0.97600   0.01267  Uiso   1.00
N49    N     0.08120   0.53150   0.63040   0.01267  Uiso   1.00
N50    N     0.10160   0.61630   0.69810   0.01267  Uiso   1.00
N51    N     0.00480   0.61970   0.69730   0.01267  Uiso   1.00
N52    N     0.91930   0.53660   0.62860   0.01267  Uiso   1.00
N53    N     0.62530   0.31410   0.47220   0.01267  Uiso   1.00
N54    N     0.56250   0.36270   0.46520   0.01267  Uiso   1.00
N55    N     0.61760   0.43690   0.45070   0.01267  Uiso   1.00
N56    N     0.71850   0.43870   0.44920   0.01267  Uiso   1.00
N57    N     0.99880   0.35710   0.49870   0.01267  Uiso   1.00
N58    N     0.77900   0.24180   0.39140   0.01267  Uiso   1.00
N59    N     0.16960   0.32830   0.47480   0.01267  Uiso   1.00
N60    N     0.74980   0.04000   0.29420   0.01267  Uiso   1.00
N61    N     0.46700   0.07370   0.39960   0.01267  Uiso   1.00
N62    N     0.36230   0.03870   0.34240   0.01267  Uiso   1.00
N63    N     0.32750   0.94470   0.29290   0.01267  Uiso   1.00
N64    N     0.40900   0.91600   0.31820   0.01267  Uiso   1.00
N65    N     0.58590   0.78710   0.30540   0.01267  Uiso   1.00
N66    N     0.51250   0.69500   0.28060   0.01267  Uiso   1.00
N67    N     0.45970   0.69070   0.33790   0.01267  Uiso   1.00
N68    N     0.49630   0.78160   0.40220   0.01267  Uiso   1.00
N69    N     0.66240   0.10630   0.50070   0.01267  Uiso   1.00
N70    N     0.74730   0.97280   0.48570   0.01267  Uiso   1.00
N71    N     0.75490   0.28540   0.62120   0.01267  Uiso   1.00
N72    N     0.00530   0.14680   0.56380   0.01267  Uiso   1.00
