data_QARTAG_clean
_audit_creation_date              2014-07-02
_audit_creation_method            'Materials Studio'
_symmetry_space_group_name_H-M    'P1'
_symmetry_Int_Tables_number       1
_symmetry_cell_setting            triclinic
loop_
_symmetry_equiv_pos_as_xyz
  x,y,z
_cell_length_a                    11.0603
_cell_length_b                    16.3220
_cell_length_c                    19.4723
_cell_angle_alpha                 65.7638
_cell_angle_beta                  73.5008
_cell_angle_gamma                 70.1952
loop_
_atom_site_label
_atom_site_type_symbol
_atom_site_fract_x
_atom_site_fract_y
_atom_site_fract_z
_atom_site_U_iso_or_equiv
_atom_site_adp_type
_atom_site_occupancy
Cd1    Cd    0.00160   0.40826   0.47476   0.01267  Uiso   1.00
Cd2    Cd    0.88462   0.09174   0.02524   0.01267  Uiso   1.00
Cd3    Cd    0.99840   0.59174   0.52524   0.01267  Uiso   1.00
Cd4    Cd    0.11538   0.90826   0.97476   0.01267  Uiso   1.00
Cd5    Cd    0.81846   0.25000   0.75000   0.01267  Uiso   1.00
Cd6    Cd    0.18154   0.75000   0.25000   0.01267  Uiso   1.00
H1     H     0.75040   0.73610   0.69030   0.01267  Uiso   1.00
H2     H     0.56930   0.45190   0.69610   0.01267  Uiso   1.00
H3     H     0.31820   0.57370   0.79250   0.01267  Uiso   1.00
H4     H     0.35850   0.49330   0.75970   0.01267  Uiso   1.00
H5     H     0.31780   0.43280   0.89220   0.01267  Uiso   1.00
H6     H     0.46510   0.39330   0.86310   0.01267  Uiso   1.00
H7     H     0.42430   0.47380   0.89580   0.01267  Uiso   1.00
H8     H     0.51550   0.85630   0.83730   0.01267  Uiso   1.00
H9     H     0.36290   0.88670   0.84690   0.01267  Uiso   1.00
H10    H     0.42060   0.90160   0.94560   0.01267  Uiso   1.00
H11    H     0.50660   0.79860   0.96840   0.01267  Uiso   1.00
H12    H     0.40560   0.67100   0.02420   0.01267  Uiso   1.00
H13    H     0.25310   0.69010   0.03970   0.01267  Uiso   1.00
H14    H     0.24860   0.74440   0.91040   0.01267  Uiso   1.00
H15    H     0.34690   0.64570   0.93130   0.01267  Uiso   1.00
H16    H     0.58500   0.93260   0.55740   0.01267  Uiso   1.00
H17    H     0.74180   0.84210   0.49330   0.01267  Uiso   1.00
H18    H     0.49470   0.69020   0.53260   0.01267  Uiso   1.00
H19    H     0.33910   0.77860   0.59920   0.01267  Uiso   1.00
H20    H     0.44730   0.95220   0.67360   0.01267  Uiso   1.00
H21    H     0.28430   0.05690   0.72250   0.01267  Uiso   1.00
H22    H     0.02880   0.03360   0.62480   0.01267  Uiso   1.00
H23    H     0.19200   0.92890   0.57590   0.01267  Uiso   1.00
H24    H     0.17680   0.76390   0.80970   0.01267  Uiso   1.00
H25    H     0.71730   0.04810   0.80390   0.01267  Uiso   1.00
H26    H     0.68440   0.92630   0.70750   0.01267  Uiso   1.00
H27    H     0.61150   0.00670   0.74030   0.01267  Uiso   1.00
H28    H     0.64280   0.06720   0.60780   0.01267  Uiso   1.00
H29    H     0.72150   0.10670   0.63690   0.01267  Uiso   1.00
H30    H     0.79390   0.02620   0.60420   0.01267  Uiso   1.00
H31    H     0.20910   0.64370   0.66270   0.01267  Uiso   1.00
H32    H     0.09650   0.61330   0.65310   0.01267  Uiso   1.00
H33    H     0.26780   0.59840   0.55440   0.01267  Uiso   1.00
H34    H     0.27360   0.70140   0.53160   0.01267  Uiso   1.00
H35    H     0.10080   0.82900   0.47580   0.01267  Uiso   1.00
H36    H     0.98290   0.80990   0.46030   0.01267  Uiso   1.00
H37    H     0.90340   0.75560   0.58960   0.01267  Uiso   1.00
H38    H     0.92390   0.85430   0.56870   0.01267  Uiso   1.00
H39    H     0.07500   0.56740   0.94260   0.01267  Uiso   1.00
H40    H     0.07720   0.65790   0.00670   0.01267  Uiso   1.00
H41    H     0.71750   0.80980   0.96740   0.01267  Uiso   1.00
H42    H     0.71690   0.72140   0.90080   0.01267  Uiso   1.00
H43    H     0.07310   0.54780   0.82640   0.01267  Uiso   1.00
H44    H     0.06370   0.44310   0.77750   0.01267  Uiso   1.00
H45    H     0.68720   0.46640   0.87520   0.01267  Uiso   1.00
H46    H     0.69680   0.57110   0.92410   0.01267  Uiso   1.00
H47    H     0.24960   0.26390   0.30970   0.01267  Uiso   1.00
H48    H     0.43070   0.54810   0.30390   0.01267  Uiso   1.00
H49    H     0.68180   0.42630   0.20750   0.01267  Uiso   1.00
H50    H     0.64150   0.50670   0.24030   0.01267  Uiso   1.00
H51    H     0.68220   0.56720   0.10780   0.01267  Uiso   1.00
H52    H     0.53490   0.60670   0.13690   0.01267  Uiso   1.00
H53    H     0.57570   0.52620   0.10420   0.01267  Uiso   1.00
H54    H     0.48450   0.14370   0.16270   0.01267  Uiso   1.00
H55    H     0.63710   0.11330   0.15310   0.01267  Uiso   1.00
H56    H     0.57940   0.09840   0.05440   0.01267  Uiso   1.00
H57    H     0.49340   0.20140   0.03160   0.01267  Uiso   1.00
H58    H     0.59440   0.32900   0.97580   0.01267  Uiso   1.00
H59    H     0.74690   0.30990   0.96030   0.01267  Uiso   1.00
H60    H     0.75140   0.25560   0.08960   0.01267  Uiso   1.00
H61    H     0.65310   0.35430   0.06870   0.01267  Uiso   1.00
H62    H     0.41500   0.06740   0.44260   0.01267  Uiso   1.00
H63    H     0.25820   0.15790   0.50670   0.01267  Uiso   1.00
H64    H     0.50530   0.30980   0.46740   0.01267  Uiso   1.00
H65    H     0.66090   0.22140   0.40080   0.01267  Uiso   1.00
H66    H     0.55270   0.04780   0.32640   0.01267  Uiso   1.00
H67    H     0.71570   0.94310   0.27750   0.01267  Uiso   1.00
H68    H     0.97120   0.96640   0.37520   0.01267  Uiso   1.00
H69    H     0.80800   0.07110   0.42410   0.01267  Uiso   1.00
H70    H     0.82320   0.23610   0.19030   0.01267  Uiso   1.00
H71    H     0.28270   0.95190   0.19610   0.01267  Uiso   1.00
H72    H     0.31560   0.07370   0.29250   0.01267  Uiso   1.00
H73    H     0.38850   0.99330   0.25970   0.01267  Uiso   1.00
H74    H     0.35720   0.93280   0.39220   0.01267  Uiso   1.00
H75    H     0.27850   0.89330   0.36310   0.01267  Uiso   1.00
H76    H     0.20610   0.97380   0.39580   0.01267  Uiso   1.00
H77    H     0.79090   0.35630   0.33730   0.01267  Uiso   1.00
H78    H     0.90350   0.38670   0.34690   0.01267  Uiso   1.00
H79    H     0.73220   0.40160   0.44560   0.01267  Uiso   1.00
H80    H     0.72640   0.29860   0.46840   0.01267  Uiso   1.00
H81    H     0.89920   0.17100   0.52420   0.01267  Uiso   1.00
H82    H     0.01710   0.19010   0.53970   0.01267  Uiso   1.00
H83    H     0.09660   0.24440   0.41040   0.01267  Uiso   1.00
H84    H     0.07610   0.14570   0.43130   0.01267  Uiso   1.00
H85    H     0.92500   0.43260   0.05740   0.01267  Uiso   1.00
H86    H     0.92280   0.34210   0.99330   0.01267  Uiso   1.00
H87    H     0.28250   0.19020   0.03260   0.01267  Uiso   1.00
H88    H     0.28310   0.27860   0.09920   0.01267  Uiso   1.00
H89    H     0.92690   0.45220   0.17360   0.01267  Uiso   1.00
H90    H     0.93630   0.55690   0.22250   0.01267  Uiso   1.00
H91    H     0.31280   0.53360   0.12480   0.01267  Uiso   1.00
H92    H     0.30320   0.42890   0.07590   0.01267  Uiso   1.00
C1     C     0.78956   0.45659   0.61189   0.01267  Uiso   1.00
C2     C     0.70899   0.51867   0.65673   0.01267  Uiso   1.00
C3     C     0.74758   0.59163   0.66097   0.01267  Uiso   1.00
C4     C     0.65717   0.63972   0.71084   0.01267  Uiso   1.00
C5     C     0.67824   0.71412   0.72042   0.01267  Uiso   1.00
C6     C     0.50122   0.71745   0.81411   0.01267  Uiso   1.00
C7     C     0.54238   0.61387   0.75511   0.01267  Uiso   1.00
C8     C     0.59260   0.49973   0.69933   0.01267  Uiso   1.00
C9     C     0.38571   0.51869   0.78825   0.01267  Uiso   1.00
C10    C     0.39949   0.44828   0.86694   0.01267  Uiso   1.00
C11    C     0.43623   0.83993   0.86941   0.01267  Uiso   1.00
C12    C     0.42787   0.83936   0.94832   0.01267  Uiso   1.00
C13    C     0.32674   0.71207   0.00445   0.01267  Uiso   1.00
C14    C     0.33162   0.70948   0.92744   0.01267  Uiso   1.00
C15    C     0.56623   0.88440   0.55202   0.01267  Uiso   1.00
C16    C     0.66008   0.83004   0.51362   0.01267  Uiso   1.00
C17    C     0.63479   0.75783   0.50485   0.01267  Uiso   1.00
C18    C     0.51297   0.73911   0.53735   0.01267  Uiso   1.00
C19    C     0.41921   0.79275   0.57663   0.01267  Uiso   1.00
C20    C     0.44250   0.86714   0.58296   0.01267  Uiso   1.00
C21    C     0.33787   0.93029   0.61889   0.01267  Uiso   1.00
C22    C     0.36344   0.96874   0.66338   0.01267  Uiso   1.00
C23    C     0.26579   0.03148   0.69294   0.01267  Uiso   1.00
C24    C     0.13922   0.05645   0.67803   0.01267  Uiso   1.00
C25    C     0.11301   0.01755   0.63447   0.01267  Uiso   1.00
C26    C     0.21097   0.95475   0.60499   0.01267  Uiso   1.00
C27    C     0.73543   0.70022   0.46092   0.01267  Uiso   1.00
C28    C     0.03220   0.12450   0.70950   0.01267  Uiso   1.00
C29    C     0.85804   0.04341   0.88811   0.01267  Uiso   1.00
C30    C     0.88439   0.98133   0.84327   0.01267  Uiso   1.00
C31    C     0.00018   0.90837   0.83903   0.01267  Uiso   1.00
C32    C     0.00773   0.86028   0.78916   0.01267  Uiso   1.00
C33    C     0.11278   0.78588   0.77958   0.01267  Uiso   1.00
C34    C     0.03278   0.78255   0.68589   0.01267  Uiso   1.00
C35    C     0.91136   0.88613   0.74489   0.01267  Uiso   1.00
C36    C     0.79166   0.00027   0.80067   0.01267  Uiso   1.00
C37    C     0.69265   0.98131   0.71175   0.01267  Uiso   1.00
C38    C     0.71471   0.05172   0.63306   0.01267  Uiso   1.00
C39    C     0.14557   0.66007   0.63059   0.01267  Uiso   1.00
C40    C     0.21555   0.66064   0.55168   0.01267  Uiso   1.00
C41    C     0.04326   0.78793   0.49555   0.01267  Uiso   1.00
C42    C     0.96854   0.79052   0.57256   0.01267  Uiso   1.00
C43    C     0.00265   0.61560   0.94798   0.01267  Uiso   1.00
C44    C     0.00374   0.66996   0.98638   0.01267  Uiso   1.00
C45    C     0.89747   0.74217   0.99515   0.01267  Uiso   1.00
C46    C     0.78943   0.76089   0.96265   0.01267  Uiso   1.00
C47    C     0.78859   0.70725   0.92337   0.01267  Uiso   1.00
C48    C     0.89260   0.63286   0.91704   0.01267  Uiso   1.00
C49    C     0.88705   0.56971   0.88111   0.01267  Uiso   1.00
C50    C     0.99556   0.53126   0.83662   0.01267  Uiso   1.00
C51    C     0.99021   0.46852   0.80706   0.01267  Uiso   1.00
C52    C     0.87370   0.44355   0.82197   0.01267  Uiso   1.00
C53    C     0.76503   0.48245   0.86553   0.01267  Uiso   1.00
C54    C     0.77071   0.54525   0.89501   0.01267  Uiso   1.00
C55    C     0.89657   0.79978   0.03908   0.01267  Uiso   1.00
C56    C     0.86620   0.37550   0.79050   0.01267  Uiso   1.00
C57    C     0.21044   0.54341   0.38811   0.01267  Uiso   1.00
C58    C     0.29101   0.48133   0.34327   0.01267  Uiso   1.00
C59    C     0.25242   0.40837   0.33903   0.01267  Uiso   1.00
C60    C     0.34283   0.36028   0.28916   0.01267  Uiso   1.00
C61    C     0.32176   0.28588   0.27958   0.01267  Uiso   1.00
C62    C     0.49878   0.28255   0.18589   0.01267  Uiso   1.00
C63    C     0.45762   0.38613   0.24489   0.01267  Uiso   1.00
C64    C     0.40740   0.50027   0.30067   0.01267  Uiso   1.00
C65    C     0.61429   0.48131   0.21175   0.01267  Uiso   1.00
C66    C     0.60051   0.55172   0.13306   0.01267  Uiso   1.00
C67    C     0.56377   0.16007   0.13059   0.01267  Uiso   1.00
C68    C     0.57213   0.16064   0.05168   0.01267  Uiso   1.00
C69    C     0.67326   0.28793   0.99555   0.01267  Uiso   1.00
C70    C     0.66838   0.29052   0.07256   0.01267  Uiso   1.00
C71    C     0.43377   0.11560   0.44798   0.01267  Uiso   1.00
C72    C     0.33992   0.16996   0.48638   0.01267  Uiso   1.00
C73    C     0.36521   0.24217   0.49515   0.01267  Uiso   1.00
C74    C     0.48703   0.26089   0.46265   0.01267  Uiso   1.00
C75    C     0.58079   0.20725   0.42337   0.01267  Uiso   1.00
C76    C     0.55750   0.13286   0.41704   0.01267  Uiso   1.00
C77    C     0.66213   0.06971   0.38111   0.01267  Uiso   1.00
C78    C     0.63656   0.03126   0.33662   0.01267  Uiso   1.00
C79    C     0.73421   0.96852   0.30706   0.01267  Uiso   1.00
C80    C     0.86078   0.94355   0.32197   0.01267  Uiso   1.00
C81    C     0.88699   0.98245   0.36553   0.01267  Uiso   1.00
C82    C     0.78903   0.04525   0.39501   0.01267  Uiso   1.00
C83    C     0.26457   0.29978   0.53908   0.01267  Uiso   1.00
C84    C     0.96780   0.87550   0.29050   0.01267  Uiso   1.00
C85    C     0.14196   0.95659   0.11189   0.01267  Uiso   1.00
C86    C     0.11561   0.01867   0.15673   0.01267  Uiso   1.00
C87    C     0.99982   0.09163   0.16097   0.01267  Uiso   1.00
C88    C     0.99227   0.13972   0.21084   0.01267  Uiso   1.00
C89    C     0.88722   0.21412   0.22042   0.01267  Uiso   1.00
C90    C     0.96722   0.21745   0.31411   0.01267  Uiso   1.00
C91    C     0.08864   0.11387   0.25511   0.01267  Uiso   1.00
C92    C     0.20834   0.99973   0.19933   0.01267  Uiso   1.00
C93    C     0.30735   0.01869   0.28825   0.01267  Uiso   1.00
C94    C     0.28529   0.94828   0.36694   0.01267  Uiso   1.00
C95    C     0.85443   0.33993   0.36941   0.01267  Uiso   1.00
C96    C     0.78445   0.33936   0.44832   0.01267  Uiso   1.00
C97    C     0.95674   0.21207   0.50445   0.01267  Uiso   1.00
C98    C     0.03146   0.20948   0.42744   0.01267  Uiso   1.00
C99    C     0.99735   0.38440   0.05202   0.01267  Uiso   1.00
C100   C     0.99626   0.33004   0.01362   0.01267  Uiso   1.00
C101   C     0.10253   0.25783   0.00485   0.01267  Uiso   1.00
C102   C     0.21057   0.23911   0.03735   0.01267  Uiso   1.00
C103   C     0.21141   0.29275   0.07663   0.01267  Uiso   1.00
C104   C     0.10740   0.36714   0.08296   0.01267  Uiso   1.00
C105   C     0.11295   0.43029   0.11889   0.01267  Uiso   1.00
C106   C     0.00444   0.46874   0.16338   0.01267  Uiso   1.00
C107   C     0.00979   0.53148   0.19294   0.01267  Uiso   1.00
C108   C     0.12630   0.55645   0.17803   0.01267  Uiso   1.00
C109   C     0.23497   0.51755   0.13447   0.01267  Uiso   1.00
C110   C     0.22929   0.45475   0.10499   0.01267  Uiso   1.00
C111   C     0.10343   0.20022   0.96092   0.01267  Uiso   1.00
C112   C     0.13380   0.62450   0.20950   0.01267  Uiso   1.00
N1     N     0.31421   0.80732   0.99926   0.01267  Uiso   1.00
N2     N     0.43570   0.74923   0.87179   0.01267  Uiso   1.00
N3     N     0.60284   0.75483   0.76905   0.01267  Uiso   1.00
N4     N     0.46438   0.65164   0.80646   0.01267  Uiso   1.00
N5     N     0.50962   0.54554   0.74562   0.01267  Uiso   1.00
N6     N     0.12079   0.69268   0.50074   0.01267  Uiso   1.00
N7     N     0.05672   0.75077   0.62821   0.01267  Uiso   1.00
N8     N     0.12672   0.74517   0.73095   0.01267  Uiso   1.00
N9     N     0.92248   0.84836   0.69354   0.01267  Uiso   1.00
N10    N     0.80078   0.95446   0.75438   0.01267  Uiso   1.00
N11    N     0.68579   0.19268   0.00074   0.01267  Uiso   1.00
N12    N     0.56430   0.25077   0.12821   0.01267  Uiso   1.00
N13    N     0.39716   0.24517   0.23095   0.01267  Uiso   1.00
N14    N     0.53562   0.34836   0.19354   0.01267  Uiso   1.00
N15    N     0.49038   0.45446   0.25438   0.01267  Uiso   1.00
N16    N     0.87921   0.30732   0.49926   0.01267  Uiso   1.00
N17    N     0.94328   0.24923   0.37179   0.01267  Uiso   1.00
N18    N     0.87328   0.25483   0.26905   0.01267  Uiso   1.00
N19    N     0.07752   0.15164   0.30646   0.01267  Uiso   1.00
N20    N     0.19922   0.04554   0.24562   0.01267  Uiso   1.00
O1     O     0.76811   0.37924   0.63020   0.01267  Uiso   1.00
O2     O     0.87543   0.48609   0.55551   0.01267  Uiso   1.00
O3     O     0.85304   0.61440   0.62824   0.01267  Uiso   1.00
O4     O     0.85311   0.70160   0.45092   0.01267  Uiso   1.00
O5     O     0.69770   0.65528   0.43664   0.01267  Uiso   1.00
O6     O     0.92906   0.16067   0.68075   0.01267  Uiso   1.00
O7     O     0.04683   0.14150   0.76316   0.01267  Uiso   1.00
O8     O     0.77755   0.12076   0.86980   0.01267  Uiso   1.00
O9     O     0.91703   0.01391   0.94449   0.01267  Uiso   1.00
O10    O     0.09568   0.88560   0.87176   0.01267  Uiso   1.00
O11    O     0.00563   0.79840   0.04908   0.01267  Uiso   1.00
O12    O     0.78962   0.84472   0.06336   0.01267  Uiso   1.00
O13    O     0.77048   0.33933   0.81925   0.01267  Uiso   1.00
O14    O     0.95149   0.35850   0.73684   0.01267  Uiso   1.00
O15    O     0.23189   0.62076   0.36980   0.01267  Uiso   1.00
O16    O     0.12457   0.51391   0.44449   0.01267  Uiso   1.00
O17    O     0.14696   0.38560   0.37176   0.01267  Uiso   1.00
O18    O     0.14689   0.29840   0.54908   0.01267  Uiso   1.00
O19    O     0.30230   0.34472   0.56336   0.01267  Uiso   1.00
O20    O     0.07094   0.83933   0.31925   0.01267  Uiso   1.00
O21    O     0.95317   0.85850   0.23684   0.01267  Uiso   1.00
O22    O     0.22245   0.87924   0.13020   0.01267  Uiso   1.00
O23    O     0.08297   0.98609   0.05551   0.01267  Uiso   1.00
O24    O     0.90432   0.11440   0.12824   0.01267  Uiso   1.00
O25    O     0.99437   0.20160   0.95092   0.01267  Uiso   1.00
O26    O     0.21038   0.15528   0.93664   0.01267  Uiso   1.00
O27    O     0.22952   0.66067   0.18075   0.01267  Uiso   1.00
O28    O     0.04851   0.64150   0.26316   0.01267  Uiso   1.00
