data_QARTEK_clean
_audit_creation_date              2014-07-02
_audit_creation_method            'Materials Studio'
_symmetry_space_group_name_H-M    'P1'
_symmetry_Int_Tables_number       1
_symmetry_cell_setting            triclinic
loop_
_symmetry_equiv_pos_as_xyz
  x,y,z
_cell_length_a                    6.4232
_cell_length_b                    15.4953
_cell_length_c                    23.7594
_cell_angle_alpha                 90.0000
_cell_angle_beta                  90.0000
_cell_angle_gamma                 99.7490
loop_
_atom_site_label
_atom_site_type_symbol
_atom_site_fract_x
_atom_site_fract_y
_atom_site_fract_z
_atom_site_U_iso_or_equiv
_atom_site_adp_type
_atom_site_occupancy
Cd1    Cd    0.73437   0.96983   0.46594   0.01267  Uiso   1.00
Cd2    Cd    0.26563   0.53017   0.96594   0.01267  Uiso   1.00
Cd3    Cd    0.26563   0.03017   0.53406   0.01267  Uiso   1.00
Cd4    Cd    0.73437   0.46983   0.03406   0.01267  Uiso   1.00
H1     H     0.15950   0.09460   0.32730   0.01267  Uiso   1.00
H2     H     0.05400   0.36750   0.26690   0.01267  Uiso   1.00
H3     H     0.59040   0.30040   0.40930   0.01267  Uiso   1.00
H4     H     0.64070   0.39730   0.27260   0.01267  Uiso   1.00
H5     H     0.66640   0.54760   0.25770   0.01267  Uiso   1.00
H6     H     0.99070   0.59370   0.40130   0.01267  Uiso   1.00
H7     H     0.98400   0.44440   0.41210   0.01267  Uiso   1.00
H8     H     0.29700   0.43680   0.22290   0.01267  Uiso   1.00
H9     H     0.17040   0.39170   0.17120   0.01267  Uiso   1.00
H10    H     0.43540   0.49960   0.13750   0.01267  Uiso   1.00
H11    H     0.60690   0.46050   0.17150   0.01267  Uiso   1.00
H12    H     0.68980   0.31850   0.14330   0.01267  Uiso   1.00
H13    H     0.57910   0.27190   0.08990   0.01267  Uiso   1.00
H14    H     0.25520   0.24890   0.13690   0.01267  Uiso   1.00
H15    H     0.42090   0.20580   0.17070   0.01267  Uiso   1.00
H16    H     0.50630   0.40760   0.06730   0.01267  Uiso   1.00
H17    H     0.84050   0.40540   0.82730   0.01267  Uiso   1.00
H18    H     0.94600   0.13250   0.76690   0.01267  Uiso   1.00
H19    H     0.40960   0.19960   0.90930   0.01267  Uiso   1.00
H20    H     0.35930   0.10270   0.77260   0.01267  Uiso   1.00
H21    H     0.33360   0.95240   0.75770   0.01267  Uiso   1.00
H22    H     0.00930   0.90630   0.90130   0.01267  Uiso   1.00
H23    H     0.01600   0.05560   0.91210   0.01267  Uiso   1.00
H24    H     0.70300   0.06320   0.72290   0.01267  Uiso   1.00
H25    H     0.82960   0.10830   0.67120   0.01267  Uiso   1.00
H26    H     0.56460   0.00040   0.63750   0.01267  Uiso   1.00
H27    H     0.39310   0.03950   0.67150   0.01267  Uiso   1.00
H28    H     0.31020   0.18150   0.64330   0.01267  Uiso   1.00
H29    H     0.42090   0.22810   0.58990   0.01267  Uiso   1.00
H30    H     0.74480   0.25110   0.63690   0.01267  Uiso   1.00
H31    H     0.57910   0.29420   0.67070   0.01267  Uiso   1.00
H32    H     0.49370   0.09240   0.56730   0.01267  Uiso   1.00
H33    H     0.84050   0.90540   0.67270   0.01267  Uiso   1.00
H34    H     0.94600   0.63250   0.73310   0.01267  Uiso   1.00
H35    H     0.40960   0.69960   0.59070   0.01267  Uiso   1.00
H36    H     0.35930   0.60270   0.72740   0.01267  Uiso   1.00
H37    H     0.33360   0.45240   0.74230   0.01267  Uiso   1.00
H38    H     0.00930   0.40630   0.59870   0.01267  Uiso   1.00
H39    H     0.01600   0.55560   0.58790   0.01267  Uiso   1.00
H40    H     0.70300   0.56320   0.77710   0.01267  Uiso   1.00
H41    H     0.82960   0.60830   0.82880   0.01267  Uiso   1.00
H42    H     0.56460   0.50040   0.86250   0.01267  Uiso   1.00
H43    H     0.39310   0.53950   0.82850   0.01267  Uiso   1.00
H44    H     0.31020   0.68150   0.85670   0.01267  Uiso   1.00
H45    H     0.42090   0.72810   0.91010   0.01267  Uiso   1.00
H46    H     0.74480   0.75110   0.86310   0.01267  Uiso   1.00
H47    H     0.57910   0.79420   0.82930   0.01267  Uiso   1.00
H48    H     0.49370   0.59240   0.93270   0.01267  Uiso   1.00
H49    H     0.15950   0.59460   0.17270   0.01267  Uiso   1.00
H50    H     0.05400   0.86750   0.23310   0.01267  Uiso   1.00
H51    H     0.59040   0.80040   0.09070   0.01267  Uiso   1.00
H52    H     0.64070   0.89730   0.22740   0.01267  Uiso   1.00
H53    H     0.66640   0.04760   0.24230   0.01267  Uiso   1.00
H54    H     0.99070   0.09370   0.09870   0.01267  Uiso   1.00
H55    H     0.98400   0.94440   0.08790   0.01267  Uiso   1.00
H56    H     0.29700   0.93680   0.27710   0.01267  Uiso   1.00
H57    H     0.17040   0.89170   0.32880   0.01267  Uiso   1.00
H58    H     0.43540   0.99960   0.36250   0.01267  Uiso   1.00
H59    H     0.60690   0.96050   0.32850   0.01267  Uiso   1.00
H60    H     0.68980   0.81850   0.35670   0.01267  Uiso   1.00
H61    H     0.57910   0.77190   0.41010   0.01267  Uiso   1.00
H62    H     0.25520   0.74890   0.36310   0.01267  Uiso   1.00
H63    H     0.42090   0.70580   0.32930   0.01267  Uiso   1.00
H64    H     0.50630   0.90760   0.43270   0.01267  Uiso   1.00
C1     C     0.53430   0.15190   0.45373   0.01267  Uiso   1.00
C2     C     0.68820   0.18607   0.40818   0.01267  Uiso   1.00
C3     C     0.84180   0.13972   0.38352   0.01267  Uiso   1.00
C4     C     0.97710   0.18740   0.34083   0.01267  Uiso   1.00
C5     C     0.13710   0.14970   0.31583   0.01267  Uiso   1.00
C6     C     0.26030   0.19340   0.27483   0.01267  Uiso   1.00
C7     C     0.22860   0.27440   0.25260   0.01267  Uiso   1.00
C8     C     0.07700   0.31280   0.27907   0.01267  Uiso   1.00
C9     C     0.95610   0.27189   0.32381   0.01267  Uiso   1.00
C10    C     0.68560   0.27050   0.39150   0.01267  Uiso   1.00
C11    C     0.81130   0.40671   0.34374   0.01267  Uiso   1.00
C12    C     0.82510   0.58140   0.33000   0.01267  Uiso   1.00
C13    C     0.71410   0.43690   0.29800   0.01267  Uiso   1.00
C14    C     0.72480   0.52610   0.28950   0.01267  Uiso   1.00
C15    C     0.92200   0.55410   0.37520   0.01267  Uiso   1.00
C16    C     0.91590   0.46500   0.38160   0.01267  Uiso   1.00
C17    C     0.30600   0.40010   0.19017   0.01267  Uiso   1.00
C18    C     0.47570   0.44550   0.15070   0.01267  Uiso   1.00
C19    C     0.55910   0.30840   0.12199   0.01267  Uiso   1.00
C20    C     0.38510   0.26110   0.15848   0.01267  Uiso   1.00
C21    C     0.46570   0.34810   0.95373   0.01267  Uiso   1.00
C22    C     0.31180   0.31393   0.90818   0.01267  Uiso   1.00
C23    C     0.15820   0.36028   0.88352   0.01267  Uiso   1.00
C24    C     0.02290   0.31260   0.84083   0.01267  Uiso   1.00
C25    C     0.86290   0.35030   0.81583   0.01267  Uiso   1.00
C26    C     0.73970   0.30660   0.77483   0.01267  Uiso   1.00
C27    C     0.77140   0.22560   0.75260   0.01267  Uiso   1.00
C28    C     0.92300   0.18720   0.77907   0.01267  Uiso   1.00
C29    C     0.04390   0.22811   0.82381   0.01267  Uiso   1.00
C30    C     0.31440   0.22950   0.89150   0.01267  Uiso   1.00
C31    C     0.18870   0.09329   0.84374   0.01267  Uiso   1.00
C32    C     0.17490   0.91860   0.83000   0.01267  Uiso   1.00
C33    C     0.28590   0.06310   0.79800   0.01267  Uiso   1.00
C34    C     0.27520   0.97390   0.78950   0.01267  Uiso   1.00
C35    C     0.07800   0.94590   0.87520   0.01267  Uiso   1.00
C36    C     0.08410   0.03500   0.88160   0.01267  Uiso   1.00
C37    C     0.69400   0.09990   0.69017   0.01267  Uiso   1.00
C38    C     0.52430   0.05450   0.65070   0.01267  Uiso   1.00
C39    C     0.44090   0.19160   0.62199   0.01267  Uiso   1.00
C40    C     0.61490   0.23890   0.65848   0.01267  Uiso   1.00
C41    C     0.46570   0.84810   0.54627   0.01267  Uiso   1.00
C42    C     0.31180   0.81393   0.59182   0.01267  Uiso   1.00
C43    C     0.15820   0.86028   0.61648   0.01267  Uiso   1.00
C44    C     0.02290   0.81260   0.65917   0.01267  Uiso   1.00
C45    C     0.86290   0.85030   0.68417   0.01267  Uiso   1.00
C46    C     0.73970   0.80660   0.72517   0.01267  Uiso   1.00
C47    C     0.77140   0.72560   0.74740   0.01267  Uiso   1.00
C48    C     0.92300   0.68720   0.72093   0.01267  Uiso   1.00
C49    C     0.04390   0.72811   0.67619   0.01267  Uiso   1.00
C50    C     0.31440   0.72950   0.60850   0.01267  Uiso   1.00
C51    C     0.18870   0.59329   0.65626   0.01267  Uiso   1.00
C52    C     0.17490   0.41860   0.67000   0.01267  Uiso   1.00
C53    C     0.28590   0.56310   0.70200   0.01267  Uiso   1.00
C54    C     0.27520   0.47390   0.71050   0.01267  Uiso   1.00
C55    C     0.07800   0.44590   0.62480   0.01267  Uiso   1.00
C56    C     0.08410   0.53500   0.61840   0.01267  Uiso   1.00
C57    C     0.69400   0.59990   0.80983   0.01267  Uiso   1.00
C58    C     0.52430   0.55450   0.84930   0.01267  Uiso   1.00
C59    C     0.44090   0.69160   0.87801   0.01267  Uiso   1.00
C60    C     0.61490   0.73890   0.84152   0.01267  Uiso   1.00
C61    C     0.53430   0.65190   0.04627   0.01267  Uiso   1.00
C62    C     0.68820   0.68607   0.09182   0.01267  Uiso   1.00
C63    C     0.84180   0.63972   0.11648   0.01267  Uiso   1.00
C64    C     0.97710   0.68740   0.15917   0.01267  Uiso   1.00
C65    C     0.13710   0.64970   0.18417   0.01267  Uiso   1.00
C66    C     0.26030   0.69340   0.22517   0.01267  Uiso   1.00
C67    C     0.22860   0.77440   0.24740   0.01267  Uiso   1.00
C68    C     0.07700   0.81280   0.22093   0.01267  Uiso   1.00
C69    C     0.95610   0.77189   0.17619   0.01267  Uiso   1.00
C70    C     0.68560   0.77050   0.10850   0.01267  Uiso   1.00
C71    C     0.81130   0.90671   0.15626   0.01267  Uiso   1.00
C72    C     0.82510   0.08140   0.17000   0.01267  Uiso   1.00
C73    C     0.71410   0.93690   0.20200   0.01267  Uiso   1.00
C74    C     0.72480   0.02610   0.21050   0.01267  Uiso   1.00
C75    C     0.92200   0.05410   0.12480   0.01267  Uiso   1.00
C76    C     0.91590   0.96500   0.11840   0.01267  Uiso   1.00
C77    C     0.30600   0.90010   0.30983   0.01267  Uiso   1.00
C78    C     0.47570   0.94550   0.34930   0.01267  Uiso   1.00
C79    C     0.55910   0.80840   0.37801   0.01267  Uiso   1.00
C80    C     0.38510   0.76110   0.34152   0.01267  Uiso   1.00
N1     N     0.51190   0.39215   0.10195   0.01267  Uiso   1.00
N2     N     0.35280   0.31489   0.20839   0.01267  Uiso   1.00
N3     N     0.80990   0.31345   0.35134   0.01267  Uiso   1.00
N4     N     0.48810   0.10785   0.60195   0.01267  Uiso   1.00
N5     N     0.64720   0.18511   0.70839   0.01267  Uiso   1.00
N6     N     0.19010   0.18655   0.85134   0.01267  Uiso   1.00
N7     N     0.48810   0.60785   0.89805   0.01267  Uiso   1.00
N8     N     0.64720   0.68511   0.79161   0.01267  Uiso   1.00
N9     N     0.19010   0.68655   0.64866   0.01267  Uiso   1.00
N10    N     0.51190   0.89215   0.39805   0.01267  Uiso   1.00
N11    N     0.35280   0.81489   0.29161   0.01267  Uiso   1.00
N12    N     0.80990   0.81345   0.14866   0.01267  Uiso   1.00
Cl1    Cl    0.05606   0.89828   0.46595   0.01267  Uiso   1.00
Cl2    Cl    0.94394   0.60172   0.96595   0.01267  Uiso   1.00
Cl3    Cl    0.94394   0.10172   0.53405   0.01267  Uiso   1.00
Cl4    Cl    0.05606   0.39828   0.03405   0.01267  Uiso   1.00
O1     O     0.48850   0.06842   0.46063   0.01267  Uiso   1.00
O2     O     0.45880   0.20436   0.48348   0.01267  Uiso   1.00
O3     O     0.86710   0.06357   0.39554   0.01267  Uiso   1.00
O4     O     0.51150   0.43158   0.96063   0.01267  Uiso   1.00
O5     O     0.54120   0.29564   0.98348   0.01267  Uiso   1.00
O6     O     0.13290   0.43643   0.89554   0.01267  Uiso   1.00
O7     O     0.51150   0.93158   0.53937   0.01267  Uiso   1.00
O8     O     0.54120   0.79564   0.51652   0.01267  Uiso   1.00
O9     O     0.13290   0.93643   0.60446   0.01267  Uiso   1.00
O10    O     0.48850   0.56842   0.03937   0.01267  Uiso   1.00
O11    O     0.45880   0.70436   0.01652   0.01267  Uiso   1.00
O12    O     0.86710   0.56357   0.10446   0.01267  Uiso   1.00
F1     F     0.42600   0.15673   0.25626   0.01267  Uiso   1.00
F2     F     0.83300   0.66844   0.32259   0.01267  Uiso   1.00
F3     F     0.57400   0.34327   0.75626   0.01267  Uiso   1.00
F4     F     0.16700   0.83156   0.82259   0.01267  Uiso   1.00
F5     F     0.57400   0.84327   0.74374   0.01267  Uiso   1.00
F6     F     0.16700   0.33156   0.67741   0.01267  Uiso   1.00
F7     F     0.42600   0.65673   0.24374   0.01267  Uiso   1.00
F8     F     0.83300   0.16844   0.17741   0.01267  Uiso   1.00
