data_image0
_cell_length_a       18.894
_cell_length_b       31.681
_cell_length_c       13.876
_cell_angle_alpha    90
_cell_angle_beta     90
_cell_angle_gamma    90

_symmetry_space_group_name_H-M    "P 1"
_symmetry_int_tables_number       1

loop_
  _symmetry_equiv_pos_as_xyz
  'x, y, z'

loop_
  _atom_site_label
  _atom_site_occupancy
  _atom_site_fract_x
  _atom_site_fract_y
  _atom_site_fract_z
  _atom_site_thermal_displace_type
  _atom_site_B_iso_or_equiv
  _atom_site_type_symbol
  O1       1.0000 0.18920  0.00820  0.44450  Biso   1.000  O
  Mn1      1.0000 0.26214  0.91663  0.47499  Biso   1.000  Mn
  O2       1.0000 0.22310  0.86010  0.41930  Biso   1.000  O
  O3       1.0000 0.33680  0.86100  0.44630  Biso   1.000  O
  N1       1.0000 0.25530  0.89920  0.62770  Biso   1.000  N
  N2       1.0000 0.32410  0.96030  0.54420  Biso   1.000  N
  N3       1.0000 0.30880  0.95120  0.35950  Biso   1.000  N
  N4       1.0000 0.54500  0.15110  0.84570  Biso   1.000  N
  N5       1.0000 0.57410  0.20020  0.95250  Biso   1.000  N
  C1       1.0000 0.29770  0.94480  0.26520  Biso   1.000  C
  H1       1.0000 0.26930  0.92220  0.24640  Biso   1.000  H
  C2       1.0000 0.32560  0.96190  0.64050  Biso   1.000  C
  O4       1.0000 0.16560  0.94170  0.48610  Biso   1.000  O
  C3       1.0000 0.39570  0.02220  0.53640  Biso   1.000  C
  H2       1.0000 0.42020  0.04200  0.49980  Biso   1.000  H
  C4       1.0000 0.36140  0.99340  0.68850  Biso   1.000  C
  H3       1.0000 0.36210  0.99390  0.75550  Biso   1.000  H
  C5       1.0000 0.34970  0.98440  0.38650  Biso   1.000  C
  C6       1.0000 0.35770  0.98970  0.49150  Biso   1.000  C
  C7       1.0000 0.40630  0.07610  0.77200  Biso   1.000  C
  H4       1.0000 0.36320  0.06610  0.79480  Biso   1.000  H
  C8       1.0000 0.28570  0.92700  0.68800  Biso   1.000  C
  C9       1.0000 0.39620  0.02440  0.63620  Biso   1.000  C
  C10      1.0000 0.28090  0.84120  0.42500  Biso   1.000  C
  C11      1.0000 0.43370  0.05960  0.68710  Biso   1.000  C
  C12      1.0000 0.52300  0.17940  0.91020  Biso   1.000  C
  H5       1.0000 0.47540  0.18400  0.92380  Biso   1.000  H
  C13      1.0000 0.22140  0.77190  0.40410  Biso   1.000  C
  H6       1.0000 0.17890  0.78640  0.39660  Biso   1.000  H
  C14      1.0000 0.21600  0.86780  0.66380  Biso   1.000  C
  H7       1.0000 0.19550  0.84860  0.62160  Biso   1.000  H
  C15      1.0000 0.28310  0.79410  0.41490  Biso   1.000  C
  C16      1.0000 0.44130  0.10690  0.82350  Biso   1.000  C
  H8       1.0000 0.42210  0.11760  0.88020  Biso   1.000  H
  C17      1.0000 0.50550  0.12170  0.78970  Biso   1.000  C
  C18      1.0000 0.49630  0.07690  0.65220  Biso   1.000  C
  H9       1.0000 0.51430  0.06760  0.59350  Biso   1.000  H
  C19      1.0000 0.32680  0.97040  0.19450  Biso   1.000  C
  H10      1.0000 0.31840  0.96530  0.12950  Biso   1.000  H
  C20      1.0000 0.53200  0.10740  0.70300  Biso   1.000  C
  H11      1.0000 0.57410  0.11840  0.67890  Biso   1.000  H
  C21      1.0000 0.36860  0.00350  0.22370  Biso   1.000  C
  H12      1.0000 0.38910  0.02120  0.17800  Biso   1.000  H
  C22      1.0000 0.38030  0.01050  0.32020  Biso   1.000  C
  H13      1.0000 0.40880  0.03280  0.34010  Biso   1.000  H
  C23      1.0000 0.23710  0.89100  0.82260  Biso   1.000  C
  H14      1.0000 0.23190  0.88800  0.88890  Biso   1.000  H
  C24      1.0000 0.27690  0.92350  0.78630  Biso   1.000  C
  H15      1.0000 0.29770  0.94300  0.82760  Biso   1.000  H
  C25      1.0000 0.34620  0.77180  0.42350  Biso   1.000  C
  H16      1.0000 0.38870  0.78640  0.42930  Biso   1.000  H
  C26      1.0000 0.20490  0.86300  0.76150  Biso   1.000  C
  H17      1.0000 0.17650  0.84140  0.78510  Biso   1.000  H
  C27      1.0000 0.63280  0.18330  0.91500  Biso   1.000  C
  H18      1.0000 0.67870  0.19170  0.92940  Biso   1.000  H
  C28      1.0000 0.61580  0.15270  0.85300  Biso   1.000  C
  H19      1.0000 0.64760  0.13540  0.82050  Biso   1.000  H
  C29      1.0000 0.07110  0.99020  0.48530  Biso   1.000  C
  C30      1.0000 0.14860  0.98010  0.46980  Biso   1.000  C
  C31      1.0000 0.04680  0.03070  0.47000  Biso   1.000  C
  H20      1.0000 0.07810  0.05160  0.44980  Biso   1.000  H
  C32      1.0000 0.02350  0.95960  0.51570  Biso   1.000  C
  H21      1.0000 0.03930  0.93220  0.52640  Biso   1.000  H
  O5       1.0000 0.31080  0.99180  0.94450  Biso   1.000  O
  Mn2      1.0000 0.23786  0.08337  0.97499  Biso   1.000  Mn
  O6       1.0000 0.27690  0.13990  0.91930  Biso   1.000  O
  O7       1.0000 0.16320  0.13900  0.94630  Biso   1.000  O
  N6       1.0000 0.24470  0.10080  0.12770  Biso   1.000  N
  N7       1.0000 0.17590  0.03970  0.04420  Biso   1.000  N
  N8       1.0000 0.19120  0.04880  0.85950  Biso   1.000  N
  N9       1.0000 0.95500  0.84890  0.34570  Biso   1.000  N
  N10      1.0000 0.92590  0.79980  0.45250  Biso   1.000  N
  C33      1.0000 0.20230  0.05520  0.76520  Biso   1.000  C
  H22      1.0000 0.23070  0.07780  0.74640  Biso   1.000  H
  C34      1.0000 0.17440  0.03810  0.14050  Biso   1.000  C
  O8       1.0000 0.33440  0.05830  0.98610  Biso   1.000  O
  C35      1.0000 0.10430  0.97780  0.03640  Biso   1.000  C
  H23      1.0000 0.07980  0.95800  0.99980  Biso   1.000  H
  C36      1.0000 0.13860  0.00660  0.18850  Biso   1.000  C
  H24      1.0000 0.13790  0.00610  0.25550  Biso   1.000  H
  C37      1.0000 0.15030  0.01560  0.88650  Biso   1.000  C
  C38      1.0000 0.14230  0.01030  0.99150  Biso   1.000  C
  C39      1.0000 0.09370  0.92390  0.27200  Biso   1.000  C
  H25      1.0000 0.13680  0.93390  0.29480  Biso   1.000  H
  C40      1.0000 0.21430  0.07300  0.18800  Biso   1.000  C
  C41      1.0000 0.10380  0.97560  0.13620  Biso   1.000  C
  C42      1.0000 0.21910  0.15880  0.92500  Biso   1.000  C
  C43      1.0000 0.06630  0.94040  0.18710  Biso   1.000  C
  C44      1.0000 0.97700  0.82060  0.41020  Biso   1.000  C
  H26      1.0000 0.02460  0.81600  0.42380  Biso   1.000  H
  C45      1.0000 0.27860  0.22810  0.90410  Biso   1.000  C
  H27      1.0000 0.32110  0.21360  0.89660  Biso   1.000  H
  C46      1.0000 0.28400  0.13220  0.16380  Biso   1.000  C
  H28      1.0000 0.30450  0.15140  0.12160  Biso   1.000  H
  C47      1.0000 0.21690  0.20590  0.91490  Biso   1.000  C
  C48      1.0000 0.05870  0.89310  0.32350  Biso   1.000  C
  H29      1.0000 0.07790  0.88240  0.38020  Biso   1.000  H
  C49      1.0000 0.99450  0.87830  0.28970  Biso   1.000  C
  C50      1.0000 0.00370  0.92310  0.15220  Biso   1.000  C
  H30      1.0000 0.98570  0.93240  0.09350  Biso   1.000  H
  C51      1.0000 0.17320  0.02960  0.69450  Biso   1.000  C
  H31      1.0000 0.18160  0.03470  0.62950  Biso   1.000  H
  C52      1.0000 0.96800  0.89260  0.20300  Biso   1.000  C
  H32      1.0000 0.92590  0.88160  0.17890  Biso   1.000  H
  C53      1.0000 0.13140  0.99650  0.72370  Biso   1.000  C
  H33      1.0000 0.11090  0.97880  0.67800  Biso   1.000  H
  C54      1.0000 0.11970  0.98950  0.82020  Biso   1.000  C
  H34      1.0000 0.09120  0.96720  0.84010  Biso   1.000  H
  C55      1.0000 0.26290  0.10900  0.32260  Biso   1.000  C
  H35      1.0000 0.26810  0.11200  0.38890  Biso   1.000  H
  C56      1.0000 0.22310  0.07650  0.28630  Biso   1.000  C
  H36      1.0000 0.20230  0.05700  0.32760  Biso   1.000  H
  C57      1.0000 0.15380  0.22820  0.92350  Biso   1.000  C
  H37      1.0000 0.11130  0.21360  0.92930  Biso   1.000  H
  C58      1.0000 0.29510  0.13700  0.26150  Biso   1.000  C
  H38      1.0000 0.32350  0.15860  0.28510  Biso   1.000  H
  C59      1.0000 0.86720  0.81670  0.41500  Biso   1.000  C
  H39      1.0000 0.82130  0.80830  0.42940  Biso   1.000  H
  C60      1.0000 0.88420  0.84730  0.35300  Biso   1.000  C
  H40      1.0000 0.85240  0.86460  0.32050  Biso   1.000  H
  C61      1.0000 0.42890  0.00980  0.98530  Biso   1.000  C
  C62      1.0000 0.35140  0.01990  0.96980  Biso   1.000  C
  C63      1.0000 0.45320  0.96930  0.97000  Biso   1.000  C
  H41      1.0000 0.42190  0.94840  0.94980  Biso   1.000  H
  C64      1.0000 0.47650  0.04040  0.01570  Biso   1.000  C
  H42      1.0000 0.46070  0.06780  0.02640  Biso   1.000  H
  O9       1.0000 0.81080  0.50820  0.55550  Biso   1.000  O
  Mn3      1.0000 0.73786  0.41663  0.52501  Biso   1.000  Mn
  O10      1.0000 0.77690  0.36010  0.58070  Biso   1.000  O
  O11      1.0000 0.66320  0.36100  0.55370  Biso   1.000  O
  N11      1.0000 0.74470  0.39920  0.37230  Biso   1.000  N
  N12      1.0000 0.67590  0.46030  0.45580  Biso   1.000  N
  N13      1.0000 0.69120  0.45120  0.64050  Biso   1.000  N
  N14      1.0000 0.45500  0.65110  0.15430  Biso   1.000  N
  N15      1.0000 0.42590  0.70020  0.04750  Biso   1.000  N
  C65      1.0000 0.70230  0.44480  0.73480  Biso   1.000  C
  H43      1.0000 0.73070  0.42220  0.75360  Biso   1.000  H
  C66      1.0000 0.67440  0.46190  0.35950  Biso   1.000  C
  O12      1.0000 0.83440  0.44170  0.51390  Biso   1.000  O
  C67      1.0000 0.60430  0.52220  0.46360  Biso   1.000  C
  H44      1.0000 0.57980  0.54200  0.50020  Biso   1.000  H
  C68      1.0000 0.63860  0.49340  0.31150  Biso   1.000  C
  H45      1.0000 0.63790  0.49390  0.24450  Biso   1.000  H
  C69      1.0000 0.65030  0.48440  0.61350  Biso   1.000  C
  C70      1.0000 0.64230  0.48970  0.50850  Biso   1.000  C
  C71      1.0000 0.59370  0.57610  0.22800  Biso   1.000  C
  H46      1.0000 0.63680  0.56610  0.20520  Biso   1.000  H
  C72      1.0000 0.71430  0.42700  0.31200  Biso   1.000  C
  C73      1.0000 0.60380  0.52440  0.36380  Biso   1.000  C
  C74      1.0000 0.71910  0.34120  0.57500  Biso   1.000  C
  C75      1.0000 0.56630  0.55960  0.31290  Biso   1.000  C
  C76      1.0000 0.47700  0.67940  0.08980  Biso   1.000  C
  H47      1.0000 0.52460  0.68400  0.07620  Biso   1.000  H
  C77      1.0000 0.77860  0.27190  0.59590  Biso   1.000  C
  H48      1.0000 0.82110  0.28640  0.60340  Biso   1.000  H
  C78      1.0000 0.78400  0.36780  0.33620  Biso   1.000  C
  H49      1.0000 0.80450  0.34860  0.37840  Biso   1.000  H
  C79      1.0000 0.71690  0.29410  0.58510  Biso   1.000  C
  C80      1.0000 0.55870  0.60690  0.17650  Biso   1.000  C
  H50      1.0000 0.57790  0.61760  0.11980  Biso   1.000  H
  C81      1.0000 0.49450  0.62170  0.21030  Biso   1.000  C
  C82      1.0000 0.50370  0.57690  0.34780  Biso   1.000  C
  H51      1.0000 0.48570  0.56760  0.40650  Biso   1.000  H
  C83      1.0000 0.67320  0.47040  0.80550  Biso   1.000  C
  H52      1.0000 0.68160  0.46530  0.87050  Biso   1.000  H
  C84      1.0000 0.46800  0.60740  0.29700  Biso   1.000  C
  H53      1.0000 0.42590  0.61840  0.32110  Biso   1.000  H
  C85      1.0000 0.63140  0.50350  0.77630  Biso   1.000  C
  H54      1.0000 0.61090  0.52120  0.82200  Biso   1.000  H
  C86      1.0000 0.61970  0.51050  0.67980  Biso   1.000  C
  H55      1.0000 0.59120  0.53280  0.65990  Biso   1.000  H
  C87      1.0000 0.76290  0.39100  0.17740  Biso   1.000  C
  H56      1.0000 0.76810  0.38800  0.11110  Biso   1.000  H
  C88      1.0000 0.72310  0.42350  0.21370  Biso   1.000  C
  H57      1.0000 0.70230  0.44300  0.17240  Biso   1.000  H
  C89      1.0000 0.65380  0.27180  0.57650  Biso   1.000  C
  H58      1.0000 0.61130  0.28640  0.57070  Biso   1.000  H
  C90      1.0000 0.79510  0.36300  0.23850  Biso   1.000  C
  H59      1.0000 0.82350  0.34140  0.21490  Biso   1.000  H
  C91      1.0000 0.36720  0.68330  0.08500  Biso   1.000  C
  H60      1.0000 0.32130  0.69170  0.07060  Biso   1.000  H
  C92      1.0000 0.38420  0.65270  0.14700  Biso   1.000  C
  H61      1.0000 0.35240  0.63540  0.17950  Biso   1.000  H
  C93      1.0000 0.92890  0.49020  0.51470  Biso   1.000  C
  C94      1.0000 0.85140  0.48010  0.53020  Biso   1.000  C
  C95      1.0000 0.95320  0.53070  0.53000  Biso   1.000  C
  H62      1.0000 0.92190  0.55160  0.55020  Biso   1.000  H
  C96      1.0000 0.97650  0.45960  0.48430  Biso   1.000  C
  H63      1.0000 0.96070  0.43220  0.47360  Biso   1.000  H
  O13      1.0000 0.68920  0.49180  0.05550  Biso   1.000  O
  Mn4      1.0000 0.76214  0.58337  0.02501  Biso   1.000  Mn
  O14      1.0000 0.72310  0.63990  0.08070  Biso   1.000  O
  O15      1.0000 0.83680  0.63900  0.05370  Biso   1.000  O
  N16      1.0000 0.75530  0.60080  0.87230  Biso   1.000  N
  N17      1.0000 0.82410  0.53970  0.95580  Biso   1.000  N
  N18      1.0000 0.80880  0.54880  0.14050  Biso   1.000  N
  N19      1.0000 0.04500  0.34890  0.65430  Biso   1.000  N
  N20      1.0000 0.07410  0.29980  0.54750  Biso   1.000  N
  C97      1.0000 0.79770  0.55520  0.23480  Biso   1.000  C
  H64      1.0000 0.76930  0.57780  0.25360  Biso   1.000  H
  C98      1.0000 0.82560  0.53810  0.85950  Biso   1.000  C
  O16      1.0000 0.66560  0.55830  0.01390  Biso   1.000  O
  C99      1.0000 0.89570  0.47780  0.96360  Biso   1.000  C
  H65      1.0000 0.92020  0.45800  0.00020  Biso   1.000  H
  C100     1.0000 0.86140  0.50660  0.81150  Biso   1.000  C
  H66      1.0000 0.86210  0.50610  0.74450  Biso   1.000  H
  C101     1.0000 0.84970  0.51560  0.11350  Biso   1.000  C
  C102     1.0000 0.85770  0.51030  0.00850  Biso   1.000  C
  C103     1.0000 0.90630  0.42390  0.72800  Biso   1.000  C
  H67      1.0000 0.86320  0.43390  0.70520  Biso   1.000  H
  C104     1.0000 0.78570  0.57300  0.81200  Biso   1.000  C
  C105     1.0000 0.89620  0.47560  0.86380  Biso   1.000  C
  C106     1.0000 0.78090  0.65880  0.07500  Biso   1.000  C
  C107     1.0000 0.93370  0.44040  0.81290  Biso   1.000  C
  C108     1.0000 0.02300  0.32060  0.58980  Biso   1.000  C
  H68      1.0000 0.97540  0.31600  0.57620  Biso   1.000  H
  C109     1.0000 0.72140  0.72810  0.09590  Biso   1.000  C
  H69      1.0000 0.67890  0.71360  0.10340  Biso   1.000  H
  C110     1.0000 0.71600  0.63220  0.83620  Biso   1.000  C
  H70      1.0000 0.69550  0.65140  0.87840  Biso   1.000  H
  C111     1.0000 0.78310  0.70590  0.08510  Biso   1.000  C
  C112     1.0000 0.94130  0.39310  0.67650  Biso   1.000  C
  H71      1.0000 0.92210  0.38240  0.61980  Biso   1.000  H
  C113     1.0000 0.00550  0.37830  0.71030  Biso   1.000  C
  C114     1.0000 0.99630  0.42310  0.84780  Biso   1.000  C
  H72      1.0000 0.01430  0.43240  0.90650  Biso   1.000  H
  C115     1.0000 0.82680  0.52960  0.30550  Biso   1.000  C
  H73      1.0000 0.81840  0.53470  0.37050  Biso   1.000  H
  C116     1.0000 0.03200  0.39260  0.79700  Biso   1.000  C
  H74      1.0000 0.07410  0.38160  0.82110  Biso   1.000  H
  C117     1.0000 0.86860  0.49650  0.27630  Biso   1.000  C
  H75      1.0000 0.88910  0.47880  0.32200  Biso   1.000  H
  C118     1.0000 0.88030  0.48950  0.17980  Biso   1.000  C
  H76      1.0000 0.90880  0.46720  0.15990  Biso   1.000  H
  C119     1.0000 0.73710  0.60900  0.67740  Biso   1.000  C
  H77      1.0000 0.73190  0.61200  0.61110  Biso   1.000  H
  C120     1.0000 0.77690  0.57650  0.71370  Biso   1.000  C
  H78      1.0000 0.79770  0.55700  0.67240  Biso   1.000  H
  C121     1.0000 0.84620  0.72820  0.07650  Biso   1.000  C
  H79      1.0000 0.88870  0.71360  0.07070  Biso   1.000  H
  C122     1.0000 0.70490  0.63700  0.73850  Biso   1.000  C
  H80      1.0000 0.67650  0.65860  0.71490  Biso   1.000  H
  C123     1.0000 0.13280  0.31670  0.58500  Biso   1.000  C
  H81      1.0000 0.17870  0.30830  0.57060  Biso   1.000  H
  C124     1.0000 0.11580  0.34730  0.64700  Biso   1.000  C
  H82      1.0000 0.14760  0.36460  0.67950  Biso   1.000  H
  C125     1.0000 0.57110  0.50980  0.01470  Biso   1.000  C
  C126     1.0000 0.64860  0.51990  0.03020  Biso   1.000  C
  C127     1.0000 0.54680  0.46930  0.03000  Biso   1.000  C
  H83      1.0000 0.57810  0.44840  0.05020  Biso   1.000  H
  C128     1.0000 0.52350  0.54040  0.98430  Biso   1.000  C
  H84      1.0000 0.53930  0.56780  0.97360  Biso   1.000  H
  O17      1.0000 0.81080  0.99180  0.55550  Biso   1.000  O
  Mn5      1.0000 0.73786  0.08337  0.52501  Biso   1.000  Mn
  O18      1.0000 0.77690  0.13990  0.58070  Biso   1.000  O
  O19      1.0000 0.66320  0.13900  0.55370  Biso   1.000  O
  N21      1.0000 0.74470  0.10080  0.37230  Biso   1.000  N
  N22      1.0000 0.67590  0.03970  0.45580  Biso   1.000  N
  N23      1.0000 0.69120  0.04880  0.64050  Biso   1.000  N
  N24      1.0000 0.45500  0.84890  0.15430  Biso   1.000  N
  N25      1.0000 0.42590  0.79980  0.04750  Biso   1.000  N
  C129     1.0000 0.70230  0.05520  0.73480  Biso   1.000  C
  H85      1.0000 0.73070  0.07780  0.75360  Biso   1.000  H
  C130     1.0000 0.67440  0.03810  0.35950  Biso   1.000  C
  O20      1.0000 0.83440  0.05830  0.51390  Biso   1.000  O
  C131     1.0000 0.60430  0.97780  0.46360  Biso   1.000  C
  H86      1.0000 0.57980  0.95800  0.50020  Biso   1.000  H
  C132     1.0000 0.63860  0.00660  0.31150  Biso   1.000  C
  H87      1.0000 0.63790  0.00610  0.24450  Biso   1.000  H
  C133     1.0000 0.65030  0.01560  0.61350  Biso   1.000  C
  C134     1.0000 0.64230  0.01030  0.50850  Biso   1.000  C
  C135     1.0000 0.59370  0.92390  0.22800  Biso   1.000  C
  H88      1.0000 0.63680  0.93390  0.20520  Biso   1.000  H
  C136     1.0000 0.71430  0.07300  0.31200  Biso   1.000  C
  C137     1.0000 0.60380  0.97560  0.36380  Biso   1.000  C
  C138     1.0000 0.71910  0.15880  0.57500  Biso   1.000  C
  C139     1.0000 0.56630  0.94040  0.31290  Biso   1.000  C
  C140     1.0000 0.47700  0.82060  0.08980  Biso   1.000  C
  H89      1.0000 0.52460  0.81600  0.07620  Biso   1.000  H
  C141     1.0000 0.77860  0.22810  0.59590  Biso   1.000  C
  H90      1.0000 0.82110  0.21360  0.60340  Biso   1.000  H
  C142     1.0000 0.78400  0.13220  0.33620  Biso   1.000  C
  H91      1.0000 0.80450  0.15140  0.37840  Biso   1.000  H
  C143     1.0000 0.71690  0.20590  0.58510  Biso   1.000  C
  C144     1.0000 0.55870  0.89310  0.17650  Biso   1.000  C
  H92      1.0000 0.57790  0.88240  0.11980  Biso   1.000  H
  C145     1.0000 0.49450  0.87830  0.21030  Biso   1.000  C
  C146     1.0000 0.50370  0.92310  0.34780  Biso   1.000  C
  H93      1.0000 0.48570  0.93240  0.40650  Biso   1.000  H
  C147     1.0000 0.67320  0.02960  0.80550  Biso   1.000  C
  H94      1.0000 0.68160  0.03470  0.87050  Biso   1.000  H
  C148     1.0000 0.46800  0.89260  0.29700  Biso   1.000  C
  H95      1.0000 0.42590  0.88160  0.32110  Biso   1.000  H
  C149     1.0000 0.63140  0.99650  0.77630  Biso   1.000  C
  H96      1.0000 0.61090  0.97880  0.82200  Biso   1.000  H
  C150     1.0000 0.61970  0.98950  0.67980  Biso   1.000  C
  H97      1.0000 0.59120  0.96720  0.65990  Biso   1.000  H
  C151     1.0000 0.76290  0.10900  0.17740  Biso   1.000  C
  H98      1.0000 0.76810  0.11200  0.11110  Biso   1.000  H
  C152     1.0000 0.72310  0.07650  0.21370  Biso   1.000  C
  H99      1.0000 0.70230  0.05700  0.17240  Biso   1.000  H
  C153     1.0000 0.65380  0.22820  0.57650  Biso   1.000  C
  H100     1.0000 0.61130  0.21360  0.57070  Biso   1.000  H
  C154     1.0000 0.79510  0.13700  0.23850  Biso   1.000  C
  H101     1.0000 0.82350  0.15860  0.21490  Biso   1.000  H
  C155     1.0000 0.36720  0.81670  0.08500  Biso   1.000  C
  H102     1.0000 0.32130  0.80830  0.07060  Biso   1.000  H
  C156     1.0000 0.38420  0.84730  0.14700  Biso   1.000  C
  H103     1.0000 0.35240  0.86460  0.17950  Biso   1.000  H
  C157     1.0000 0.92890  0.00980  0.51470  Biso   1.000  C
  C158     1.0000 0.85140  0.01990  0.53020  Biso   1.000  C
  C159     1.0000 0.95320  0.96930  0.53000  Biso   1.000  C
  H104     1.0000 0.92190  0.94840  0.55020  Biso   1.000  H
  C160     1.0000 0.97650  0.04040  0.48430  Biso   1.000  C
  H105     1.0000 0.96070  0.06780  0.47360  Biso   1.000  H
  O21      1.0000 0.68920  0.00820  0.05550  Biso   1.000  O
  Mn6      1.0000 0.76214  0.91663  0.02501  Biso   1.000  Mn
  O22      1.0000 0.72310  0.86010  0.08070  Biso   1.000  O
  O23      1.0000 0.83680  0.86100  0.05370  Biso   1.000  O
  N26      1.0000 0.75530  0.89920  0.87230  Biso   1.000  N
  N27      1.0000 0.82410  0.96030  0.95580  Biso   1.000  N
  N28      1.0000 0.80880  0.95120  0.14050  Biso   1.000  N
  N29      1.0000 0.04500  0.15110  0.65430  Biso   1.000  N
  N30      1.0000 0.07410  0.20020  0.54750  Biso   1.000  N
  C161     1.0000 0.79770  0.94480  0.23480  Biso   1.000  C
  H106     1.0000 0.76930  0.92220  0.25360  Biso   1.000  H
  C162     1.0000 0.82560  0.96190  0.85950  Biso   1.000  C
  O24      1.0000 0.66560  0.94170  0.01390  Biso   1.000  O
  C163     1.0000 0.89570  0.02220  0.96360  Biso   1.000  C
  H107     1.0000 0.92020  0.04200  0.00020  Biso   1.000  H
  C164     1.0000 0.86140  0.99340  0.81150  Biso   1.000  C
  H108     1.0000 0.86210  0.99390  0.74450  Biso   1.000  H
  C165     1.0000 0.84970  0.98440  0.11350  Biso   1.000  C
  C166     1.0000 0.85770  0.98970  0.00850  Biso   1.000  C
  C167     1.0000 0.90630  0.07610  0.72800  Biso   1.000  C
  H109     1.0000 0.86320  0.06610  0.70520  Biso   1.000  H
  C168     1.0000 0.78570  0.92700  0.81200  Biso   1.000  C
  C169     1.0000 0.89620  0.02440  0.86380  Biso   1.000  C
  C170     1.0000 0.78090  0.84120  0.07500  Biso   1.000  C
  C171     1.0000 0.93370  0.05960  0.81290  Biso   1.000  C
  C172     1.0000 0.02300  0.17940  0.58980  Biso   1.000  C
  H110     1.0000 0.97540  0.18400  0.57620  Biso   1.000  H
  C173     1.0000 0.72140  0.77190  0.09590  Biso   1.000  C
  H111     1.0000 0.67890  0.78640  0.10340  Biso   1.000  H
  C174     1.0000 0.71600  0.86780  0.83620  Biso   1.000  C
  H112     1.0000 0.69550  0.84860  0.87840  Biso   1.000  H
  C175     1.0000 0.78310  0.79410  0.08510  Biso   1.000  C
  C176     1.0000 0.94130  0.10690  0.67650  Biso   1.000  C
  H113     1.0000 0.92210  0.11760  0.61980  Biso   1.000  H
  C177     1.0000 0.00550  0.12170  0.71030  Biso   1.000  C
  C178     1.0000 0.99630  0.07690  0.84780  Biso   1.000  C
  H114     1.0000 0.01430  0.06760  0.90650  Biso   1.000  H
  C179     1.0000 0.82680  0.97040  0.30550  Biso   1.000  C
  H115     1.0000 0.81840  0.96530  0.37050  Biso   1.000  H
  C180     1.0000 0.03200  0.10740  0.79700  Biso   1.000  C
  H116     1.0000 0.07410  0.11840  0.82110  Biso   1.000  H
  C181     1.0000 0.86860  0.00350  0.27630  Biso   1.000  C
  H117     1.0000 0.88910  0.02120  0.32200  Biso   1.000  H
  C182     1.0000 0.88030  0.01050  0.17980  Biso   1.000  C
  H118     1.0000 0.90880  0.03280  0.15990  Biso   1.000  H
  C183     1.0000 0.73710  0.89100  0.67740  Biso   1.000  C
  H119     1.0000 0.73190  0.88800  0.61110  Biso   1.000  H
  C184     1.0000 0.77690  0.92350  0.71370  Biso   1.000  C
  H120     1.0000 0.79770  0.94300  0.67240  Biso   1.000  H
  C185     1.0000 0.84620  0.77180  0.07650  Biso   1.000  C
  H121     1.0000 0.88870  0.78640  0.07070  Biso   1.000  H
  C186     1.0000 0.70490  0.86300  0.73850  Biso   1.000  C
  H122     1.0000 0.67650  0.84140  0.71490  Biso   1.000  H
  C187     1.0000 0.13280  0.18330  0.58500  Biso   1.000  C
  H123     1.0000 0.17870  0.19170  0.57060  Biso   1.000  H
  C188     1.0000 0.11580  0.15270  0.64700  Biso   1.000  C
  H124     1.0000 0.14760  0.13540  0.67950  Biso   1.000  H
  C189     1.0000 0.57110  0.99020  0.01470  Biso   1.000  C
  C190     1.0000 0.64860  0.98010  0.03020  Biso   1.000  C
  C191     1.0000 0.54680  0.03070  0.03000  Biso   1.000  C
  H125     1.0000 0.57810  0.05160  0.05020  Biso   1.000  H
  C192     1.0000 0.52350  0.95960  0.98430  Biso   1.000  C
  H126     1.0000 0.53930  0.93220  0.97360  Biso   1.000  H
  O25      1.0000 0.18920  0.49180  0.44450  Biso   1.000  O
  Mn7      1.0000 0.26214  0.58337  0.47499  Biso   1.000  Mn
  O26      1.0000 0.22310  0.63990  0.41930  Biso   1.000  O
  O27      1.0000 0.33680  0.63900  0.44630  Biso   1.000  O
  N31      1.0000 0.25530  0.60080  0.62770  Biso   1.000  N
  N32      1.0000 0.32410  0.53970  0.54420  Biso   1.000  N
  N33      1.0000 0.30880  0.54880  0.35950  Biso   1.000  N
  N34      1.0000 0.54500  0.34890  0.84570  Biso   1.000  N
  N35      1.0000 0.57410  0.29980  0.95250  Biso   1.000  N
  C193     1.0000 0.29770  0.55520  0.26520  Biso   1.000  C
  H127     1.0000 0.26930  0.57780  0.24640  Biso   1.000  H
  C194     1.0000 0.32560  0.53810  0.64050  Biso   1.000  C
  O28      1.0000 0.16560  0.55830  0.48610  Biso   1.000  O
  C195     1.0000 0.39570  0.47780  0.53640  Biso   1.000  C
  H128     1.0000 0.42020  0.45800  0.49980  Biso   1.000  H
  C196     1.0000 0.36140  0.50660  0.68850  Biso   1.000  C
  H129     1.0000 0.36210  0.50610  0.75550  Biso   1.000  H
  C197     1.0000 0.34970  0.51560  0.38650  Biso   1.000  C
  C198     1.0000 0.35770  0.51030  0.49150  Biso   1.000  C
  C199     1.0000 0.40630  0.42390  0.77200  Biso   1.000  C
  H130     1.0000 0.36320  0.43390  0.79480  Biso   1.000  H
  C200     1.0000 0.28570  0.57300  0.68800  Biso   1.000  C
  C201     1.0000 0.39620  0.47560  0.63620  Biso   1.000  C
  C202     1.0000 0.28090  0.65880  0.42500  Biso   1.000  C
  C203     1.0000 0.43370  0.44040  0.68710  Biso   1.000  C
  C204     1.0000 0.52300  0.32060  0.91020  Biso   1.000  C
  H131     1.0000 0.47540  0.31600  0.92380  Biso   1.000  H
  C205     1.0000 0.22140  0.72810  0.40410  Biso   1.000  C
  H132     1.0000 0.17890  0.71360  0.39660  Biso   1.000  H
  C206     1.0000 0.21600  0.63220  0.66380  Biso   1.000  C
  H133     1.0000 0.19550  0.65140  0.62160  Biso   1.000  H
  C207     1.0000 0.28310  0.70590  0.41490  Biso   1.000  C
  C208     1.0000 0.44130  0.39310  0.82350  Biso   1.000  C
  H134     1.0000 0.42210  0.38240  0.88020  Biso   1.000  H
  C209     1.0000 0.50550  0.37830  0.78970  Biso   1.000  C
  C210     1.0000 0.49630  0.42310  0.65220  Biso   1.000  C
  H135     1.0000 0.51430  0.43240  0.59350  Biso   1.000  H
  C211     1.0000 0.32680  0.52960  0.19450  Biso   1.000  C
  H136     1.0000 0.31840  0.53470  0.12950  Biso   1.000  H
  C212     1.0000 0.53200  0.39260  0.70300  Biso   1.000  C
  H137     1.0000 0.57410  0.38160  0.67890  Biso   1.000  H
  C213     1.0000 0.36860  0.49650  0.22370  Biso   1.000  C
  H138     1.0000 0.38910  0.47880  0.17800  Biso   1.000  H
  C214     1.0000 0.38030  0.48950  0.32020  Biso   1.000  C
  H139     1.0000 0.40880  0.46720  0.34010  Biso   1.000  H
  C215     1.0000 0.23710  0.60900  0.82260  Biso   1.000  C
  H140     1.0000 0.23190  0.61200  0.88890  Biso   1.000  H
  C216     1.0000 0.27690  0.57650  0.78630  Biso   1.000  C
  H141     1.0000 0.29770  0.55700  0.82760  Biso   1.000  H
  C217     1.0000 0.34620  0.72820  0.42350  Biso   1.000  C
  H142     1.0000 0.38870  0.71360  0.42930  Biso   1.000  H
  C218     1.0000 0.20490  0.63700  0.76150  Biso   1.000  C
  H143     1.0000 0.17650  0.65860  0.78510  Biso   1.000  H
  C219     1.0000 0.63280  0.31670  0.91500  Biso   1.000  C
  H144     1.0000 0.67870  0.30830  0.92940  Biso   1.000  H
  C220     1.0000 0.61580  0.34730  0.85300  Biso   1.000  C
  H145     1.0000 0.64760  0.36460  0.82050  Biso   1.000  H
  C221     1.0000 0.07110  0.50980  0.48530  Biso   1.000  C
  C222     1.0000 0.14860  0.51990  0.46980  Biso   1.000  C
  C223     1.0000 0.04680  0.46930  0.47000  Biso   1.000  C
  H146     1.0000 0.07810  0.44840  0.44980  Biso   1.000  H
  C224     1.0000 0.02350  0.54040  0.51570  Biso   1.000  C
  H147     1.0000 0.03930  0.56780  0.52640  Biso   1.000  H
  O29      1.0000 0.31080  0.50820  0.94450  Biso   1.000  O
  Mn8      1.0000 0.23786  0.41663  0.97499  Biso   1.000  Mn
  O30      1.0000 0.27690  0.36010  0.91930  Biso   1.000  O
  O31      1.0000 0.16320  0.36100  0.94630  Biso   1.000  O
  N36      1.0000 0.24470  0.39920  0.12770  Biso   1.000  N
  N37      1.0000 0.17590  0.46030  0.04420  Biso   1.000  N
  N38      1.0000 0.19120  0.45120  0.85950  Biso   1.000  N
  N39      1.0000 0.95500  0.65110  0.34570  Biso   1.000  N
  N40      1.0000 0.92590  0.70020  0.45250  Biso   1.000  N
  C225     1.0000 0.20230  0.44480  0.76520  Biso   1.000  C
  H148     1.0000 0.23070  0.42220  0.74640  Biso   1.000  H
  C226     1.0000 0.17440  0.46190  0.14050  Biso   1.000  C
  O32      1.0000 0.33440  0.44170  0.98610  Biso   1.000  O
  C227     1.0000 0.10430  0.52220  0.03640  Biso   1.000  C
  H149     1.0000 0.07980  0.54200  0.99980  Biso   1.000  H
  C228     1.0000 0.13860  0.49340  0.18850  Biso   1.000  C
  H150     1.0000 0.13790  0.49390  0.25550  Biso   1.000  H
  C229     1.0000 0.15030  0.48440  0.88650  Biso   1.000  C
  C230     1.0000 0.14230  0.48970  0.99150  Biso   1.000  C
  C231     1.0000 0.09370  0.57610  0.27200  Biso   1.000  C
  H151     1.0000 0.13680  0.56610  0.29480  Biso   1.000  H
  C232     1.0000 0.21430  0.42700  0.18800  Biso   1.000  C
  C233     1.0000 0.10380  0.52440  0.13620  Biso   1.000  C
  C234     1.0000 0.21910  0.34120  0.92500  Biso   1.000  C
  C235     1.0000 0.06630  0.55960  0.18710  Biso   1.000  C
  C236     1.0000 0.97700  0.67940  0.41020  Biso   1.000  C
  H152     1.0000 0.02460  0.68400  0.42380  Biso   1.000  H
  C237     1.0000 0.27860  0.27190  0.90410  Biso   1.000  C
  H153     1.0000 0.32110  0.28640  0.89660  Biso   1.000  H
  C238     1.0000 0.28400  0.36780  0.16380  Biso   1.000  C
  H154     1.0000 0.30450  0.34860  0.12160  Biso   1.000  H
  C239     1.0000 0.21690  0.29410  0.91490  Biso   1.000  C
  C240     1.0000 0.05870  0.60690  0.32350  Biso   1.000  C
  H155     1.0000 0.07790  0.61760  0.38020  Biso   1.000  H
  C241     1.0000 0.99450  0.62170  0.28970  Biso   1.000  C
  C242     1.0000 0.00370  0.57690  0.15220  Biso   1.000  C
  H156     1.0000 0.98570  0.56760  0.09350  Biso   1.000  H
  C243     1.0000 0.17320  0.47040  0.69450  Biso   1.000  C
  H157     1.0000 0.18160  0.46530  0.62950  Biso   1.000  H
  C244     1.0000 0.96800  0.60740  0.20300  Biso   1.000  C
  H158     1.0000 0.92590  0.61840  0.17890  Biso   1.000  H
  C245     1.0000 0.13140  0.50350  0.72370  Biso   1.000  C
  H159     1.0000 0.11090  0.52120  0.67800  Biso   1.000  H
  C246     1.0000 0.11970  0.51050  0.82020  Biso   1.000  C
  H160     1.0000 0.09120  0.53280  0.84010  Biso   1.000  H
  C247     1.0000 0.26290  0.39100  0.32260  Biso   1.000  C
  H161     1.0000 0.26810  0.38800  0.38890  Biso   1.000  H
  C248     1.0000 0.22310  0.42350  0.28630  Biso   1.000  C
  H162     1.0000 0.20230  0.44300  0.32760  Biso   1.000  H
  C249     1.0000 0.15380  0.27180  0.92350  Biso   1.000  C
  H163     1.0000 0.11130  0.28640  0.92930  Biso   1.000  H
  C250     1.0000 0.29510  0.36300  0.26150  Biso   1.000  C
  H164     1.0000 0.32350  0.34140  0.28510  Biso   1.000  H
  C251     1.0000 0.86720  0.68330  0.41500  Biso   1.000  C
  H165     1.0000 0.82130  0.69170  0.42940  Biso   1.000  H
  C252     1.0000 0.88420  0.65270  0.35300  Biso   1.000  C
  H166     1.0000 0.85240  0.63540  0.32050  Biso   1.000  H
  C253     1.0000 0.42890  0.49020  0.98530  Biso   1.000  C
  C254     1.0000 0.35140  0.48010  0.96980  Biso   1.000  C
  C255     1.0000 0.45320  0.53070  0.97000  Biso   1.000  C
  H167     1.0000 0.42190  0.55160  0.94980  Biso   1.000  H
  C256     1.0000 0.47650  0.45960  0.01570  Biso   1.000  C
  H168     1.0000 0.46070  0.43220  0.02640  Biso   1.000  H
  O33      1.0000 0.00550  0.25000  0.35310  Biso   1.000  O
  C257     1.0000 0.94200  0.25000  0.38300  Biso   1.000  C
  C258     1.0000 0.88410  0.25000  0.30910  Biso   1.000  C
  C259     1.0000 0.90070  0.25000  0.21170  Biso   1.000  C
  H169     1.0000 0.94770  0.25000  0.19200  Biso   1.000  H
  Mn9      1.0000 0.57368  0.25000  0.04210  Biso   1.000  Mn
  O34      1.0000 0.92810  0.25000  0.46980  Biso   1.000  O
  O35      1.0000 0.65550  0.25000  0.12760  Biso   1.000  O
  O36      1.0000 0.73520  0.25000  0.01030  Biso   1.000  O
  C260     1.0000 0.77550  0.25000  0.17190  Biso   1.000  C
  C261     1.0000 0.75940  0.25000  0.26850  Biso   1.000  C
  H170     1.0000 0.71230  0.25000  0.28810  Biso   1.000  H
  C262     1.0000 0.71910  0.25000  0.09800  Biso   1.000  C
  C263     1.0000 0.81340  0.25000  0.33780  Biso   1.000  C
  H171     1.0000 0.80200  0.25000  0.40300  Biso   1.000  H
  C264     1.0000 0.84680  0.25000  0.14340  Biso   1.000  C
  H172     1.0000 0.85810  0.25000  0.07820  Biso   1.000  H
  O37      1.0000 0.49450  0.75000  0.85310  Biso   1.000  O
  C265     1.0000 0.55800  0.75000  0.88300  Biso   1.000  C
  C266     1.0000 0.61590  0.75000  0.80910  Biso   1.000  C
  C267     1.0000 0.59930  0.75000  0.71170  Biso   1.000  C
  H173     1.0000 0.55230  0.75000  0.69200  Biso   1.000  H
  Mn10     1.0000 0.92632  0.75000  0.54210  Biso   1.000  Mn
  O38      1.0000 0.57190  0.75000  0.96980  Biso   1.000  O
  O39      1.0000 0.84450  0.75000  0.62760  Biso   1.000  O
  O40      1.0000 0.76480  0.75000  0.51030  Biso   1.000  O
  C268     1.0000 0.72450  0.75000  0.67190  Biso   1.000  C
  C269     1.0000 0.74060  0.75000  0.76850  Biso   1.000  C
  H174     1.0000 0.78770  0.75000  0.78810  Biso   1.000  H
  C270     1.0000 0.78090  0.75000  0.59800  Biso   1.000  C
  C271     1.0000 0.68660  0.75000  0.83780  Biso   1.000  C
  H175     1.0000 0.69800  0.75000  0.90300  Biso   1.000  H
  C272     1.0000 0.65320  0.75000  0.64340  Biso   1.000  C
  H176     1.0000 0.64190  0.75000  0.57820  Biso   1.000  H
  O41      1.0000 0.99450  0.75000  0.64690  Biso   1.000  O
  C273     1.0000 0.05800  0.75000  0.61700  Biso   1.000  C
  C274     1.0000 0.11590  0.75000  0.69090  Biso   1.000  C
  C275     1.0000 0.09930  0.75000  0.78830  Biso   1.000  C
  H177     1.0000 0.05230  0.75000  0.80800  Biso   1.000  H
  Mn11     1.0000 0.42632  0.75000  0.95790  Biso   1.000  Mn
  O42      1.0000 0.07190  0.75000  0.53020  Biso   1.000  O
  O43      1.0000 0.34450  0.75000  0.87240  Biso   1.000  O
  O44      1.0000 0.26480  0.75000  0.98970  Biso   1.000  O
  C276     1.0000 0.22450  0.75000  0.82810  Biso   1.000  C
  C277     1.0000 0.24060  0.75000  0.73150  Biso   1.000  C
  H178     1.0000 0.28770  0.75000  0.71190  Biso   1.000  H
  C278     1.0000 0.28090  0.75000  0.90200  Biso   1.000  C
  C279     1.0000 0.18660  0.75000  0.66220  Biso   1.000  C
  H179     1.0000 0.19800  0.75000  0.59700  Biso   1.000  H
  C280     1.0000 0.15320  0.75000  0.85660  Biso   1.000  C
  H180     1.0000 0.14190  0.75000  0.92180  Biso   1.000  H
  O45      1.0000 0.50550  0.25000  0.14690  Biso   1.000  O
  C281     1.0000 0.44200  0.25000  0.11700  Biso   1.000  C
  C282     1.0000 0.38410  0.25000  0.19090  Biso   1.000  C
  C283     1.0000 0.40070  0.25000  0.28830  Biso   1.000  C
  H181     1.0000 0.44770  0.25000  0.30800  Biso   1.000  H
  Mn12     1.0000 0.07368  0.25000  0.45790  Biso   1.000  Mn
  O46      1.0000 0.42810  0.25000  0.03020  Biso   1.000  O
  O47      1.0000 0.15550  0.25000  0.37240  Biso   1.000  O
  O48      1.0000 0.23520  0.25000  0.48970  Biso   1.000  O
  C284     1.0000 0.27550  0.25000  0.32810  Biso   1.000  C
  C285     1.0000 0.25940  0.25000  0.23150  Biso   1.000  C
  H182     1.0000 0.21230  0.25000  0.21190  Biso   1.000  H
  C286     1.0000 0.21910  0.25000  0.40200  Biso   1.000  C
  C287     1.0000 0.31340  0.25000  0.16220  Biso   1.000  C
  H183     1.0000 0.30200  0.25000  0.09700  Biso   1.000  H
  C288     1.0000 0.34680  0.25000  0.35660  Biso   1.000  C
  H184     1.0000 0.35810  0.25000  0.42180  Biso   1.000  H
