data_image0
_cell_length_a       15.7742
_cell_length_b       19.9751
_cell_length_c       16.2065
_cell_angle_alpha    90
_cell_angle_beta     106.398
_cell_angle_gamma    90

_symmetry_space_group_name_H-M    "P 1"
_symmetry_int_tables_number       1

loop_
  _symmetry_equiv_pos_as_xyz
  'x, y, z'

loop_
  _atom_site_label
  _atom_site_occupancy
  _atom_site_fract_x
  _atom_site_fract_y
  _atom_site_fract_z
  _atom_site_thermal_displace_type
  _atom_site_B_iso_or_equiv
  _atom_site_type_symbol
  N1       1.0000 0.53330  0.97650  0.56630  Biso   1.000  N
  O1       1.0000 0.57200  0.03020  0.57320  Biso   1.000  O
  O2       1.0000 0.50180  0.95350  0.49350  Biso   1.000  O
  O3       1.0000 0.53115  0.94653  0.63271  Biso   1.000  O
  N2       1.0000 0.36220  0.95374  0.68290  Biso   1.000  N
  C1       1.0000 0.45370  0.09250  0.68250  Biso   1.000  C
  H1       1.0000 0.42040  0.06830  0.63360  Biso   1.000  H
  C2       1.0000 0.45090  0.16160  0.67920  Biso   1.000  C
  H2       1.0000 0.41610  0.18380  0.62940  Biso   1.000  H
  C3       1.0000 0.42310  0.30830  0.71250  Biso   1.000  C
  H3       1.0000 0.36990  0.28500  0.68600  Biso   1.000  H
  C4       1.0000 0.42300  0.37770  0.71320  Biso   1.000  C
  H4       1.0000 0.36940  0.40100  0.68820  Biso   1.000  H
  C5       1.0000 0.44240  0.52420  0.68380  Biso   1.000  C
  H5       1.0000 0.40240  0.50090  0.63790  Biso   1.000  H
  C6       1.0000 0.44240  0.59360  0.68390  Biso   1.000  C
  H6       1.0000 0.40260  0.61720  0.63810  Biso   1.000  H
  C7       1.0000 0.48530  0.80930  0.67650  Biso   1.000  C
  H7       1.0000 0.47500  0.83280  0.62360  Biso   1.000  H
  C8       1.0000 0.48450  0.74020  0.67420  Biso   1.000  C
  H8       1.0000 0.47330  0.71760  0.62070  Biso   1.000  H
  C9       1.0000 0.30330  0.97500  0.72250  Biso   1.000  C
  H9       1.0000 0.32310  0.98280  0.78270  Biso   1.000  H
  C10      1.0000 0.21560  0.98630  0.68080  Biso   1.000  C
  H10      1.0000 0.17680  0.00220  0.71190  Biso   1.000  H
  C11      1.0000 0.18400  0.97430  0.59330  Biso   1.000  C
  C12      1.0000 0.24340  0.95160  0.55230  Biso   1.000  C
  H11      1.0000 0.22460  0.94220  0.49240  Biso   1.000  H
  C13      1.0000 0.33090  0.94220  0.59850  Biso   1.000  C
  H12      1.0000 0.37090  0.92680  0.56860  Biso   1.000  H
  C14      1.0000 0.02860  0.93430  0.52680  Biso   1.000  C
  C15      1.0000 0.06230  0.05400  0.51950  Biso   1.000  C
  C16      1.0000 0.12180  0.10840  0.53470  Biso   1.000  C
  H13      1.0000 0.18250  0.10070  0.56300  Biso   1.000  H
  C17      1.0000 0.09400  0.17150  0.50970  Biso   1.000  C
  H14      1.0000 0.13470  0.20760  0.52250  Biso   1.000  H
  C18      1.0000 0.00460  0.18350  0.46470  Biso   1.000  C
  H15      1.0000 0.98560  0.22780  0.44740  Biso   1.000  H
  C19      1.0000 0.05390  0.86760  0.55390  Biso   1.000  C
  H16      1.0000 0.11330  0.85880  0.58580  Biso   1.000  H
  C20      1.0000 0.08870  0.98770  0.54550  Biso   1.000  C
  N3       1.0000 0.46670  0.97650  0.93370  Biso   1.000  N
  O4       1.0000 0.42800  0.03020  0.92680  Biso   1.000  O
  O5       1.0000 0.49820  0.95350  0.00650  Biso   1.000  O
  O6       1.0000 0.46885  0.94653  0.86729  Biso   1.000  O
  N4       1.0000 0.63780  0.95374  0.81710  Biso   1.000  N
  C21      1.0000 0.54630  0.09250  0.81750  Biso   1.000  C
  H17      1.0000 0.57960  0.06830  0.86640  Biso   1.000  H
  C22      1.0000 0.54910  0.16160  0.82080  Biso   1.000  C
  H18      1.0000 0.58390  0.18380  0.87060  Biso   1.000  H
  C23      1.0000 0.57690  0.30830  0.78750  Biso   1.000  C
  H19      1.0000 0.63010  0.28500  0.81400  Biso   1.000  H
  C24      1.0000 0.57700  0.37770  0.78680  Biso   1.000  C
  H20      1.0000 0.63060  0.40100  0.81180  Biso   1.000  H
  C25      1.0000 0.55760  0.52420  0.81620  Biso   1.000  C
  H21      1.0000 0.59760  0.50090  0.86210  Biso   1.000  H
  C26      1.0000 0.55760  0.59360  0.81610  Biso   1.000  C
  H22      1.0000 0.59740  0.61720  0.86190  Biso   1.000  H
  C27      1.0000 0.51470  0.80930  0.82350  Biso   1.000  C
  H23      1.0000 0.52500  0.83280  0.87640  Biso   1.000  H
  C28      1.0000 0.51550  0.74020  0.82580  Biso   1.000  C
  H24      1.0000 0.52670  0.71760  0.87930  Biso   1.000  H
  C29      1.0000 0.69670  0.97500  0.77750  Biso   1.000  C
  H25      1.0000 0.67690  0.98280  0.71730  Biso   1.000  H
  C30      1.0000 0.78440  0.98630  0.81920  Biso   1.000  C
  H26      1.0000 0.82320  0.00220  0.78810  Biso   1.000  H
  C31      1.0000 0.81600  0.97430  0.90670  Biso   1.000  C
  C32      1.0000 0.75660  0.95160  0.94770  Biso   1.000  C
  H27      1.0000 0.77540  0.94220  0.00760  Biso   1.000  H
  C33      1.0000 0.66910  0.94220  0.90150  Biso   1.000  C
  H28      1.0000 0.62910  0.92680  0.93140  Biso   1.000  H
  C34      1.0000 0.97140  0.93430  0.97320  Biso   1.000  C
  C35      1.0000 0.93770  0.05400  0.98050  Biso   1.000  C
  C36      1.0000 0.87820  0.10840  0.96530  Biso   1.000  C
  H29      1.0000 0.81750  0.10070  0.93700  Biso   1.000  H
  C37      1.0000 0.90600  0.17150  0.99030  Biso   1.000  C
  H30      1.0000 0.86530  0.20760  0.97750  Biso   1.000  H
  C38      1.0000 0.99540  0.18350  0.03530  Biso   1.000  C
  H31      1.0000 0.01440  0.22780  0.05260  Biso   1.000  H
  C39      1.0000 0.94610  0.86760  0.94610  Biso   1.000  C
  H32      1.0000 0.88670  0.85880  0.91420  Biso   1.000  H
  C40      1.0000 0.91130  0.98770  0.95450  Biso   1.000  C
  N5       1.0000 0.46670  0.02350  0.43370  Biso   1.000  N
  O7       1.0000 0.42800  0.96980  0.42680  Biso   1.000  O
  O8       1.0000 0.49820  0.04650  0.50650  Biso   1.000  O
  O9       1.0000 0.46885  0.05347  0.36729  Biso   1.000  O
  N6       1.0000 0.63780  0.04626  0.31710  Biso   1.000  N
  C41      1.0000 0.54630  0.90750  0.31750  Biso   1.000  C
  H33      1.0000 0.57960  0.93170  0.36640  Biso   1.000  H
  C42      1.0000 0.54910  0.83840  0.32080  Biso   1.000  C
  H34      1.0000 0.58390  0.81620  0.37060  Biso   1.000  H
  C43      1.0000 0.57690  0.69170  0.28750  Biso   1.000  C
  H35      1.0000 0.63010  0.71500  0.31400  Biso   1.000  H
  C44      1.0000 0.57700  0.62230  0.28680  Biso   1.000  C
  H36      1.0000 0.63060  0.59900  0.31180  Biso   1.000  H
  C45      1.0000 0.55760  0.47580  0.31620  Biso   1.000  C
  H37      1.0000 0.59760  0.49910  0.36210  Biso   1.000  H
  C46      1.0000 0.55760  0.40640  0.31610  Biso   1.000  C
  H38      1.0000 0.59740  0.38280  0.36190  Biso   1.000  H
  C47      1.0000 0.51470  0.19070  0.32350  Biso   1.000  C
  H39      1.0000 0.52500  0.16720  0.37640  Biso   1.000  H
  C48      1.0000 0.51550  0.25980  0.32580  Biso   1.000  C
  H40      1.0000 0.52670  0.28240  0.37930  Biso   1.000  H
  C49      1.0000 0.69670  0.02500  0.27750  Biso   1.000  C
  H41      1.0000 0.67690  0.01720  0.21730  Biso   1.000  H
  C50      1.0000 0.78440  0.01370  0.31920  Biso   1.000  C
  H42      1.0000 0.82320  0.99780  0.28810  Biso   1.000  H
  C51      1.0000 0.81600  0.02570  0.40670  Biso   1.000  C
  C52      1.0000 0.75660  0.04840  0.44770  Biso   1.000  C
  H43      1.0000 0.77540  0.05780  0.50760  Biso   1.000  H
  C53      1.0000 0.66910  0.05780  0.40150  Biso   1.000  C
  H44      1.0000 0.62910  0.07320  0.43140  Biso   1.000  H
  C54      1.0000 0.97140  0.06570  0.47320  Biso   1.000  C
  C55      1.0000 0.93770  0.94600  0.48050  Biso   1.000  C
  C56      1.0000 0.87820  0.89160  0.46530  Biso   1.000  C
  H45      1.0000 0.81750  0.89930  0.43700  Biso   1.000  H
  C57      1.0000 0.90600  0.82850  0.49030  Biso   1.000  C
  H46      1.0000 0.86530  0.79240  0.47750  Biso   1.000  H
  C58      1.0000 0.99540  0.81650  0.53530  Biso   1.000  C
  H47      1.0000 0.01440  0.77220  0.55260  Biso   1.000  H
  C59      1.0000 0.94610  0.13240  0.44610  Biso   1.000  C
  H48      1.0000 0.88670  0.14120  0.41420  Biso   1.000  H
  C60      1.0000 0.91130  0.01230  0.45450  Biso   1.000  C
  N7       1.0000 0.53330  0.02350  0.06630  Biso   1.000  N
  O10      1.0000 0.57200  0.96980  0.07320  Biso   1.000  O
  O11      1.0000 0.50180  0.04650  0.99350  Biso   1.000  O
  O12      1.0000 0.53115  0.05347  0.13271  Biso   1.000  O
  N8       1.0000 0.36220  0.04626  0.18290  Biso   1.000  N
  C61      1.0000 0.45370  0.90750  0.18250  Biso   1.000  C
  H49      1.0000 0.42040  0.93170  0.13360  Biso   1.000  H
  C62      1.0000 0.45090  0.83840  0.17920  Biso   1.000  C
  H50      1.0000 0.41610  0.81620  0.12940  Biso   1.000  H
  C63      1.0000 0.42310  0.69170  0.21250  Biso   1.000  C
  H51      1.0000 0.36990  0.71500  0.18600  Biso   1.000  H
  C64      1.0000 0.42300  0.62230  0.21320  Biso   1.000  C
  H52      1.0000 0.36940  0.59900  0.18820  Biso   1.000  H
  C65      1.0000 0.44240  0.47580  0.18380  Biso   1.000  C
  H53      1.0000 0.40240  0.49910  0.13790  Biso   1.000  H
  C66      1.0000 0.44240  0.40640  0.18390  Biso   1.000  C
  H54      1.0000 0.40260  0.38280  0.13810  Biso   1.000  H
  C67      1.0000 0.48530  0.19070  0.17650  Biso   1.000  C
  H55      1.0000 0.47500  0.16720  0.12360  Biso   1.000  H
  C68      1.0000 0.48450  0.25980  0.17420  Biso   1.000  C
  H56      1.0000 0.47330  0.28240  0.12070  Biso   1.000  H
  C69      1.0000 0.30330  0.02500  0.22250  Biso   1.000  C
  H57      1.0000 0.32310  0.01720  0.28270  Biso   1.000  H
  C70      1.0000 0.21560  0.01370  0.18080  Biso   1.000  C
  H58      1.0000 0.17680  0.99780  0.21190  Biso   1.000  H
  C71      1.0000 0.18400  0.02570  0.09330  Biso   1.000  C
  C72      1.0000 0.24340  0.04840  0.05230  Biso   1.000  C
  H59      1.0000 0.22460  0.05780  0.99240  Biso   1.000  H
  C73      1.0000 0.33090  0.05780  0.09850  Biso   1.000  C
  H60      1.0000 0.37090  0.07320  0.06860  Biso   1.000  H
  C74      1.0000 0.02860  0.06570  0.02680  Biso   1.000  C
  C75      1.0000 0.06230  0.94600  0.01950  Biso   1.000  C
  C76      1.0000 0.12180  0.89160  0.03470  Biso   1.000  C
  H61      1.0000 0.18250  0.89930  0.06300  Biso   1.000  H
  C77      1.0000 0.09400  0.82850  0.00970  Biso   1.000  C
  H62      1.0000 0.13470  0.79240  0.02250  Biso   1.000  H
  C78      1.0000 0.00460  0.81650  0.96470  Biso   1.000  C
  H63      1.0000 0.98560  0.77220  0.94740  Biso   1.000  H
  C79      1.0000 0.05390  0.13240  0.05390  Biso   1.000  C
  H64      1.0000 0.11330  0.14120  0.08580  Biso   1.000  H
  C80      1.0000 0.08870  0.01230  0.04550  Biso   1.000  C
  Ni1      1.0000 0.50000  0.95153  0.75000  Biso   1.000  Ni
  N9       1.0000 0.50000  0.05790  0.75000  Biso   1.000  N
  C81      1.0000 0.50000  0.19850  0.75000  Biso   1.000  C
  C82      1.0000 0.50000  0.27210  0.75000  Biso   1.000  C
  C83      1.0000 0.50000  0.41370  0.75000  Biso   1.000  C
  C84      1.0000 0.50000  0.48790  0.75000  Biso   1.000  C
  C85      1.0000 0.50000  0.62920  0.75000  Biso   1.000  C
  N10      1.0000 0.50000  0.84550  0.75000  Biso   1.000  N
  C86      1.0000 0.50000  0.70360  0.75000  Biso   1.000  C
  Ni2      1.0000 0.50000  0.04847  0.25000  Biso   1.000  Ni
  N11      1.0000 0.50000  0.94210  0.25000  Biso   1.000  N
  C87      1.0000 0.50000  0.80150  0.25000  Biso   1.000  C
  C88      1.0000 0.50000  0.72790  0.25000  Biso   1.000  C
  C89      1.0000 0.50000  0.58630  0.25000  Biso   1.000  C
  C90      1.0000 0.50000  0.51210  0.25000  Biso   1.000  C
  C91      1.0000 0.50000  0.37080  0.25000  Biso   1.000  C
  N12      1.0000 0.50000  0.15450  0.25000  Biso   1.000  N
  C92      1.0000 0.50000  0.29640  0.25000  Biso   1.000  C
  N13      1.0000 0.03330  0.47650  0.56630  Biso   1.000  N
  O13      1.0000 0.07200  0.53020  0.57320  Biso   1.000  O
  O14      1.0000 0.00180  0.45350  0.49350  Biso   1.000  O
  O15      1.0000 0.03115  0.44653  0.63271  Biso   1.000  O
  N14      1.0000 0.86220  0.45374  0.68290  Biso   1.000  N
  C93      1.0000 0.95370  0.59250  0.68250  Biso   1.000  C
  H65      1.0000 0.92040  0.56830  0.63360  Biso   1.000  H
  C94      1.0000 0.95090  0.66160  0.67920  Biso   1.000  C
  H66      1.0000 0.91610  0.68380  0.62940  Biso   1.000  H
  C95      1.0000 0.92310  0.80830  0.71250  Biso   1.000  C
  H67      1.0000 0.86990  0.78500  0.68600  Biso   1.000  H
  C96      1.0000 0.92300  0.87770  0.71320  Biso   1.000  C
  H68      1.0000 0.86940  0.90100  0.68820  Biso   1.000  H
  C97      1.0000 0.94240  0.02420  0.68380  Biso   1.000  C
  H69      1.0000 0.90240  0.00090  0.63790  Biso   1.000  H
  C98      1.0000 0.94240  0.09360  0.68390  Biso   1.000  C
  H70      1.0000 0.90260  0.11720  0.63810  Biso   1.000  H
  C99      1.0000 0.98530  0.30930  0.67650  Biso   1.000  C
  H71      1.0000 0.97500  0.33280  0.62360  Biso   1.000  H
  C100     1.0000 0.98450  0.24020  0.67420  Biso   1.000  C
  H72      1.0000 0.97330  0.21760  0.62070  Biso   1.000  H
  C101     1.0000 0.80330  0.47500  0.72250  Biso   1.000  C
  H73      1.0000 0.82310  0.48280  0.78270  Biso   1.000  H
  C102     1.0000 0.71560  0.48630  0.68080  Biso   1.000  C
  H74      1.0000 0.67680  0.50220  0.71190  Biso   1.000  H
  C103     1.0000 0.68400  0.47430  0.59330  Biso   1.000  C
  C104     1.0000 0.74340  0.45160  0.55230  Biso   1.000  C
  H75      1.0000 0.72460  0.44220  0.49240  Biso   1.000  H
  C105     1.0000 0.83090  0.44220  0.59850  Biso   1.000  C
  H76      1.0000 0.87090  0.42680  0.56860  Biso   1.000  H
  C106     1.0000 0.52860  0.43430  0.52680  Biso   1.000  C
  C107     1.0000 0.56230  0.55400  0.51950  Biso   1.000  C
  C108     1.0000 0.62180  0.60840  0.53470  Biso   1.000  C
  H77      1.0000 0.68250  0.60070  0.56300  Biso   1.000  H
  C109     1.0000 0.59400  0.67150  0.50970  Biso   1.000  C
  H78      1.0000 0.63470  0.70760  0.52250  Biso   1.000  H
  C110     1.0000 0.50460  0.68350  0.46470  Biso   1.000  C
  H79      1.0000 0.48560  0.72780  0.44740  Biso   1.000  H
  C111     1.0000 0.55390  0.36760  0.55390  Biso   1.000  C
  H80      1.0000 0.61330  0.35880  0.58580  Biso   1.000  H
  C112     1.0000 0.58870  0.48770  0.54550  Biso   1.000  C
  N15      1.0000 0.96670  0.47650  0.93370  Biso   1.000  N
  O16      1.0000 0.92800  0.53020  0.92680  Biso   1.000  O
  O17      1.0000 0.99820  0.45350  0.00650  Biso   1.000  O
  O18      1.0000 0.96885  0.44653  0.86729  Biso   1.000  O
  N16      1.0000 0.13780  0.45374  0.81710  Biso   1.000  N
  C113     1.0000 0.04630  0.59250  0.81750  Biso   1.000  C
  H81      1.0000 0.07960  0.56830  0.86640  Biso   1.000  H
  C114     1.0000 0.04910  0.66160  0.82080  Biso   1.000  C
  H82      1.0000 0.08390  0.68380  0.87060  Biso   1.000  H
  C115     1.0000 0.07690  0.80830  0.78750  Biso   1.000  C
  H83      1.0000 0.13010  0.78500  0.81400  Biso   1.000  H
  C116     1.0000 0.07700  0.87770  0.78680  Biso   1.000  C
  H84      1.0000 0.13060  0.90100  0.81180  Biso   1.000  H
  C117     1.0000 0.05760  0.02420  0.81620  Biso   1.000  C
  H85      1.0000 0.09760  0.00090  0.86210  Biso   1.000  H
  C118     1.0000 0.05760  0.09360  0.81610  Biso   1.000  C
  H86      1.0000 0.09740  0.11720  0.86190  Biso   1.000  H
  C119     1.0000 0.01470  0.30930  0.82350  Biso   1.000  C
  H87      1.0000 0.02500  0.33280  0.87640  Biso   1.000  H
  C120     1.0000 0.01550  0.24020  0.82580  Biso   1.000  C
  H88      1.0000 0.02670  0.21760  0.87930  Biso   1.000  H
  C121     1.0000 0.19670  0.47500  0.77750  Biso   1.000  C
  H89      1.0000 0.17690  0.48280  0.71730  Biso   1.000  H
  C122     1.0000 0.28440  0.48630  0.81920  Biso   1.000  C
  H90      1.0000 0.32320  0.50220  0.78810  Biso   1.000  H
  C123     1.0000 0.31600  0.47430  0.90670  Biso   1.000  C
  C124     1.0000 0.25660  0.45160  0.94770  Biso   1.000  C
  H91      1.0000 0.27540  0.44220  0.00760  Biso   1.000  H
  C125     1.0000 0.16910  0.44220  0.90150  Biso   1.000  C
  H92      1.0000 0.12910  0.42680  0.93140  Biso   1.000  H
  C126     1.0000 0.47140  0.43430  0.97320  Biso   1.000  C
  C127     1.0000 0.43770  0.55400  0.98050  Biso   1.000  C
  C128     1.0000 0.37820  0.60840  0.96530  Biso   1.000  C
  H93      1.0000 0.31750  0.60070  0.93700  Biso   1.000  H
  C129     1.0000 0.40600  0.67150  0.99030  Biso   1.000  C
  H94      1.0000 0.36530  0.70760  0.97750  Biso   1.000  H
  C130     1.0000 0.49540  0.68350  0.03530  Biso   1.000  C
  H95      1.0000 0.51440  0.72780  0.05260  Biso   1.000  H
  C131     1.0000 0.44610  0.36760  0.94610  Biso   1.000  C
  H96      1.0000 0.38670  0.35880  0.91420  Biso   1.000  H
  C132     1.0000 0.41130  0.48770  0.95450  Biso   1.000  C
  N17      1.0000 0.96670  0.52350  0.43370  Biso   1.000  N
  O19      1.0000 0.92800  0.46980  0.42680  Biso   1.000  O
  O20      1.0000 0.99820  0.54650  0.50650  Biso   1.000  O
  O21      1.0000 0.96885  0.55347  0.36729  Biso   1.000  O
  N18      1.0000 0.13780  0.54626  0.31710  Biso   1.000  N
  C133     1.0000 0.04630  0.40750  0.31750  Biso   1.000  C
  H97      1.0000 0.07960  0.43170  0.36640  Biso   1.000  H
  C134     1.0000 0.04910  0.33840  0.32080  Biso   1.000  C
  H98      1.0000 0.08390  0.31620  0.37060  Biso   1.000  H
  C135     1.0000 0.07690  0.19170  0.28750  Biso   1.000  C
  H99      1.0000 0.13010  0.21500  0.31400  Biso   1.000  H
  C136     1.0000 0.07700  0.12230  0.28680  Biso   1.000  C
  H100     1.0000 0.13060  0.09900  0.31180  Biso   1.000  H
  C137     1.0000 0.05760  0.97580  0.31620  Biso   1.000  C
  H101     1.0000 0.09760  0.99910  0.36210  Biso   1.000  H
  C138     1.0000 0.05760  0.90640  0.31610  Biso   1.000  C
  H102     1.0000 0.09740  0.88280  0.36190  Biso   1.000  H
  C139     1.0000 0.01470  0.69070  0.32350  Biso   1.000  C
  H103     1.0000 0.02500  0.66720  0.37640  Biso   1.000  H
  C140     1.0000 0.01550  0.75980  0.32580  Biso   1.000  C
  H104     1.0000 0.02670  0.78240  0.37930  Biso   1.000  H
  C141     1.0000 0.19670  0.52500  0.27750  Biso   1.000  C
  H105     1.0000 0.17690  0.51720  0.21730  Biso   1.000  H
  C142     1.0000 0.28440  0.51370  0.31920  Biso   1.000  C
  H106     1.0000 0.32320  0.49780  0.28810  Biso   1.000  H
  C143     1.0000 0.31600  0.52570  0.40670  Biso   1.000  C
  C144     1.0000 0.25660  0.54840  0.44770  Biso   1.000  C
  H107     1.0000 0.27540  0.55780  0.50760  Biso   1.000  H
  C145     1.0000 0.16910  0.55780  0.40150  Biso   1.000  C
  H108     1.0000 0.12910  0.57320  0.43140  Biso   1.000  H
  C146     1.0000 0.47140  0.56570  0.47320  Biso   1.000  C
  C147     1.0000 0.43770  0.44600  0.48050  Biso   1.000  C
  C148     1.0000 0.37820  0.39160  0.46530  Biso   1.000  C
  H109     1.0000 0.31750  0.39930  0.43700  Biso   1.000  H
  C149     1.0000 0.40600  0.32850  0.49030  Biso   1.000  C
  H110     1.0000 0.36530  0.29240  0.47750  Biso   1.000  H
  C150     1.0000 0.49540  0.31650  0.53530  Biso   1.000  C
  H111     1.0000 0.51440  0.27220  0.55260  Biso   1.000  H
  C151     1.0000 0.44610  0.63240  0.44610  Biso   1.000  C
  H112     1.0000 0.38670  0.64120  0.41420  Biso   1.000  H
  C152     1.0000 0.41130  0.51230  0.45450  Biso   1.000  C
  N19      1.0000 0.03330  0.52350  0.06630  Biso   1.000  N
  O22      1.0000 0.07200  0.46980  0.07320  Biso   1.000  O
  O23      1.0000 0.00180  0.54650  0.99350  Biso   1.000  O
  O24      1.0000 0.03115  0.55347  0.13271  Biso   1.000  O
  N20      1.0000 0.86220  0.54626  0.18290  Biso   1.000  N
  C153     1.0000 0.95370  0.40750  0.18250  Biso   1.000  C
  H113     1.0000 0.92040  0.43170  0.13360  Biso   1.000  H
  C154     1.0000 0.95090  0.33840  0.17920  Biso   1.000  C
  H114     1.0000 0.91610  0.31620  0.12940  Biso   1.000  H
  C155     1.0000 0.92310  0.19170  0.21250  Biso   1.000  C
  H115     1.0000 0.86990  0.21500  0.18600  Biso   1.000  H
  C156     1.0000 0.92300  0.12230  0.21320  Biso   1.000  C
  H116     1.0000 0.86940  0.09900  0.18820  Biso   1.000  H
  C157     1.0000 0.94240  0.97580  0.18380  Biso   1.000  C
  H117     1.0000 0.90240  0.99910  0.13790  Biso   1.000  H
  C158     1.0000 0.94240  0.90640  0.18390  Biso   1.000  C
  H118     1.0000 0.90260  0.88280  0.13810  Biso   1.000  H
  C159     1.0000 0.98530  0.69070  0.17650  Biso   1.000  C
  H119     1.0000 0.97500  0.66720  0.12360  Biso   1.000  H
  C160     1.0000 0.98450  0.75980  0.17420  Biso   1.000  C
  H120     1.0000 0.97330  0.78240  0.12070  Biso   1.000  H
  C161     1.0000 0.80330  0.52500  0.22250  Biso   1.000  C
  H121     1.0000 0.82310  0.51720  0.28270  Biso   1.000  H
  C162     1.0000 0.71560  0.51370  0.18080  Biso   1.000  C
  H122     1.0000 0.67680  0.49780  0.21190  Biso   1.000  H
  C163     1.0000 0.68400  0.52570  0.09330  Biso   1.000  C
  C164     1.0000 0.74340  0.54840  0.05230  Biso   1.000  C
  H123     1.0000 0.72460  0.55780  0.99240  Biso   1.000  H
  C165     1.0000 0.83090  0.55780  0.09850  Biso   1.000  C
  H124     1.0000 0.87090  0.57320  0.06860  Biso   1.000  H
  C166     1.0000 0.52860  0.56570  0.02680  Biso   1.000  C
  C167     1.0000 0.56230  0.44600  0.01950  Biso   1.000  C
  C168     1.0000 0.62180  0.39160  0.03470  Biso   1.000  C
  H125     1.0000 0.68250  0.39930  0.06300  Biso   1.000  H
  C169     1.0000 0.59400  0.32850  0.00970  Biso   1.000  C
  H126     1.0000 0.63470  0.29240  0.02250  Biso   1.000  H
  C170     1.0000 0.50460  0.31650  0.96470  Biso   1.000  C
  H127     1.0000 0.48560  0.27220  0.94740  Biso   1.000  H
  C171     1.0000 0.55390  0.63240  0.05390  Biso   1.000  C
  H128     1.0000 0.61330  0.64120  0.08580  Biso   1.000  H
  C172     1.0000 0.58870  0.51230  0.04550  Biso   1.000  C
  Ni3      1.0000 0.00000  0.45153  0.75000  Biso   1.000  Ni
  N21      1.0000 0.00000  0.55790  0.75000  Biso   1.000  N
  C173     1.0000 0.00000  0.69850  0.75000  Biso   1.000  C
  C174     1.0000 0.00000  0.77210  0.75000  Biso   1.000  C
  C175     1.0000 0.00000  0.91370  0.75000  Biso   1.000  C
  C176     1.0000 0.00000  0.98790  0.75000  Biso   1.000  C
  C177     1.0000 0.00000  0.12920  0.75000  Biso   1.000  C
  N22      1.0000 0.00000  0.34550  0.75000  Biso   1.000  N
  C178     1.0000 0.00000  0.20360  0.75000  Biso   1.000  C
  Ni4      1.0000 0.00000  0.54847  0.25000  Biso   1.000  Ni
  N23      1.0000 0.00000  0.44210  0.25000  Biso   1.000  N
  C179     1.0000 0.00000  0.30150  0.25000  Biso   1.000  C
  C180     1.0000 0.00000  0.22790  0.25000  Biso   1.000  C
  C181     1.0000 0.00000  0.08630  0.25000  Biso   1.000  C
  C182     1.0000 0.00000  0.01210  0.25000  Biso   1.000  C
  C183     1.0000 0.00000  0.87080  0.25000  Biso   1.000  C
  N24      1.0000 0.00000  0.65450  0.25000  Biso   1.000  N
  C184     1.0000 0.00000  0.79640  0.25000  Biso   1.000  C
