data_image0
_cell_length_a       5.1028
_cell_length_b       21.1626
_cell_length_c       8.8581
_cell_angle_alpha    90
_cell_angle_beta     89.9965
_cell_angle_gamma    90

_symmetry_space_group_name_H-M    "P 1"
_symmetry_int_tables_number       1

loop_
  _symmetry_equiv_pos_as_xyz
  'x, y, z'

loop_
  _atom_site_label
  _atom_site_occupancy
  _atom_site_fract_x
  _atom_site_fract_y
  _atom_site_fract_z
  _atom_site_thermal_displace_type
  _atom_site_B_iso_or_equiv
  _atom_site_type_symbol
  Ti1      1.0000 0.27910  0.84165  0.52814  Biso   1.000  Ti
  Ti2      1.0000 0.01680  0.93546  0.01000  Biso   1.000  Ti
  Ti3      1.0000 0.72490  0.04166  0.48775  Biso   1.000  Ti
  Ga1      1.0000 0.69380  0.69017  0.74802  Biso   1.000  Ga
  P1       1.0000 0.79370  0.82584  0.77490  Biso   1.000  P
  P2       1.0000 0.20610  0.05294  0.24230  Biso   1.000  P
  P3       1.0000 0.23690  0.98796  0.67040  Biso   1.000  P
  P4       1.0000 0.76230  0.89610  0.34620  Biso   1.000  P
  P5       1.0000 0.20520  0.69133  0.55848  Biso   1.000  P
  O1       1.0000 0.06120  0.82310  0.70150  Biso   1.000  O
  O2       1.0000 0.28350  0.75180  0.47340  Biso   1.000  O
  O3       1.0000 0.24820  0.92950  0.57200  Biso   1.000  O
  O4       1.0000 0.74720  0.76210  0.85910  Biso   1.000  O
  O5       1.0000 0.58120  0.83340  0.65580  Biso   1.000  O
  O6       1.0000 0.78230  0.87830  0.89150  Biso   1.000  O
  O7       1.0000 0.17730  0.97020  0.83510  Biso   1.000  O
  O8       1.0000 0.50680  0.02280  0.66960  Biso   1.000  O
  O9       1.0000 0.02360  0.03330  0.61720  Biso   1.000  O
  O10      1.0000 0.26840  0.87440  0.04120  Biso   1.000  O
  O11      1.0000 0.93110  0.05790  0.31190  Biso   1.000  O
  O12      1.0000 0.29080  0.63270  0.46770  Biso   1.000  O
  O13      1.0000 0.75280  0.95330  0.44940  Biso   1.000  O
  O14      1.0000 0.26490  0.11510  0.15430  Biso   1.000  O
  O15      1.0000 0.40820  0.04430  0.36580  Biso   1.000  O
  O16      1.0000 0.22040  0.99810  0.12800  Biso   1.000  O
  O17      1.0000 0.80030  0.91560  0.18130  Biso   1.000  O
  O18      1.0000 0.50690  0.85940  0.35650  Biso   1.000  O
  O19      1.0000 0.98610  0.85130  0.39240  Biso   1.000  O
  O20      1.0000 0.90450  0.69090  0.58230  Biso   1.000  O
  O21      1.0000 0.34160  0.69010  0.71360  Biso   1.000  O
  H1       1.0000 0.41300  0.88400  0.00000  Biso   1.000  H
  Ti4      1.0000 0.72090  0.34165  0.47186  Biso   1.000  Ti
  Ti5      1.0000 0.98320  0.43546  0.99000  Biso   1.000  Ti
  Ti6      1.0000 0.27510  0.54166  0.51225  Biso   1.000  Ti
  Ga2      1.0000 0.30620  0.19017  0.25198  Biso   1.000  Ga
  P6       1.0000 0.20630  0.32584  0.22510  Biso   1.000  P
  P7       1.0000 0.79390  0.55294  0.75770  Biso   1.000  P
  P8       1.0000 0.76310  0.48796  0.32960  Biso   1.000  P
  P9       1.0000 0.23770  0.39610  0.65380  Biso   1.000  P
  P10      1.0000 0.79480  0.19133  0.44152  Biso   1.000  P
  O22      1.0000 0.93880  0.32310  0.29850  Biso   1.000  O
  O23      1.0000 0.71650  0.25180  0.52660  Biso   1.000  O
  O24      1.0000 0.75180  0.42950  0.42800  Biso   1.000  O
  O25      1.0000 0.25280  0.26210  0.14090  Biso   1.000  O
  O26      1.0000 0.41880  0.33340  0.34420  Biso   1.000  O
  O27      1.0000 0.21770  0.37830  0.10850  Biso   1.000  O
  O28      1.0000 0.82270  0.47020  0.16490  Biso   1.000  O
  O29      1.0000 0.49320  0.52280  0.33040  Biso   1.000  O
  O30      1.0000 0.97640  0.53330  0.38280  Biso   1.000  O
  O31      1.0000 0.73160  0.37440  0.95880  Biso   1.000  O
  O32      1.0000 0.06890  0.55790  0.68810  Biso   1.000  O
  O33      1.0000 0.70920  0.13270  0.53230  Biso   1.000  O
  O34      1.0000 0.24720  0.45330  0.55060  Biso   1.000  O
  O35      1.0000 0.73510  0.61510  0.84570  Biso   1.000  O
  O36      1.0000 0.59180  0.54430  0.63420  Biso   1.000  O
  O37      1.0000 0.77960  0.49810  0.87200  Biso   1.000  O
  O38      1.0000 0.19970  0.41560  0.81870  Biso   1.000  O
  O39      1.0000 0.49310  0.35940  0.64350  Biso   1.000  O
  O40      1.0000 0.01390  0.35130  0.60760  Biso   1.000  O
  O41      1.0000 0.09550  0.19090  0.41770  Biso   1.000  O
  O42      1.0000 0.65840  0.19010  0.28640  Biso   1.000  O
  H2       1.0000 0.58700  0.38400  0.00000  Biso   1.000  H
