data_QATRAG_clean
_audit_creation_date              2014-07-02
_audit_creation_method            'Materials Studio'
_symmetry_space_group_name_H-M    'P1'
_symmetry_Int_Tables_number       1
_symmetry_cell_setting            triclinic
loop_
_symmetry_equiv_pos_as_xyz
  x,y,z
_cell_length_a                    6.0997
_cell_length_b                    7.6528
_cell_length_c                    22.5330
_cell_angle_alpha                 90.0000
_cell_angle_beta                  91.6060
_cell_angle_gamma                 90.0000
loop_
_atom_site_label
_atom_site_type_symbol
_atom_site_fract_x
_atom_site_fract_y
_atom_site_fract_z
_atom_site_U_iso_or_equiv
_atom_site_adp_type
_atom_site_occupancy
Ce1    Ce    0.54512   0.50171   0.85391   0.01267  Uiso   1.00
Ce2    Ce    0.45488   0.00171   0.64609   0.01267  Uiso   1.00
Ce3    Ce    0.45488   0.49829   0.14609   0.01267  Uiso   1.00
Ce4    Ce    0.54512   0.99829   0.35391   0.01267  Uiso   1.00
H1     H     0.44000   0.12500   0.88370   0.01267  Uiso   1.00
H2     H     0.30200   0.22800   0.74190   0.01267  Uiso   1.00
H3     H     0.12590   0.06440   0.87470   0.01267  Uiso   1.00
H4     H     0.04100   0.97800   0.78010   0.01267  Uiso   1.00
H5     H     0.56000   0.62500   0.61630   0.01267  Uiso   1.00
H6     H     0.69800   0.72800   0.75810   0.01267  Uiso   1.00
H7     H     0.87410   0.56440   0.62530   0.01267  Uiso   1.00
H8     H     0.95900   0.47800   0.71990   0.01267  Uiso   1.00
H9     H     0.56000   0.87500   0.11630   0.01267  Uiso   1.00
H10    H     0.69800   0.77200   0.25810   0.01267  Uiso   1.00
H11    H     0.87410   0.93560   0.12530   0.01267  Uiso   1.00
H12    H     0.95900   0.02200   0.21990   0.01267  Uiso   1.00
H13    H     0.44000   0.37500   0.38370   0.01267  Uiso   1.00
H14    H     0.30200   0.27200   0.24190   0.01267  Uiso   1.00
H15    H     0.12590   0.43560   0.37470   0.01267  Uiso   1.00
H16    H     0.04100   0.52200   0.28010   0.01267  Uiso   1.00
C1     C     0.04680   0.30570   0.84011   0.01267  Uiso   1.00
C2     C     0.18230   0.13930   0.84330   0.01267  Uiso   1.00
C3     C     0.18370   0.03550   0.78552   0.01267  Uiso   1.00
C4     C     0.36110   0.89410   0.78871   0.01267  Uiso   1.00
C5     C     0.58210   0.42420   0.00133   0.01267  Uiso   1.00
C6     C     0.95320   0.80570   0.65989   0.01267  Uiso   1.00
C7     C     0.81770   0.63930   0.65670   0.01267  Uiso   1.00
C8     C     0.81630   0.53550   0.71448   0.01267  Uiso   1.00
C9     C     0.63890   0.39410   0.71129   0.01267  Uiso   1.00
C10    C     0.41790   0.92420   0.49867   0.01267  Uiso   1.00
C11    C     0.95320   0.69430   0.15989   0.01267  Uiso   1.00
C12    C     0.81770   0.86070   0.15670   0.01267  Uiso   1.00
C13    C     0.81630   0.96450   0.21448   0.01267  Uiso   1.00
C14    C     0.63890   0.10590   0.21129   0.01267  Uiso   1.00
C15    C     0.41790   0.57580   0.99867   0.01267  Uiso   1.00
C16    C     0.04680   0.19430   0.34011   0.01267  Uiso   1.00
C17    C     0.18230   0.36070   0.34330   0.01267  Uiso   1.00
C18    C     0.18370   0.46450   0.28552   0.01267  Uiso   1.00
C19    C     0.36110   0.60590   0.28871   0.01267  Uiso   1.00
C20    C     0.58210   0.07580   0.50133   0.01267  Uiso   1.00
O1     O     0.84620   0.28930   0.83336   0.01267  Uiso   1.00
O2     O     0.14560   0.44730   0.84532   0.01267  Uiso   1.00
O3     O     0.39990   0.18600   0.85829   0.01267  Uiso   1.00
O4     O     0.22030   0.14030   0.73470   0.01267  Uiso   1.00
O5     O     0.35040   0.78680   0.82974   0.01267  Uiso   1.00
O6     O     0.51110   0.89800   0.74922   0.01267  Uiso   1.00
O7     O     0.66150   0.36940   0.95368   0.01267  Uiso   1.00
O8     O     0.62330   0.36810   0.05176   0.01267  Uiso   1.00
O9     O     0.15380   0.78930   0.66664   0.01267  Uiso   1.00
O10    O     0.85440   0.94730   0.65468   0.01267  Uiso   1.00
O11    O     0.60010   0.68600   0.64171   0.01267  Uiso   1.00
O12    O     0.77970   0.64030   0.76530   0.01267  Uiso   1.00
O13    O     0.64960   0.28680   0.67026   0.01267  Uiso   1.00
O14    O     0.48890   0.39800   0.75078   0.01267  Uiso   1.00
O15    O     0.33850   0.86940   0.54632   0.01267  Uiso   1.00
O16    O     0.37670   0.86810   0.44824   0.01267  Uiso   1.00
O17    O     0.15380   0.71070   0.16664   0.01267  Uiso   1.00
O18    O     0.85440   0.55270   0.15468   0.01267  Uiso   1.00
O19    O     0.60010   0.81400   0.14171   0.01267  Uiso   1.00
O20    O     0.77970   0.85970   0.26530   0.01267  Uiso   1.00
O21    O     0.64960   0.21320   0.17026   0.01267  Uiso   1.00
O22    O     0.48890   0.10200   0.25078   0.01267  Uiso   1.00
O23    O     0.33850   0.63060   0.04632   0.01267  Uiso   1.00
O24    O     0.37670   0.63190   0.94824   0.01267  Uiso   1.00
O25    O     0.84620   0.21070   0.33336   0.01267  Uiso   1.00
O26    O     0.14560   0.05270   0.34532   0.01267  Uiso   1.00
O27    O     0.39990   0.31400   0.35829   0.01267  Uiso   1.00
O28    O     0.22030   0.35970   0.23470   0.01267  Uiso   1.00
O29    O     0.35040   0.71320   0.32974   0.01267  Uiso   1.00
O30    O     0.51110   0.60200   0.24922   0.01267  Uiso   1.00
O31    O     0.66150   0.13060   0.45368   0.01267  Uiso   1.00
O32    O     0.62330   0.13190   0.55176   0.01267  Uiso   1.00
