data_image0
_cell_length_a       17.54
_cell_length_b       17.54
_cell_length_c       21.383
_cell_angle_alpha    90
_cell_angle_beta     90
_cell_angle_gamma    90

_symmetry_space_group_name_H-M    "P 1"
_symmetry_int_tables_number       1

loop_
  _symmetry_equiv_pos_as_xyz
  'x, y, z'

loop_
  _atom_site_label
  _atom_site_occupancy
  _atom_site_fract_x
  _atom_site_fract_y
  _atom_site_fract_z
  _atom_site_thermal_displace_type
  _atom_site_B_iso_or_equiv
  _atom_site_type_symbol
  O1       1.0000 0.36160  0.06900  0.00370  Biso   1.000  O
  N1       1.0000 0.36260  0.26260  0.05880  Biso   1.000  N
  N2       1.0000 0.29410  0.12230  0.07820  Biso   1.000  N
  N3       1.0000 0.26890  0.04590  0.07120  Biso   1.000  N
  C1       1.0000 0.39720  0.32980  0.04980  Biso   1.000  C
  H1       1.0000 0.38240  0.37160  0.07360  Biso   1.000  H
  C2       1.0000 0.45410  0.33810  0.00620  Biso   1.000  C
  H2       1.0000 0.47600  0.38580  0.00040  Biso   1.000  H
  C3       1.0000 0.47910  0.27910  0.97170  Biso   1.000  C
  H3       1.0000 0.51750  0.28560  0.94220  Biso   1.000  H
  C4       1.0000 0.44480  0.20580  0.98150  Biso   1.000  C
  H4       1.0000 0.46030  0.16300  0.95920  Biso   1.000  H
  C5       1.0000 0.38820  0.20230  0.02520  Biso   1.000  C
  C6       1.0000 0.34690  0.13020  0.03770  Biso   1.000  C
  C7       1.0000 0.30840  0.01800  0.02670  Biso   1.000  C
  C8       1.0000 0.30370  0.94320  0.99730  Biso   1.000  C
  C9       1.0000 0.25380  0.88880  0.01950  Biso   1.000  C
  H5       1.0000 0.22540  0.89700  0.05560  Biso   1.000  H
  C10      1.0000 0.34760  0.92450  0.94420  Biso   1.000  C
  H6       1.0000 0.38430  0.95820  0.92930  Biso   1.000  H
  N4       1.0000 0.28270  0.80600  0.93460  Biso   1.000  N
  C11      1.0000 0.24750  0.82250  0.98640  Biso   1.000  C
  H7       1.0000 0.21490  0.78560  0.00250  Biso   1.000  H
  C12      1.0000 0.33600  0.85770  0.91560  Biso   1.000  C
  H8       1.0000 0.36580  0.84590  0.88090  Biso   1.000  H
  O2       1.0000 0.86160  0.56900  0.50370  Biso   1.000  O
  N5       1.0000 0.86260  0.76260  0.55880  Biso   1.000  N
  N6       1.0000 0.79410  0.62230  0.57820  Biso   1.000  N
  N7       1.0000 0.76890  0.54590  0.57120  Biso   1.000  N
  C13      1.0000 0.89720  0.82980  0.54980  Biso   1.000  C
  H9       1.0000 0.88240  0.87160  0.57360  Biso   1.000  H
  C14      1.0000 0.95410  0.83810  0.50620  Biso   1.000  C
  H10      1.0000 0.97600  0.88580  0.50040  Biso   1.000  H
  C15      1.0000 0.97910  0.77910  0.47170  Biso   1.000  C
  H11      1.0000 0.01750  0.78560  0.44220  Biso   1.000  H
  C16      1.0000 0.94480  0.70580  0.48150  Biso   1.000  C
  H12      1.0000 0.96030  0.66300  0.45920  Biso   1.000  H
  C17      1.0000 0.88820  0.70230  0.52520  Biso   1.000  C
  C18      1.0000 0.84690  0.63020  0.53770  Biso   1.000  C
  C19      1.0000 0.80840  0.51800  0.52670  Biso   1.000  C
  C20      1.0000 0.80370  0.44320  0.49730  Biso   1.000  C
  C21      1.0000 0.75380  0.38880  0.51950  Biso   1.000  C
  H13      1.0000 0.72540  0.39700  0.55560  Biso   1.000  H
  C22      1.0000 0.84760  0.42450  0.44420  Biso   1.000  C
  H14      1.0000 0.88430  0.45820  0.42930  Biso   1.000  H
  N8       1.0000 0.78270  0.30600  0.43460  Biso   1.000  N
  C23      1.0000 0.74750  0.32250  0.48640  Biso   1.000  C
  H15      1.0000 0.71490  0.28560  0.50250  Biso   1.000  H
  C24      1.0000 0.83600  0.35770  0.41560  Biso   1.000  C
  H16      1.0000 0.86580  0.34590  0.38090  Biso   1.000  H
  O3       1.0000 0.63840  0.93100  0.00370  Biso   1.000  O
  N9       1.0000 0.63740  0.73740  0.05880  Biso   1.000  N
  N10      1.0000 0.70590  0.87770  0.07820  Biso   1.000  N
  N11      1.0000 0.73110  0.95410  0.07120  Biso   1.000  N
  C25      1.0000 0.60280  0.67020  0.04980  Biso   1.000  C
  H17      1.0000 0.61760  0.62840  0.07360  Biso   1.000  H
  C26      1.0000 0.54590  0.66190  0.00620  Biso   1.000  C
  H18      1.0000 0.52400  0.61420  0.00040  Biso   1.000  H
  C27      1.0000 0.52090  0.72090  0.97170  Biso   1.000  C
  H19      1.0000 0.48250  0.71440  0.94220  Biso   1.000  H
  C28      1.0000 0.55520  0.79420  0.98150  Biso   1.000  C
  H20      1.0000 0.53970  0.83700  0.95920  Biso   1.000  H
  C29      1.0000 0.61180  0.79770  0.02520  Biso   1.000  C
  C30      1.0000 0.65310  0.86980  0.03770  Biso   1.000  C
  C31      1.0000 0.69160  0.98200  0.02670  Biso   1.000  C
  C32      1.0000 0.69630  0.05680  0.99730  Biso   1.000  C
  C33      1.0000 0.74620  0.11120  0.01950  Biso   1.000  C
  H21      1.0000 0.77460  0.10300  0.05560  Biso   1.000  H
  C34      1.0000 0.65240  0.07550  0.94420  Biso   1.000  C
  H22      1.0000 0.61570  0.04180  0.92930  Biso   1.000  H
  N12      1.0000 0.71730  0.19400  0.93460  Biso   1.000  N
  C35      1.0000 0.75250  0.17750  0.98640  Biso   1.000  C
  H23      1.0000 0.78510  0.21440  0.00250  Biso   1.000  H
  C36      1.0000 0.66400  0.14230  0.91560  Biso   1.000  C
  H24      1.0000 0.63420  0.15410  0.88090  Biso   1.000  H
  O4       1.0000 0.13840  0.43100  0.50370  Biso   1.000  O
  N13      1.0000 0.13740  0.23740  0.55880  Biso   1.000  N
  N14      1.0000 0.20590  0.37770  0.57820  Biso   1.000  N
  N15      1.0000 0.23110  0.45410  0.57120  Biso   1.000  N
  C37      1.0000 0.10280  0.17020  0.54980  Biso   1.000  C
  H25      1.0000 0.11760  0.12840  0.57360  Biso   1.000  H
  C38      1.0000 0.04590  0.16190  0.50620  Biso   1.000  C
  H26      1.0000 0.02400  0.11420  0.50040  Biso   1.000  H
  C39      1.0000 0.02090  0.22090  0.47170  Biso   1.000  C
  H27      1.0000 0.98250  0.21440  0.44220  Biso   1.000  H
  C40      1.0000 0.05520  0.29420  0.48150  Biso   1.000  C
  H28      1.0000 0.03970  0.33700  0.45920  Biso   1.000  H
  C41      1.0000 0.11180  0.29770  0.52520  Biso   1.000  C
  C42      1.0000 0.15310  0.36980  0.53770  Biso   1.000  C
  C43      1.0000 0.19160  0.48200  0.52670  Biso   1.000  C
  C44      1.0000 0.19630  0.55680  0.49730  Biso   1.000  C
  C45      1.0000 0.24620  0.61120  0.51950  Biso   1.000  C
  H29      1.0000 0.27460  0.60300  0.55560  Biso   1.000  H
  C46      1.0000 0.15240  0.57550  0.44420  Biso   1.000  C
  H30      1.0000 0.11570  0.54180  0.42930  Biso   1.000  H
  N16      1.0000 0.21730  0.69400  0.43460  Biso   1.000  N
  C47      1.0000 0.25250  0.67750  0.48640  Biso   1.000  C
  H31      1.0000 0.28510  0.71440  0.50250  Biso   1.000  H
  C48      1.0000 0.16400  0.64230  0.41560  Biso   1.000  C
  H32      1.0000 0.13420  0.65410  0.38090  Biso   1.000  H
  O5       1.0000 0.06900  0.63840  0.99630  Biso   1.000  O
  N17      1.0000 0.26260  0.63740  0.94120  Biso   1.000  N
  N18      1.0000 0.12230  0.70590  0.92180  Biso   1.000  N
  N19      1.0000 0.04590  0.73110  0.92880  Biso   1.000  N
  C49      1.0000 0.32980  0.60280  0.95020  Biso   1.000  C
  H33      1.0000 0.37160  0.61760  0.92640  Biso   1.000  H
  C50      1.0000 0.33810  0.54590  0.99380  Biso   1.000  C
  H34      1.0000 0.38580  0.52400  0.99960  Biso   1.000  H
  C51      1.0000 0.27910  0.52090  0.02830  Biso   1.000  C
  H35      1.0000 0.28560  0.48250  0.05780  Biso   1.000  H
  C52      1.0000 0.20580  0.55520  0.01850  Biso   1.000  C
  H36      1.0000 0.16300  0.53970  0.04080  Biso   1.000  H
  C53      1.0000 0.20230  0.61180  0.97480  Biso   1.000  C
  C54      1.0000 0.13020  0.65310  0.96230  Biso   1.000  C
  C55      1.0000 0.01800  0.69160  0.97330  Biso   1.000  C
  C56      1.0000 0.94320  0.69630  0.00270  Biso   1.000  C
  C57      1.0000 0.88880  0.74620  0.98050  Biso   1.000  C
  H37      1.0000 0.89700  0.77460  0.94440  Biso   1.000  H
  C58      1.0000 0.92450  0.65240  0.05580  Biso   1.000  C
  H38      1.0000 0.95820  0.61570  0.07070  Biso   1.000  H
  N20      1.0000 0.80600  0.71730  0.06540  Biso   1.000  N
  C59      1.0000 0.82250  0.75250  0.01360  Biso   1.000  C
  H39      1.0000 0.78560  0.78510  0.99750  Biso   1.000  H
  C60      1.0000 0.85770  0.66400  0.08440  Biso   1.000  C
  H40      1.0000 0.84590  0.63420  0.11910  Biso   1.000  H
  O6       1.0000 0.56900  0.13840  0.49630  Biso   1.000  O
  N21      1.0000 0.76260  0.13740  0.44120  Biso   1.000  N
  N22      1.0000 0.62230  0.20590  0.42180  Biso   1.000  N
  N23      1.0000 0.54590  0.23110  0.42880  Biso   1.000  N
  C61      1.0000 0.82980  0.10280  0.45020  Biso   1.000  C
  H41      1.0000 0.87160  0.11760  0.42640  Biso   1.000  H
  C62      1.0000 0.83810  0.04590  0.49380  Biso   1.000  C
  H42      1.0000 0.88580  0.02400  0.49960  Biso   1.000  H
  C63      1.0000 0.77910  0.02090  0.52830  Biso   1.000  C
  H43      1.0000 0.78560  0.98250  0.55780  Biso   1.000  H
  C64      1.0000 0.70580  0.05520  0.51850  Biso   1.000  C
  H44      1.0000 0.66300  0.03970  0.54080  Biso   1.000  H
  C65      1.0000 0.70230  0.11180  0.47480  Biso   1.000  C
  C66      1.0000 0.63020  0.15310  0.46230  Biso   1.000  C
  C67      1.0000 0.51800  0.19160  0.47330  Biso   1.000  C
  C68      1.0000 0.44320  0.19630  0.50270  Biso   1.000  C
  C69      1.0000 0.38880  0.24620  0.48050  Biso   1.000  C
  H45      1.0000 0.39700  0.27460  0.44440  Biso   1.000  H
  C70      1.0000 0.42450  0.15240  0.55580  Biso   1.000  C
  H46      1.0000 0.45820  0.11570  0.57070  Biso   1.000  H
  N24      1.0000 0.30600  0.21730  0.56540  Biso   1.000  N
  C71      1.0000 0.32250  0.25250  0.51360  Biso   1.000  C
  H47      1.0000 0.28560  0.28510  0.49750  Biso   1.000  H
  C72      1.0000 0.35770  0.16400  0.58440  Biso   1.000  C
  H48      1.0000 0.34590  0.13420  0.61910  Biso   1.000  H
  O7       1.0000 0.93100  0.36160  0.99630  Biso   1.000  O
  N25      1.0000 0.73740  0.36260  0.94120  Biso   1.000  N
  N26      1.0000 0.87770  0.29410  0.92180  Biso   1.000  N
  N27      1.0000 0.95410  0.26890  0.92880  Biso   1.000  N
  C73      1.0000 0.67020  0.39720  0.95020  Biso   1.000  C
  H49      1.0000 0.62840  0.38240  0.92640  Biso   1.000  H
  C74      1.0000 0.66190  0.45410  0.99380  Biso   1.000  C
  H50      1.0000 0.61420  0.47600  0.99960  Biso   1.000  H
  C75      1.0000 0.72090  0.47910  0.02830  Biso   1.000  C
  H51      1.0000 0.71440  0.51750  0.05780  Biso   1.000  H
  C76      1.0000 0.79420  0.44480  0.01850  Biso   1.000  C
  H52      1.0000 0.83700  0.46030  0.04080  Biso   1.000  H
  C77      1.0000 0.79770  0.38820  0.97480  Biso   1.000  C
  C78      1.0000 0.86980  0.34690  0.96230  Biso   1.000  C
  C79      1.0000 0.98200  0.30840  0.97330  Biso   1.000  C
  C80      1.0000 0.05680  0.30370  0.00270  Biso   1.000  C
  C81      1.0000 0.11120  0.25380  0.98050  Biso   1.000  C
  H53      1.0000 0.10300  0.22540  0.94440  Biso   1.000  H
  C82      1.0000 0.07550  0.34760  0.05580  Biso   1.000  C
  H54      1.0000 0.04180  0.38430  0.07070  Biso   1.000  H
  N28      1.0000 0.19400  0.28270  0.06540  Biso   1.000  N
  C83      1.0000 0.17750  0.24750  0.01360  Biso   1.000  C
  H55      1.0000 0.21440  0.21490  0.99750  Biso   1.000  H
  C84      1.0000 0.14230  0.33600  0.08440  Biso   1.000  C
  H56      1.0000 0.15410  0.36580  0.11910  Biso   1.000  H
  O8       1.0000 0.43100  0.86160  0.49630  Biso   1.000  O
  N29      1.0000 0.23740  0.86260  0.44120  Biso   1.000  N
  N30      1.0000 0.37770  0.79410  0.42180  Biso   1.000  N
  N31      1.0000 0.45410  0.76890  0.42880  Biso   1.000  N
  C85      1.0000 0.17020  0.89720  0.45020  Biso   1.000  C
  H57      1.0000 0.12840  0.88240  0.42640  Biso   1.000  H
  C86      1.0000 0.16190  0.95410  0.49380  Biso   1.000  C
  H58      1.0000 0.11420  0.97600  0.49960  Biso   1.000  H
  C87      1.0000 0.22090  0.97910  0.52830  Biso   1.000  C
  H59      1.0000 0.21440  0.01750  0.55780  Biso   1.000  H
  C88      1.0000 0.29420  0.94480  0.51850  Biso   1.000  C
  H60      1.0000 0.33700  0.96030  0.54080  Biso   1.000  H
  C89      1.0000 0.29770  0.88820  0.47480  Biso   1.000  C
  C90      1.0000 0.36980  0.84690  0.46230  Biso   1.000  C
  C91      1.0000 0.48200  0.80840  0.47330  Biso   1.000  C
  C92      1.0000 0.55680  0.80370  0.50270  Biso   1.000  C
  C93      1.0000 0.61120  0.75380  0.48050  Biso   1.000  C
  H61      1.0000 0.60300  0.72540  0.44440  Biso   1.000  H
  C94      1.0000 0.57550  0.84760  0.55580  Biso   1.000  C
  H62      1.0000 0.54180  0.88430  0.57070  Biso   1.000  H
  N32      1.0000 0.69400  0.78270  0.56540  Biso   1.000  N
  C95      1.0000 0.67750  0.74750  0.51360  Biso   1.000  C
  H63      1.0000 0.71440  0.71490  0.49750  Biso   1.000  H
  C96      1.0000 0.64230  0.83600  0.58440  Biso   1.000  C
  H64      1.0000 0.65410  0.86580  0.61910  Biso   1.000  H
  O9       1.0000 0.13840  0.06900  0.74630  Biso   1.000  O
  N33      1.0000 0.13740  0.26260  0.69120  Biso   1.000  N
  N34      1.0000 0.20590  0.12230  0.67180  Biso   1.000  N
  N35      1.0000 0.23110  0.04590  0.67880  Biso   1.000  N
  C97      1.0000 0.10280  0.32980  0.70020  Biso   1.000  C
  H65      1.0000 0.11760  0.37160  0.67640  Biso   1.000  H
  C98      1.0000 0.04590  0.33810  0.74380  Biso   1.000  C
  H66      1.0000 0.02400  0.38580  0.74960  Biso   1.000  H
  C99      1.0000 0.02090  0.27910  0.77830  Biso   1.000  C
  H67      1.0000 0.98250  0.28560  0.80780  Biso   1.000  H
  C100     1.0000 0.05520  0.20580  0.76850  Biso   1.000  C
  H68      1.0000 0.03970  0.16300  0.79080  Biso   1.000  H
  C101     1.0000 0.11180  0.20230  0.72480  Biso   1.000  C
  C102     1.0000 0.15310  0.13020  0.71230  Biso   1.000  C
  C103     1.0000 0.19160  0.01800  0.72330  Biso   1.000  C
  C104     1.0000 0.19630  0.94320  0.75270  Biso   1.000  C
  C105     1.0000 0.24620  0.88880  0.73050  Biso   1.000  C
  H69      1.0000 0.27460  0.89700  0.69440  Biso   1.000  H
  C106     1.0000 0.15240  0.92450  0.80580  Biso   1.000  C
  H70      1.0000 0.11570  0.95820  0.82070  Biso   1.000  H
  N36      1.0000 0.21730  0.80600  0.81540  Biso   1.000  N
  C107     1.0000 0.25250  0.82250  0.76360  Biso   1.000  C
  H71      1.0000 0.28510  0.78560  0.74750  Biso   1.000  H
  C108     1.0000 0.16400  0.85770  0.83440  Biso   1.000  C
  H72      1.0000 0.13420  0.84590  0.86910  Biso   1.000  H
  O10      1.0000 0.63840  0.56900  0.24630  Biso   1.000  O
  N37      1.0000 0.63740  0.76260  0.19120  Biso   1.000  N
  N38      1.0000 0.70590  0.62230  0.17180  Biso   1.000  N
  N39      1.0000 0.73110  0.54590  0.17880  Biso   1.000  N
  C109     1.0000 0.60280  0.82980  0.20020  Biso   1.000  C
  H73      1.0000 0.61760  0.87160  0.17640  Biso   1.000  H
  C110     1.0000 0.54590  0.83810  0.24380  Biso   1.000  C
  H74      1.0000 0.52400  0.88580  0.24960  Biso   1.000  H
  C111     1.0000 0.52090  0.77910  0.27830  Biso   1.000  C
  H75      1.0000 0.48250  0.78560  0.30780  Biso   1.000  H
  C112     1.0000 0.55520  0.70580  0.26850  Biso   1.000  C
  H76      1.0000 0.53970  0.66300  0.29080  Biso   1.000  H
  C113     1.0000 0.61180  0.70230  0.22480  Biso   1.000  C
  C114     1.0000 0.65310  0.63020  0.21230  Biso   1.000  C
  C115     1.0000 0.69160  0.51800  0.22330  Biso   1.000  C
  C116     1.0000 0.69630  0.44320  0.25270  Biso   1.000  C
  C117     1.0000 0.74620  0.38880  0.23050  Biso   1.000  C
  H77      1.0000 0.77460  0.39700  0.19440  Biso   1.000  H
  C118     1.0000 0.65240  0.42450  0.30580  Biso   1.000  C
  H78      1.0000 0.61570  0.45820  0.32070  Biso   1.000  H
  N40      1.0000 0.71730  0.30600  0.31540  Biso   1.000  N
  C119     1.0000 0.75250  0.32250  0.26360  Biso   1.000  C
  H79      1.0000 0.78510  0.28560  0.24750  Biso   1.000  H
  C120     1.0000 0.66400  0.35770  0.33440  Biso   1.000  C
  H80      1.0000 0.63420  0.34590  0.36910  Biso   1.000  H
  O11      1.0000 0.86160  0.93100  0.74630  Biso   1.000  O
  N41      1.0000 0.86260  0.73740  0.69120  Biso   1.000  N
  N42      1.0000 0.79410  0.87770  0.67180  Biso   1.000  N
  N43      1.0000 0.76890  0.95410  0.67880  Biso   1.000  N
  C121     1.0000 0.89720  0.67020  0.70020  Biso   1.000  C
  H81      1.0000 0.88240  0.62840  0.67640  Biso   1.000  H
  C122     1.0000 0.95410  0.66190  0.74380  Biso   1.000  C
  H82      1.0000 0.97600  0.61420  0.74960  Biso   1.000  H
  C123     1.0000 0.97910  0.72090  0.77830  Biso   1.000  C
  H83      1.0000 0.01750  0.71440  0.80780  Biso   1.000  H
  C124     1.0000 0.94480  0.79420  0.76850  Biso   1.000  C
  H84      1.0000 0.96030  0.83700  0.79080  Biso   1.000  H
  C125     1.0000 0.88820  0.79770  0.72480  Biso   1.000  C
  C126     1.0000 0.84690  0.86980  0.71230  Biso   1.000  C
  C127     1.0000 0.80840  0.98200  0.72330  Biso   1.000  C
  C128     1.0000 0.80370  0.05680  0.75270  Biso   1.000  C
  C129     1.0000 0.75380  0.11120  0.73050  Biso   1.000  C
  H85      1.0000 0.72540  0.10300  0.69440  Biso   1.000  H
  C130     1.0000 0.84760  0.07550  0.80580  Biso   1.000  C
  H86      1.0000 0.88430  0.04180  0.82070  Biso   1.000  H
  N44      1.0000 0.78270  0.19400  0.81540  Biso   1.000  N
  C131     1.0000 0.74750  0.17750  0.76360  Biso   1.000  C
  H87      1.0000 0.71490  0.21440  0.74750  Biso   1.000  H
  C132     1.0000 0.83600  0.14230  0.83440  Biso   1.000  C
  H88      1.0000 0.86580  0.15410  0.86910  Biso   1.000  H
  O12      1.0000 0.36160  0.43100  0.24630  Biso   1.000  O
  N45      1.0000 0.36260  0.23740  0.19120  Biso   1.000  N
  N46      1.0000 0.29410  0.37770  0.17180  Biso   1.000  N
  N47      1.0000 0.26890  0.45410  0.17880  Biso   1.000  N
  C133     1.0000 0.39720  0.17020  0.20020  Biso   1.000  C
  H89      1.0000 0.38240  0.12840  0.17640  Biso   1.000  H
  C134     1.0000 0.45410  0.16190  0.24380  Biso   1.000  C
  H90      1.0000 0.47600  0.11420  0.24960  Biso   1.000  H
  C135     1.0000 0.47910  0.22090  0.27830  Biso   1.000  C
  H91      1.0000 0.51750  0.21440  0.30780  Biso   1.000  H
  C136     1.0000 0.44480  0.29420  0.26850  Biso   1.000  C
  H92      1.0000 0.46030  0.33700  0.29080  Biso   1.000  H
  C137     1.0000 0.38820  0.29770  0.22480  Biso   1.000  C
  C138     1.0000 0.34690  0.36980  0.21230  Biso   1.000  C
  C139     1.0000 0.30840  0.48200  0.22330  Biso   1.000  C
  C140     1.0000 0.30370  0.55680  0.25270  Biso   1.000  C
  C141     1.0000 0.25380  0.61120  0.23050  Biso   1.000  C
  H93      1.0000 0.22540  0.60300  0.19440  Biso   1.000  H
  C142     1.0000 0.34760  0.57550  0.30580  Biso   1.000  C
  H94      1.0000 0.38430  0.54180  0.32070  Biso   1.000  H
  N48      1.0000 0.28270  0.69400  0.31540  Biso   1.000  N
  C143     1.0000 0.24750  0.67750  0.26360  Biso   1.000  C
  H95      1.0000 0.21490  0.71440  0.24750  Biso   1.000  H
  C144     1.0000 0.33600  0.64230  0.33440  Biso   1.000  C
  H96      1.0000 0.36580  0.65410  0.36910  Biso   1.000  H
  O13      1.0000 0.43100  0.63840  0.75370  Biso   1.000  O
  N49      1.0000 0.23740  0.63740  0.80880  Biso   1.000  N
  N50      1.0000 0.37770  0.70590  0.82820  Biso   1.000  N
  N51      1.0000 0.45410  0.73110  0.82120  Biso   1.000  N
  C145     1.0000 0.17020  0.60280  0.79980  Biso   1.000  C
  H97      1.0000 0.12840  0.61760  0.82360  Biso   1.000  H
  C146     1.0000 0.16190  0.54590  0.75620  Biso   1.000  C
  H98      1.0000 0.11420  0.52400  0.75040  Biso   1.000  H
  C147     1.0000 0.22090  0.52090  0.72170  Biso   1.000  C
  H99      1.0000 0.21440  0.48250  0.69220  Biso   1.000  H
  C148     1.0000 0.29420  0.55520  0.73150  Biso   1.000  C
  H100     1.0000 0.33700  0.53970  0.70920  Biso   1.000  H
  C149     1.0000 0.29770  0.61180  0.77520  Biso   1.000  C
  C150     1.0000 0.36980  0.65310  0.78770  Biso   1.000  C
  C151     1.0000 0.48200  0.69160  0.77670  Biso   1.000  C
  C152     1.0000 0.55680  0.69630  0.74730  Biso   1.000  C
  C153     1.0000 0.61120  0.74620  0.76950  Biso   1.000  C
  H101     1.0000 0.60300  0.77460  0.80560  Biso   1.000  H
  C154     1.0000 0.57550  0.65240  0.69420  Biso   1.000  C
  H102     1.0000 0.54180  0.61570  0.67930  Biso   1.000  H
  N52      1.0000 0.69400  0.71730  0.68460  Biso   1.000  N
  C155     1.0000 0.67750  0.75250  0.73640  Biso   1.000  C
  H103     1.0000 0.71440  0.78510  0.75250  Biso   1.000  H
  C156     1.0000 0.64230  0.66400  0.66560  Biso   1.000  C
  H104     1.0000 0.65410  0.63420  0.63090  Biso   1.000  H
  O14      1.0000 0.93100  0.13840  0.25370  Biso   1.000  O
  N53      1.0000 0.73740  0.13740  0.30880  Biso   1.000  N
  N54      1.0000 0.87770  0.20590  0.32820  Biso   1.000  N
  N55      1.0000 0.95410  0.23110  0.32120  Biso   1.000  N
  C157     1.0000 0.67020  0.10280  0.29980  Biso   1.000  C
  H105     1.0000 0.62840  0.11760  0.32360  Biso   1.000  H
  C158     1.0000 0.66190  0.04590  0.25620  Biso   1.000  C
  H106     1.0000 0.61420  0.02400  0.25040  Biso   1.000  H
  C159     1.0000 0.72090  0.02090  0.22170  Biso   1.000  C
  H107     1.0000 0.71440  0.98250  0.19220  Biso   1.000  H
  C160     1.0000 0.79420  0.05520  0.23150  Biso   1.000  C
  H108     1.0000 0.83700  0.03970  0.20920  Biso   1.000  H
  C161     1.0000 0.79770  0.11180  0.27520  Biso   1.000  C
  C162     1.0000 0.86980  0.15310  0.28770  Biso   1.000  C
  C163     1.0000 0.98200  0.19160  0.27670  Biso   1.000  C
  C164     1.0000 0.05680  0.19630  0.24730  Biso   1.000  C
  C165     1.0000 0.11120  0.24620  0.26950  Biso   1.000  C
  H109     1.0000 0.10300  0.27460  0.30560  Biso   1.000  H
  C166     1.0000 0.07550  0.15240  0.19420  Biso   1.000  C
  H110     1.0000 0.04180  0.11570  0.17930  Biso   1.000  H
  N56      1.0000 0.19400  0.21730  0.18460  Biso   1.000  N
  C167     1.0000 0.17750  0.25250  0.23640  Biso   1.000  C
  H111     1.0000 0.21440  0.28510  0.25250  Biso   1.000  H
  C168     1.0000 0.14230  0.16400  0.16560  Biso   1.000  C
  H112     1.0000 0.15410  0.13420  0.13090  Biso   1.000  H
  O15      1.0000 0.56900  0.36160  0.75370  Biso   1.000  O
  N57      1.0000 0.76260  0.36260  0.80880  Biso   1.000  N
  N58      1.0000 0.62230  0.29410  0.82820  Biso   1.000  N
  N59      1.0000 0.54590  0.26890  0.82120  Biso   1.000  N
  C169     1.0000 0.82980  0.39720  0.79980  Biso   1.000  C
  H113     1.0000 0.87160  0.38240  0.82360  Biso   1.000  H
  C170     1.0000 0.83810  0.45410  0.75620  Biso   1.000  C
  H114     1.0000 0.88580  0.47600  0.75040  Biso   1.000  H
  C171     1.0000 0.77910  0.47910  0.72170  Biso   1.000  C
  H115     1.0000 0.78560  0.51750  0.69220  Biso   1.000  H
  C172     1.0000 0.70580  0.44480  0.73150  Biso   1.000  C
  H116     1.0000 0.66300  0.46030  0.70920  Biso   1.000  H
  C173     1.0000 0.70230  0.38820  0.77520  Biso   1.000  C
  C174     1.0000 0.63020  0.34690  0.78770  Biso   1.000  C
  C175     1.0000 0.51800  0.30840  0.77670  Biso   1.000  C
  C176     1.0000 0.44320  0.30370  0.74730  Biso   1.000  C
  C177     1.0000 0.38880  0.25380  0.76950  Biso   1.000  C
  H117     1.0000 0.39700  0.22540  0.80560  Biso   1.000  H
  C178     1.0000 0.42450  0.34760  0.69420  Biso   1.000  C
  H118     1.0000 0.45820  0.38430  0.67930  Biso   1.000  H
  N60      1.0000 0.30600  0.28270  0.68460  Biso   1.000  N
  C179     1.0000 0.32250  0.24750  0.73640  Biso   1.000  C
  H119     1.0000 0.28560  0.21490  0.75250  Biso   1.000  H
  C180     1.0000 0.35770  0.33600  0.66560  Biso   1.000  C
  H120     1.0000 0.34590  0.36580  0.63090  Biso   1.000  H
  O16      1.0000 0.06900  0.86160  0.25370  Biso   1.000  O
  N61      1.0000 0.26260  0.86260  0.30880  Biso   1.000  N
  N62      1.0000 0.12230  0.79410  0.32820  Biso   1.000  N
  N63      1.0000 0.04590  0.76890  0.32120  Biso   1.000  N
  C181     1.0000 0.32980  0.89720  0.29980  Biso   1.000  C
  H121     1.0000 0.37160  0.88240  0.32360  Biso   1.000  H
  C182     1.0000 0.33810  0.95410  0.25620  Biso   1.000  C
  H122     1.0000 0.38580  0.97600  0.25040  Biso   1.000  H
  C183     1.0000 0.27910  0.97910  0.22170  Biso   1.000  C
  H123     1.0000 0.28560  0.01750  0.19220  Biso   1.000  H
  C184     1.0000 0.20580  0.94480  0.23150  Biso   1.000  C
  H124     1.0000 0.16300  0.96030  0.20920  Biso   1.000  H
  C185     1.0000 0.20230  0.88820  0.27520  Biso   1.000  C
  C186     1.0000 0.13020  0.84690  0.28770  Biso   1.000  C
  C187     1.0000 0.01800  0.80840  0.27670  Biso   1.000  C
  C188     1.0000 0.94320  0.80370  0.24730  Biso   1.000  C
  C189     1.0000 0.88880  0.75380  0.26950  Biso   1.000  C
  H125     1.0000 0.89700  0.72540  0.30560  Biso   1.000  H
  C190     1.0000 0.92450  0.84760  0.19420  Biso   1.000  C
  H126     1.0000 0.95820  0.88430  0.17930  Biso   1.000  H
  N64      1.0000 0.80600  0.78270  0.18460  Biso   1.000  N
  C191     1.0000 0.82250  0.74750  0.23640  Biso   1.000  C
  H127     1.0000 0.78560  0.71490  0.25250  Biso   1.000  H
  C192     1.0000 0.85770  0.83600  0.16560  Biso   1.000  C
  H128     1.0000 0.84590  0.86580  0.13090  Biso   1.000  H
  Cu1      1.0000 0.27912  0.25000  0.12500  Biso   1.000  Cu
  Cu2      1.0000 0.72088  0.75000  0.12500  Biso   1.000  Cu
  Cu3      1.0000 0.22088  0.25000  0.62500  Biso   1.000  Cu
  Cu4      1.0000 0.25000  0.72088  0.87500  Biso   1.000  Cu
  Cu5      1.0000 0.75000  0.22088  0.37500  Biso   1.000  Cu
  Cu6      1.0000 0.75000  0.27912  0.87500  Biso   1.000  Cu
  Cu7      1.0000 0.25000  0.77912  0.37500  Biso   1.000  Cu
  Cu8      1.0000 0.77912  0.75000  0.62500  Biso   1.000  Cu
