data_QAVDEW_clean
_audit_creation_date              2014-07-02
_audit_creation_method            'Materials Studio'
_symmetry_space_group_name_H-M    'P1'
_symmetry_Int_Tables_number       1
_symmetry_cell_setting            triclinic
loop_
_symmetry_equiv_pos_as_xyz
  x,y,z
_cell_length_a                    6.6850
_cell_length_b                    9.9050
_cell_length_c                    20.6660
_cell_angle_alpha                 90.0000
_cell_angle_beta                  91.9100
_cell_angle_gamma                 90.0000
loop_
_atom_site_label
_atom_site_type_symbol
_atom_site_fract_x
_atom_site_fract_y
_atom_site_fract_z
_atom_site_U_iso_or_equiv
_atom_site_adp_type
_atom_site_occupancy
Cu1    Cu    0.32665   0.29581   0.72117   0.01267  Uiso   1.00
Cu2    Cu    0.67335   0.79581   0.77883   0.01267  Uiso   1.00
Cu3    Cu    0.67335   0.70419   0.27883   0.01267  Uiso   1.00
Cu4    Cu    0.32665   0.20419   0.22117   0.01267  Uiso   1.00
Cu5    Cu    0.00000   0.00000   0.00000   0.01267  Uiso   1.00
Cu6    Cu    0.00000   0.50000   0.50000   0.01267  Uiso   1.00
H1     H     0.89570   0.05490   0.73650   0.01267  Uiso   1.00
H2     H     0.98800   0.22830   0.94620   0.01267  Uiso   1.00
H3     H     0.18550   0.17090   0.93450   0.01267  Uiso   1.00
H4     H     0.42560   0.75680   0.65750   0.01267  Uiso   1.00
H5     H     0.09520   0.16670   0.64470   0.01267  Uiso   1.00
H6     H     0.27280   0.20130   0.60860   0.01267  Uiso   1.00
H7     H     0.10430   0.55490   0.76350   0.01267  Uiso   1.00
H8     H     0.01200   0.72830   0.55380   0.01267  Uiso   1.00
H9     H     0.81450   0.67090   0.56550   0.01267  Uiso   1.00
H10    H     0.57440   0.25680   0.84250   0.01267  Uiso   1.00
H11    H     0.90480   0.66670   0.85530   0.01267  Uiso   1.00
H12    H     0.72720   0.70130   0.89140   0.01267  Uiso   1.00
H13    H     0.10430   0.94510   0.26350   0.01267  Uiso   1.00
H14    H     0.01200   0.77170   0.05380   0.01267  Uiso   1.00
H15    H     0.81450   0.82910   0.06550   0.01267  Uiso   1.00
H16    H     0.57440   0.24320   0.34250   0.01267  Uiso   1.00
H17    H     0.90480   0.83330   0.35530   0.01267  Uiso   1.00
H18    H     0.72720   0.79870   0.39140   0.01267  Uiso   1.00
H19    H     0.89570   0.44510   0.23650   0.01267  Uiso   1.00
H20    H     0.98800   0.27170   0.44620   0.01267  Uiso   1.00
H21    H     0.18550   0.32910   0.43450   0.01267  Uiso   1.00
H22    H     0.42560   0.74320   0.15750   0.01267  Uiso   1.00
H23    H     0.09520   0.33330   0.14470   0.01267  Uiso   1.00
H24    H     0.27280   0.29870   0.10860   0.01267  Uiso   1.00
C1     C     0.88600   0.97740   0.87560   0.01267  Uiso   1.00
C2     C     0.99800   0.14900   0.81380   0.01267  Uiso   1.00
C3     C     0.43140   0.03120   0.71760   0.01267  Uiso   1.00
C4     C     0.30140   0.92410   0.62800   0.01267  Uiso   1.00
C5     C     0.11400   0.47740   0.62440   0.01267  Uiso   1.00
C6     C     0.00200   0.64900   0.68620   0.01267  Uiso   1.00
C7     C     0.56860   0.53120   0.78240   0.01267  Uiso   1.00
C8     C     0.69860   0.42410   0.87200   0.01267  Uiso   1.00
C9     C     0.11400   0.02260   0.12440   0.01267  Uiso   1.00
C10    C     0.00200   0.85100   0.18620   0.01267  Uiso   1.00
C11    C     0.56860   0.96880   0.28240   0.01267  Uiso   1.00
C12    C     0.69860   0.07590   0.37200   0.01267  Uiso   1.00
C13    C     0.88600   0.52260   0.37560   0.01267  Uiso   1.00
C14    C     0.99800   0.35100   0.31380   0.01267  Uiso   1.00
C15    C     0.43140   0.46880   0.21760   0.01267  Uiso   1.00
C16    C     0.30140   0.57590   0.12800   0.01267  Uiso   1.00
N1     N     0.90700   0.05220   0.77810   0.01267  Uiso   1.00
N2     N     0.83240   0.94640   0.81520   0.01267  Uiso   1.00
N3     N     0.98060   0.10000   0.87610   0.01267  Uiso   1.00
N4     N     0.05390   0.15260   0.93570   0.01267  Uiso   1.00
N5     N     0.40990   0.84100   0.66590   0.01267  Uiso   1.00
N6     N     0.49610   0.90420   0.72110   0.01267  Uiso   1.00
N7     N     0.31320   0.04430   0.66190   0.01267  Uiso   1.00
N8     N     0.22970   0.17120   0.64680   0.01267  Uiso   1.00
N9     N     0.09300   0.55220   0.72190   0.01267  Uiso   1.00
N10    N     0.16760   0.44640   0.68480   0.01267  Uiso   1.00
N11    N     0.01940   0.60000   0.62390   0.01267  Uiso   1.00
N12    N     0.94610   0.65260   0.56430   0.01267  Uiso   1.00
N13    N     0.59010   0.34100   0.83410   0.01267  Uiso   1.00
N14    N     0.50390   0.40420   0.77890   0.01267  Uiso   1.00
N15    N     0.68680   0.54430   0.83810   0.01267  Uiso   1.00
N16    N     0.77030   0.67120   0.85320   0.01267  Uiso   1.00
N17    N     0.09300   0.94780   0.22190   0.01267  Uiso   1.00
N18    N     0.16760   0.05360   0.18480   0.01267  Uiso   1.00
N19    N     0.01940   0.90000   0.12390   0.01267  Uiso   1.00
N20    N     0.94610   0.84740   0.06430   0.01267  Uiso   1.00
N21    N     0.59010   0.15900   0.33410   0.01267  Uiso   1.00
N22    N     0.50390   0.09580   0.27890   0.01267  Uiso   1.00
N23    N     0.68680   0.95570   0.33810   0.01267  Uiso   1.00
N24    N     0.77030   0.82880   0.35320   0.01267  Uiso   1.00
N25    N     0.90700   0.44780   0.27810   0.01267  Uiso   1.00
N26    N     0.83240   0.55360   0.31520   0.01267  Uiso   1.00
N27    N     0.98060   0.40000   0.37610   0.01267  Uiso   1.00
N28    N     0.05390   0.34740   0.43570   0.01267  Uiso   1.00
N29    N     0.40990   0.65900   0.16590   0.01267  Uiso   1.00
N30    N     0.49610   0.59580   0.22110   0.01267  Uiso   1.00
N31    N     0.31320   0.45570   0.16190   0.01267  Uiso   1.00
N32    N     0.22970   0.32880   0.14680   0.01267  Uiso   1.00
O1     O     0.85900   0.91040   0.92676   0.01267  Uiso   1.00
O2     O     0.07760   0.25580   0.79733   0.01267  Uiso   1.00
O3     O     0.46440   0.13070   0.75395   0.01267  Uiso   1.00
O4     O     0.21210   0.90320   0.57611   0.01267  Uiso   1.00
O5     O     0.14100   0.41040   0.57324   0.01267  Uiso   1.00
O6     O     0.92240   0.75580   0.70267   0.01267  Uiso   1.00
O7     O     0.53560   0.63070   0.74605   0.01267  Uiso   1.00
O8     O     0.78790   0.40320   0.92389   0.01267  Uiso   1.00
O9     O     0.14100   0.08960   0.07324   0.01267  Uiso   1.00
O10    O     0.92240   0.74420   0.20267   0.01267  Uiso   1.00
O11    O     0.53560   0.86930   0.24605   0.01267  Uiso   1.00
O12    O     0.78790   0.09680   0.42389   0.01267  Uiso   1.00
O13    O     0.85900   0.58960   0.42676   0.01267  Uiso   1.00
O14    O     0.07760   0.24420   0.29733   0.01267  Uiso   1.00
O15    O     0.46440   0.36930   0.25395   0.01267  Uiso   1.00
O16    O     0.21210   0.59680   0.07611   0.01267  Uiso   1.00
