data_QAVYUJ_clean
_audit_creation_date              2014-07-02
_audit_creation_method            'Materials Studio'
_symmetry_space_group_name_H-M    'P1'
_symmetry_Int_Tables_number       1
_symmetry_cell_setting            triclinic
loop_
_symmetry_equiv_pos_as_xyz
  x,y,z
_cell_length_a                    7.2918
_cell_length_b                    9.3400
_cell_length_c                    14.1290
_cell_angle_alpha                 83.8160
_cell_angle_beta                  85.4610
_cell_angle_gamma                 72.6460
loop_
_atom_site_label
_atom_site_type_symbol
_atom_site_fract_x
_atom_site_fract_y
_atom_site_fract_z
_atom_site_U_iso_or_equiv
_atom_site_adp_type
_atom_site_occupancy
La1    La    0.50617   0.28555   0.59596   0.01267  Uiso   1.00
La2    La    0.49383   0.71445   0.40404   0.01267  Uiso   1.00
Ni1    Ni    0.50000   0.50000   1.00000   0.01267  Uiso   1.00
H1     H     0.83730   0.53800   0.00390   0.01267  Uiso   1.00
H2     H     0.70020   0.68590   0.00660   0.01267  Uiso   1.00
H3     H     0.19360   0.82920   0.90210   0.01267  Uiso   1.00
H4     H     0.21650   0.87780   0.73470   0.01267  Uiso   1.00
H5     H     0.98950   0.44100   0.85890   0.01267  Uiso   1.00
H6     H     0.91850   0.73690   0.62600   0.01267  Uiso   1.00
H7     H     0.62430   0.85650   0.87190   0.01267  Uiso   1.00
H8     H     0.16270   0.46200   0.99610   0.01267  Uiso   1.00
H9     H     0.29980   0.31410   0.99340   0.01267  Uiso   1.00
H10    H     0.80640   0.17080   0.09790   0.01267  Uiso   1.00
H11    H     0.78350   0.12220   0.26530   0.01267  Uiso   1.00
H12    H     0.01050   0.55900   0.14110   0.01267  Uiso   1.00
H13    H     0.08150   0.26310   0.37400   0.01267  Uiso   1.00
H14    H     0.37570   0.14350   0.12810   0.01267  Uiso   1.00
C1     C     0.26440   0.76200   0.85930   0.01267  Uiso   1.00
C2     C     0.39270   0.67010   0.72460   0.01267  Uiso   1.00
C3     C     0.45070   0.56250   0.79950   0.01267  Uiso   1.00
C4     C     0.58460   0.40510   0.81070   0.01267  Uiso   1.00
C5     C     0.44410   0.68120   0.62110   0.01267  Uiso   1.00
C6     C     0.12740   0.45750   0.67980   0.01267  Uiso   1.00
C7     C     0.79590   0.64200   0.88100   0.01267  Uiso   1.00
C8     C     0.93020   0.53580   0.82940   0.01267  Uiso   1.00
C9     C     0.97620   0.57090   0.73380   0.01267  Uiso   1.00
C10    C     0.88860   0.71310   0.68990   0.01267  Uiso   1.00
C11    C     0.71140   0.78430   0.83710   0.01267  Uiso   1.00
C12    C     0.75570   0.81980   0.74200   0.01267  Uiso   1.00
C13    C     0.65930   0.97270   0.69340   0.01267  Uiso   1.00
C14    C     0.73560   0.23800   0.14070   0.01267  Uiso   1.00
C15    C     0.60730   0.32990   0.27540   0.01267  Uiso   1.00
C16    C     0.54930   0.43750   0.20050   0.01267  Uiso   1.00
C17    C     0.41540   0.59490   0.18930   0.01267  Uiso   1.00
C18    C     0.55590   0.31880   0.37890   0.01267  Uiso   1.00
C19    C     0.87260   0.54250   0.32020   0.01267  Uiso   1.00
C20    C     0.20410   0.35800   0.11900   0.01267  Uiso   1.00
C21    C     0.06980   0.46420   0.17060   0.01267  Uiso   1.00
C22    C     0.02380   0.42910   0.26620   0.01267  Uiso   1.00
C23    C     0.11140   0.28690   0.31010   0.01267  Uiso   1.00
C24    C     0.28860   0.21570   0.16290   0.01267  Uiso   1.00
C25    C     0.24430   0.18020   0.25800   0.01267  Uiso   1.00
C26    C     0.34070   0.02730   0.30660   0.01267  Uiso   1.00
N1     N     0.73430   0.60200   0.97560   0.01267  Uiso   1.00
N2     N     0.36810   0.62300   0.88360   0.01267  Uiso   1.00
N3     N     0.27460   0.79360   0.76500   0.01267  Uiso   1.00
N4     N     0.26570   0.39800   0.02440   0.01267  Uiso   1.00
N5     N     0.63190   0.37700   0.11640   0.01267  Uiso   1.00
N6     N     0.72540   0.20640   0.23500   0.01267  Uiso   1.00
O1     O     0.62640   0.35650   0.89610   0.01267  Uiso   1.00
O2     O     0.64850   0.33430   0.73990   0.01267  Uiso   1.00
O3     O     0.40460   0.80960   0.57820   0.01267  Uiso   1.00
O4     O     0.52250   0.56300   0.57920   0.01267  Uiso   1.00
O5     O     0.16170   0.48250   0.59240   0.01267  Uiso   1.00
O6     O     0.22460   0.34030   0.72600   0.01267  Uiso   1.00
O7     O     0.72120   0.01040   0.61160   0.01267  Uiso   1.00
O8     O     0.51990   0.06090   0.73490   0.01267  Uiso   1.00
O9     O     0.37360   0.64350   0.10390   0.01267  Uiso   1.00
O10    O     0.35150   0.66570   0.26010   0.01267  Uiso   1.00
O11    O     0.59540   0.19040   0.42180   0.01267  Uiso   1.00
O12    O     0.47750   0.43700   0.42080   0.01267  Uiso   1.00
O13    O     0.83830   0.51750   0.40760   0.01267  Uiso   1.00
O14    O     0.77540   0.65970   0.27400   0.01267  Uiso   1.00
O15    O     0.27880   0.98960   0.38840   0.01267  Uiso   1.00
O16    O     0.48010   0.93910   0.26510   0.01267  Uiso   1.00
