data_QAVZAQ_clean
_audit_creation_date              2014-07-02
_audit_creation_method            'Materials Studio'
_symmetry_space_group_name_H-M    'P1'
_symmetry_Int_Tables_number       1
_symmetry_cell_setting            triclinic
loop_
_symmetry_equiv_pos_as_xyz
  x,y,z
_cell_length_a                    7.2904
_cell_length_b                    9.2414
_cell_length_c                    14.0140
_cell_angle_alpha                 83.8860
_cell_angle_beta                  85.3980
_cell_angle_gamma                 72.6470
loop_
_atom_site_label
_atom_site_type_symbol
_atom_site_fract_x
_atom_site_fract_y
_atom_site_fract_z
_atom_site_U_iso_or_equiv
_atom_site_adp_type
_atom_site_occupancy
Nd1    Nd    0.49527   0.71310   0.90451   0.01267  Uiso   1.00
Nd2    Nd    0.50473   0.28690   0.09549   0.01267  Uiso   1.00
Ni1    Ni    0.50000   0.50000   0.50000   0.01267  Uiso   1.00
H1     H     0.27170   0.32520   0.48650   0.01267  Uiso   1.00
H2     H     0.16360   0.47260   0.50220   0.01267  Uiso   1.00
H3     H     0.78280   0.11630   0.76240   0.01267  Uiso   1.00
H4     H     0.00790   0.55840   0.64320   0.01267  Uiso   1.00
H5     H     0.37790   0.14270   0.62870   0.01267  Uiso   1.00
H6     H     0.08070   0.26090   0.87690   0.01267  Uiso   1.00
H7     H     0.80930   0.16930   0.59850   0.01267  Uiso   1.00
H8     H     0.72830   0.67480   0.51350   0.01267  Uiso   1.00
H9     H     0.83640   0.52740   0.49780   0.01267  Uiso   1.00
H10    H     0.21720   0.88370   0.23760   0.01267  Uiso   1.00
H11    H     0.99210   0.44160   0.35680   0.01267  Uiso   1.00
H12    H     0.62210   0.85730   0.37130   0.01267  Uiso   1.00
H13    H     0.91930   0.73910   0.12310   0.01267  Uiso   1.00
H14    H     0.19070   0.83070   0.40150   0.01267  Uiso   1.00
C1     C     0.86830   0.54080   0.82220   0.01267  Uiso   1.00
C2     C     0.02230   0.42780   0.76880   0.01267  Uiso   1.00
C3     C     0.06850   0.46300   0.67290   0.01267  Uiso   1.00
C4     C     0.20390   0.35760   0.62090   0.01267  Uiso   1.00
C5     C     0.29010   0.21480   0.66410   0.01267  Uiso   1.00
C6     C     0.24630   0.17800   0.76030   0.01267  Uiso   1.00
C7     C     0.11110   0.28520   0.81270   0.01267  Uiso   1.00
C8     C     0.34370   0.02350   0.80780   0.01267  Uiso   1.00
C9     C     0.55560   0.31960   0.88150   0.01267  Uiso   1.00
C10    C     0.60680   0.33070   0.77680   0.01267  Uiso   1.00
C11    C     0.54900   0.43810   0.70090   0.01267  Uiso   1.00
C12    C     0.73660   0.23660   0.64170   0.01267  Uiso   1.00
C13    C     0.41620   0.59630   0.69040   0.01267  Uiso   1.00
C14    C     0.13170   0.45920   0.17780   0.01267  Uiso   1.00
C15    C     0.97770   0.57220   0.23120   0.01267  Uiso   1.00
C16    C     0.93150   0.53700   0.32710   0.01267  Uiso   1.00
C17    C     0.79610   0.64240   0.37910   0.01267  Uiso   1.00
C18    C     0.70990   0.78520   0.33590   0.01267  Uiso   1.00
C19    C     0.75370   0.82200   0.23970   0.01267  Uiso   1.00
C20    C     0.88890   0.71480   0.18730   0.01267  Uiso   1.00
C21    C     0.65630   0.97650   0.19220   0.01267  Uiso   1.00
C22    C     0.44440   0.68040   0.11850   0.01267  Uiso   1.00
C23    C     0.39320   0.66930   0.22320   0.01267  Uiso   1.00
C24    C     0.45100   0.56190   0.29910   0.01267  Uiso   1.00
C25    C     0.26340   0.76340   0.35830   0.01267  Uiso   1.00
C26    C     0.58380   0.40370   0.30960   0.01267  Uiso   1.00
N1     N     0.26430   0.39870   0.52410   0.01267  Uiso   1.00
N2     N     0.72540   0.20410   0.73680   0.01267  Uiso   1.00
N3     N     0.63160   0.37570   0.61730   0.01267  Uiso   1.00
N4     N     0.73570   0.60130   0.47590   0.01267  Uiso   1.00
N5     N     0.27460   0.79590   0.26320   0.01267  Uiso   1.00
N6     N     0.36840   0.62430   0.38270   0.01267  Uiso   1.00
O1     O     0.76820   0.65830   0.77560   0.01267  Uiso   1.00
O2     O     0.83380   0.51600   0.91000   0.01267  Uiso   1.00
O3     O     0.48480   0.93690   0.76630   0.01267  Uiso   1.00
O4     O     0.28090   0.98330   0.88990   0.01267  Uiso   1.00
O5     O     0.47540   0.43870   0.92240   0.01267  Uiso   1.00
O6     O     0.59510   0.19050   0.92490   0.01267  Uiso   1.00
O7     O     0.35250   0.66870   0.76220   0.01267  Uiso   1.00
O8     O     0.37410   0.64590   0.60500   0.01267  Uiso   1.00
O9     O     0.23180   0.34170   0.22440   0.01267  Uiso   1.00
O10    O     0.16620   0.48400   0.09000   0.01267  Uiso   1.00
O11    O     0.51520   0.06310   0.23370   0.01267  Uiso   1.00
O12    O     0.71910   0.01670   0.11010   0.01267  Uiso   1.00
O13    O     0.52460   0.56130   0.07760   0.01267  Uiso   1.00
O14    O     0.40490   0.80950   0.07510   0.01267  Uiso   1.00
O15    O     0.64750   0.33130   0.23780   0.01267  Uiso   1.00
O16    O     0.62590   0.35410   0.39500   0.01267  Uiso   1.00
