data_image0
_cell_length_a       14.3286
_cell_length_b       14.3286
_cell_length_c       14.3286
_cell_angle_alpha    90
_cell_angle_beta     90
_cell_angle_gamma    90

_symmetry_space_group_name_H-M    "P 1"
_symmetry_int_tables_number       1

loop_
  _symmetry_equiv_pos_as_xyz
  'x, y, z'

loop_
  _atom_site_label
  _atom_site_occupancy
  _atom_site_fract_x
  _atom_site_fract_y
  _atom_site_fract_z
  _atom_site_thermal_displace_type
  _atom_site_B_iso_or_equiv
  _atom_site_type_symbol
  O1       1.0000 0.92970  0.57620  0.28440  Biso   1.000  O
  O2       1.0000 0.80940  0.61870  0.19600  Biso   1.000  O
  C1       1.0000 0.89770  0.48680  0.14870  Biso   1.000  C
  C2       1.0000 0.96950  0.43300  0.16560  Biso   1.000  C
  C3       1.0000 0.88280  0.56700  0.22010  Biso   1.000  C
  O3       1.0000 0.57030  0.42380  0.78440  Biso   1.000  O
  O4       1.0000 0.69060  0.38130  0.69600  Biso   1.000  O
  C4       1.0000 0.60230  0.51320  0.64870  Biso   1.000  C
  C5       1.0000 0.53050  0.56700  0.66560  Biso   1.000  C
  C6       1.0000 0.61720  0.43300  0.72010  Biso   1.000  C
  O5       1.0000 0.07030  0.07620  0.21560  Biso   1.000  O
  O6       1.0000 0.19060  0.11870  0.30400  Biso   1.000  O
  C7       1.0000 0.10230  0.98680  0.35130  Biso   1.000  C
  C8       1.0000 0.03050  0.93300  0.33440  Biso   1.000  C
  C9       1.0000 0.11720  0.06700  0.27990  Biso   1.000  C
  O7       1.0000 0.42970  0.92380  0.71560  Biso   1.000  O
  O8       1.0000 0.30940  0.88130  0.80400  Biso   1.000  O
  C10      1.0000 0.39770  0.01320  0.85130  Biso   1.000  C
  C11      1.0000 0.46950  0.06700  0.83440  Biso   1.000  C
  C12      1.0000 0.38280  0.93300  0.77990  Biso   1.000  C
  O9       1.0000 0.28440  0.92970  0.57620  Biso   1.000  O
  O10      1.0000 0.19600  0.80940  0.61870  Biso   1.000  O
  C13      1.0000 0.14870  0.89770  0.48680  Biso   1.000  C
  C14      1.0000 0.16560  0.96950  0.43300  Biso   1.000  C
  C15      1.0000 0.22010  0.88280  0.56700  Biso   1.000  C
  O11      1.0000 0.78440  0.57030  0.42380  Biso   1.000  O
  O12      1.0000 0.69600  0.69060  0.38130  Biso   1.000  O
  C16      1.0000 0.64870  0.60230  0.51320  Biso   1.000  C
  C17      1.0000 0.66560  0.53050  0.56700  Biso   1.000  C
  C18      1.0000 0.72010  0.61720  0.43300  Biso   1.000  C
  O13      1.0000 0.21560  0.07030  0.07620  Biso   1.000  O
  O14      1.0000 0.30400  0.19060  0.11870  Biso   1.000  O
  C19      1.0000 0.35130  0.10230  0.98680  Biso   1.000  C
  C20      1.0000 0.33440  0.03050  0.93300  Biso   1.000  C
  C21      1.0000 0.27990  0.11720  0.06700  Biso   1.000  C
  O15      1.0000 0.71560  0.42970  0.92380  Biso   1.000  O
  O16      1.0000 0.80400  0.30940  0.88130  Biso   1.000  O
  C22      1.0000 0.85130  0.39770  0.01320  Biso   1.000  C
  C23      1.0000 0.83440  0.46950  0.06700  Biso   1.000  C
  C24      1.0000 0.77990  0.38280  0.93300  Biso   1.000  C
  O17      1.0000 0.57620  0.28440  0.92970  Biso   1.000  O
  O18      1.0000 0.61870  0.19600  0.80940  Biso   1.000  O
  C25      1.0000 0.48680  0.14870  0.89770  Biso   1.000  C
  C26      1.0000 0.43300  0.16560  0.96950  Biso   1.000  C
  C27      1.0000 0.56700  0.22010  0.88280  Biso   1.000  C
  O19      1.0000 0.42380  0.78440  0.57030  Biso   1.000  O
  O20      1.0000 0.38130  0.69600  0.69060  Biso   1.000  O
  C28      1.0000 0.51320  0.64870  0.60230  Biso   1.000  C
  C29      1.0000 0.56700  0.66560  0.53050  Biso   1.000  C
  C30      1.0000 0.43300  0.72010  0.61720  Biso   1.000  C
  O21      1.0000 0.07620  0.21560  0.07030  Biso   1.000  O
  O22      1.0000 0.11870  0.30400  0.19060  Biso   1.000  O
  C31      1.0000 0.98680  0.35130  0.10230  Biso   1.000  C
  C32      1.0000 0.93300  0.33440  0.03050  Biso   1.000  C
  C33      1.0000 0.06700  0.27990  0.11720  Biso   1.000  C
  O23      1.0000 0.92380  0.71560  0.42970  Biso   1.000  O
  O24      1.0000 0.88130  0.80400  0.30940  Biso   1.000  O
  C34      1.0000 0.01320  0.85130  0.39770  Biso   1.000  C
  C35      1.0000 0.06700  0.83440  0.46950  Biso   1.000  C
  C36      1.0000 0.93300  0.77990  0.38280  Biso   1.000  C
  Zn1      1.0000 0.77761  0.72239  0.27761  Biso   1.000  Zn
  Mg1      1.0000 0.92470  0.57530  0.42470  Biso   1.000  Mg
  Zn2      1.0000 0.72239  0.27761  0.77761  Biso   1.000  Zn
  Mg2      1.0000 0.57530  0.42470  0.92470  Biso   1.000  Mg
  Zn3      1.0000 0.22239  0.22239  0.22239  Biso   1.000  Zn
  Mg3      1.0000 0.07530  0.07530  0.07530  Biso   1.000  Mg
  Zn4      1.0000 0.27761  0.77761  0.72239  Biso   1.000  Zn
  Mg4      1.0000 0.42470  0.92470  0.57530  Biso   1.000  Mg
