data_image0
_cell_length_a       17.074
_cell_length_b       17.074
_cell_length_c       14.606
_cell_angle_alpha    90
_cell_angle_beta     90
_cell_angle_gamma    90

_symmetry_space_group_name_H-M    "P 1"
_symmetry_int_tables_number       1

loop_
  _symmetry_equiv_pos_as_xyz
  'x, y, z'

loop_
  _atom_site_label
  _atom_site_occupancy
  _atom_site_fract_x
  _atom_site_fract_y
  _atom_site_fract_z
  _atom_site_thermal_displace_type
  _atom_site_B_iso_or_equiv
  _atom_site_type_symbol
  N1       1.0000 0.66110  0.22230  0.16060  Biso   1.000  N
  N2       1.0000 0.34890  0.21410  0.84020  Biso   1.000  N
  C1       1.0000 0.33590  0.19580  0.92660  Biso   1.000  C
  H1       1.0000 0.28490  0.18490  0.94480  Biso   1.000  H
  C2       1.0000 0.39580  0.19230  0.99230  Biso   1.000  C
  H2       1.0000 0.38400  0.18080  0.05300  Biso   1.000  H
  C3       1.0000 0.47060  0.20560  0.96690  Biso   1.000  C
  C4       1.0000 0.48470  0.22490  0.87510  Biso   1.000  C
  H3       1.0000 0.53530  0.23590  0.85550  Biso   1.000  H
  C5       1.0000 0.42320  0.22750  0.81390  Biso   1.000  C
  H4       1.0000 0.43340  0.23870  0.75280  Biso   1.000  H
  C6       1.0000 0.58700  0.23700  0.18330  Biso   1.000  C
  H5       1.0000 0.57710  0.25270  0.24310  Biso   1.000  H
  C7       1.0000 0.52460  0.23090  0.12580  Biso   1.000  C
  H6       1.0000 0.47430  0.24070  0.14740  Biso   1.000  H
  C8       1.0000 0.53600  0.20990  0.03430  Biso   1.000  C
  C9       1.0000 0.61170  0.18750  0.01180  Biso   1.000  C
  H7       1.0000 0.62220  0.16760  0.95390  Biso   1.000  H
  C10      1.0000 0.67120  0.19460  0.07400  Biso   1.000  C
  H8       1.0000 0.72130  0.17960  0.05620  Biso   1.000  H
  O1       1.0000 0.82950  0.18230  0.18170  Biso   1.000  O
  O2       1.0000 0.99100  0.12980  0.18190  Biso   1.000  O
  O3       1.0000 0.94110  0.18570  0.03850  Biso   1.000  O
  O4       1.0000 0.87110  0.01990  0.18160  Biso   1.000  O
  O5       1.0000 0.82030  0.07310  0.03670  Biso   1.000  O
  O6       1.0000 0.13290  0.12020  0.12270  Biso   1.000  O
  V1       1.0000 0.88776  0.12203  0.12782  Biso   1.000  V
  V2       1.0000 0.04842  0.18458  0.08916  Biso   1.000  V
  V3       1.0000 0.81163  0.96783  0.08669  Biso   1.000  V
  V4       1.0000 0.07144  0.06536  0.23017  Biso   1.000  V
  N3       1.0000 0.33890  0.77770  0.16060  Biso   1.000  N
  N4       1.0000 0.65110  0.78590  0.84020  Biso   1.000  N
  C11      1.0000 0.66410  0.80420  0.92660  Biso   1.000  C
  H9       1.0000 0.71510  0.81510  0.94480  Biso   1.000  H
  C12      1.0000 0.60420  0.80770  0.99230  Biso   1.000  C
  H10      1.0000 0.61600  0.81920  0.05300  Biso   1.000  H
  C13      1.0000 0.52940  0.79440  0.96690  Biso   1.000  C
  C14      1.0000 0.51530  0.77510  0.87510  Biso   1.000  C
  H11      1.0000 0.46470  0.76410  0.85550  Biso   1.000  H
  C15      1.0000 0.57680  0.77250  0.81390  Biso   1.000  C
  H12      1.0000 0.56660  0.76130  0.75280  Biso   1.000  H
  C16      1.0000 0.41300  0.76300  0.18330  Biso   1.000  C
  H13      1.0000 0.42290  0.74730  0.24310  Biso   1.000  H
  C17      1.0000 0.47540  0.76910  0.12580  Biso   1.000  C
  H14      1.0000 0.52570  0.75930  0.14740  Biso   1.000  H
  C18      1.0000 0.46400  0.79010  0.03430  Biso   1.000  C
  C19      1.0000 0.38830  0.81250  0.01180  Biso   1.000  C
  H15      1.0000 0.37780  0.83240  0.95390  Biso   1.000  H
  C20      1.0000 0.32880  0.80540  0.07400  Biso   1.000  C
  H16      1.0000 0.27870  0.82040  0.05620  Biso   1.000  H
  O7       1.0000 0.17050  0.81770  0.18170  Biso   1.000  O
  O8       1.0000 0.00900  0.87020  0.18190  Biso   1.000  O
  O9       1.0000 0.05890  0.81430  0.03850  Biso   1.000  O
  O10      1.0000 0.12890  0.98010  0.18160  Biso   1.000  O
  O11      1.0000 0.17970  0.92690  0.03670  Biso   1.000  O
  O12      1.0000 0.86710  0.87980  0.12270  Biso   1.000  O
  V5       1.0000 0.11224  0.87797  0.12782  Biso   1.000  V
  V6       1.0000 0.95158  0.81542  0.08916  Biso   1.000  V
  V7       1.0000 0.18837  0.03217  0.08669  Biso   1.000  V
  V8       1.0000 0.92856  0.93464  0.23017  Biso   1.000  V
  N5       1.0000 0.22230  0.33890  0.83940  Biso   1.000  N
  N6       1.0000 0.21410  0.65110  0.15980  Biso   1.000  N
  C21      1.0000 0.19580  0.66410  0.07340  Biso   1.000  C
  H17      1.0000 0.18490  0.71510  0.05520  Biso   1.000  H
  C22      1.0000 0.19230  0.60420  0.00770  Biso   1.000  C
  H18      1.0000 0.18080  0.61600  0.94700  Biso   1.000  H
  C23      1.0000 0.20560  0.52940  0.03310  Biso   1.000  C
  C24      1.0000 0.22490  0.51530  0.12490  Biso   1.000  C
  H19      1.0000 0.23590  0.46470  0.14450  Biso   1.000  H
  C25      1.0000 0.22750  0.57680  0.18610  Biso   1.000  C
  H20      1.0000 0.23870  0.56660  0.24720  Biso   1.000  H
  C26      1.0000 0.23700  0.41300  0.81670  Biso   1.000  C
  H21      1.0000 0.25270  0.42290  0.75690  Biso   1.000  H
  C27      1.0000 0.23090  0.47540  0.87420  Biso   1.000  C
  H22      1.0000 0.24070  0.52570  0.85260  Biso   1.000  H
  C28      1.0000 0.20990  0.46400  0.96570  Biso   1.000  C
  C29      1.0000 0.18750  0.38830  0.98820  Biso   1.000  C
  H23      1.0000 0.16760  0.37780  0.04610  Biso   1.000  H
  C30      1.0000 0.19460  0.32880  0.92600  Biso   1.000  C
  H24      1.0000 0.17960  0.27870  0.94380  Biso   1.000  H
  O13      1.0000 0.18230  0.17050  0.81830  Biso   1.000  O
  O14      1.0000 0.12980  0.00900  0.81810  Biso   1.000  O
  O15      1.0000 0.18570  0.05890  0.96150  Biso   1.000  O
  O16      1.0000 0.01990  0.12890  0.81840  Biso   1.000  O
  O17      1.0000 0.07310  0.17970  0.96330  Biso   1.000  O
  O18      1.0000 0.12020  0.86710  0.87730  Biso   1.000  O
  V9       1.0000 0.12203  0.11224  0.87218  Biso   1.000  V
  V10      1.0000 0.18458  0.95158  0.91084  Biso   1.000  V
  V11      1.0000 0.96783  0.18837  0.91331  Biso   1.000  V
  V12      1.0000 0.06536  0.92856  0.76983  Biso   1.000  V
  N7       1.0000 0.77770  0.66110  0.83940  Biso   1.000  N
  N8       1.0000 0.78590  0.34890  0.15980  Biso   1.000  N
  C31      1.0000 0.80420  0.33590  0.07340  Biso   1.000  C
  H25      1.0000 0.81510  0.28490  0.05520  Biso   1.000  H
  C32      1.0000 0.80770  0.39580  0.00770  Biso   1.000  C
  H26      1.0000 0.81920  0.38400  0.94700  Biso   1.000  H
  C33      1.0000 0.79440  0.47060  0.03310  Biso   1.000  C
  C34      1.0000 0.77510  0.48470  0.12490  Biso   1.000  C
  H27      1.0000 0.76410  0.53530  0.14450  Biso   1.000  H
  C35      1.0000 0.77250  0.42320  0.18610  Biso   1.000  C
  H28      1.0000 0.76130  0.43340  0.24720  Biso   1.000  H
  C36      1.0000 0.76300  0.58700  0.81670  Biso   1.000  C
  H29      1.0000 0.74730  0.57710  0.75690  Biso   1.000  H
  C37      1.0000 0.76910  0.52460  0.87420  Biso   1.000  C
  H30      1.0000 0.75930  0.47430  0.85260  Biso   1.000  H
  C38      1.0000 0.79010  0.53600  0.96570  Biso   1.000  C
  C39      1.0000 0.81250  0.61170  0.98820  Biso   1.000  C
  H31      1.0000 0.83240  0.62220  0.04610  Biso   1.000  H
  C40      1.0000 0.80540  0.67120  0.92600  Biso   1.000  C
  H32      1.0000 0.82040  0.72130  0.94380  Biso   1.000  H
  O19      1.0000 0.81770  0.82950  0.81830  Biso   1.000  O
  O20      1.0000 0.87020  0.99100  0.81810  Biso   1.000  O
  O21      1.0000 0.81430  0.94110  0.96150  Biso   1.000  O
  O22      1.0000 0.98010  0.87110  0.81840  Biso   1.000  O
  O23      1.0000 0.92690  0.82030  0.96330  Biso   1.000  O
  O24      1.0000 0.87980  0.13290  0.87730  Biso   1.000  O
  V13      1.0000 0.87797  0.88776  0.87218  Biso   1.000  V
  V14      1.0000 0.81542  0.04842  0.91084  Biso   1.000  V
  V15      1.0000 0.03217  0.81163  0.91331  Biso   1.000  V
  V16      1.0000 0.93464  0.07144  0.76983  Biso   1.000  V
  N9       1.0000 0.16110  0.27770  0.66060  Biso   1.000  N
  N10      1.0000 0.84890  0.28590  0.34020  Biso   1.000  N
  C41      1.0000 0.83590  0.30420  0.42660  Biso   1.000  C
  H33      1.0000 0.78490  0.31510  0.44480  Biso   1.000  H
  C42      1.0000 0.89580  0.30770  0.49230  Biso   1.000  C
  H34      1.0000 0.88400  0.31920  0.55300  Biso   1.000  H
  C43      1.0000 0.97060  0.29440  0.46690  Biso   1.000  C
  C44      1.0000 0.98470  0.27510  0.37510  Biso   1.000  C
  H35      1.0000 0.03530  0.26410  0.35550  Biso   1.000  H
  C45      1.0000 0.92320  0.27250  0.31390  Biso   1.000  C
  H36      1.0000 0.93340  0.26130  0.25280  Biso   1.000  H
  C46      1.0000 0.08700  0.26300  0.68330  Biso   1.000  C
  H37      1.0000 0.07710  0.24730  0.74310  Biso   1.000  H
  C47      1.0000 0.02460  0.26910  0.62580  Biso   1.000  C
  H38      1.0000 0.97430  0.25930  0.64740  Biso   1.000  H
  C48      1.0000 0.03600  0.29010  0.53430  Biso   1.000  C
  C49      1.0000 0.11170  0.31250  0.51180  Biso   1.000  C
  H39      1.0000 0.12220  0.33240  0.45390  Biso   1.000  H
  C50      1.0000 0.17120  0.30540  0.57400  Biso   1.000  C
  H40      1.0000 0.22130  0.32040  0.55620  Biso   1.000  H
  O25      1.0000 0.32950  0.31770  0.68170  Biso   1.000  O
  O26      1.0000 0.49100  0.37020  0.68190  Biso   1.000  O
  O27      1.0000 0.44110  0.31430  0.53850  Biso   1.000  O
  O28      1.0000 0.37110  0.48010  0.68160  Biso   1.000  O
  O29      1.0000 0.32030  0.42690  0.53670  Biso   1.000  O
  O30      1.0000 0.63290  0.37980  0.62270  Biso   1.000  O
  V17      1.0000 0.38776  0.37797  0.62782  Biso   1.000  V
  V18      1.0000 0.54842  0.31542  0.58916  Biso   1.000  V
  V19      1.0000 0.31163  0.53217  0.58669  Biso   1.000  V
  V20      1.0000 0.57144  0.43464  0.73017  Biso   1.000  V
  N11      1.0000 0.83890  0.72230  0.66060  Biso   1.000  N
  N12      1.0000 0.15110  0.71410  0.34020  Biso   1.000  N
  C51      1.0000 0.16410  0.69580  0.42660  Biso   1.000  C
  H41      1.0000 0.21510  0.68490  0.44480  Biso   1.000  H
  C52      1.0000 0.10420  0.69230  0.49230  Biso   1.000  C
  H42      1.0000 0.11600  0.68080  0.55300  Biso   1.000  H
  C53      1.0000 0.02940  0.70560  0.46690  Biso   1.000  C
  C54      1.0000 0.01530  0.72490  0.37510  Biso   1.000  C
  H43      1.0000 0.96470  0.73590  0.35550  Biso   1.000  H
  C55      1.0000 0.07680  0.72750  0.31390  Biso   1.000  C
  H44      1.0000 0.06660  0.73870  0.25280  Biso   1.000  H
  C56      1.0000 0.91300  0.73700  0.68330  Biso   1.000  C
  H45      1.0000 0.92290  0.75270  0.74310  Biso   1.000  H
  C57      1.0000 0.97540  0.73090  0.62580  Biso   1.000  C
  H46      1.0000 0.02570  0.74070  0.64740  Biso   1.000  H
  C58      1.0000 0.96400  0.70990  0.53430  Biso   1.000  C
  C59      1.0000 0.88830  0.68750  0.51180  Biso   1.000  C
  H47      1.0000 0.87780  0.66760  0.45390  Biso   1.000  H
  C60      1.0000 0.82880  0.69460  0.57400  Biso   1.000  C
  H48      1.0000 0.77870  0.67960  0.55620  Biso   1.000  H
  O31      1.0000 0.67050  0.68230  0.68170  Biso   1.000  O
  O32      1.0000 0.50900  0.62980  0.68190  Biso   1.000  O
  O33      1.0000 0.55890  0.68570  0.53850  Biso   1.000  O
  O34      1.0000 0.62890  0.51990  0.68160  Biso   1.000  O
  O35      1.0000 0.67970  0.57310  0.53670  Biso   1.000  O
  O36      1.0000 0.36710  0.62020  0.62270  Biso   1.000  O
  V21      1.0000 0.61224  0.62203  0.62782  Biso   1.000  V
  V22      1.0000 0.45158  0.68458  0.58916  Biso   1.000  V
  V23      1.0000 0.68837  0.46783  0.58669  Biso   1.000  V
  V24      1.0000 0.42856  0.56536  0.73017  Biso   1.000  V
  N13      1.0000 0.72230  0.16110  0.33940  Biso   1.000  N
  N14      1.0000 0.71410  0.84890  0.65980  Biso   1.000  N
  C61      1.0000 0.69580  0.83590  0.57340  Biso   1.000  C
  H49      1.0000 0.68490  0.78490  0.55520  Biso   1.000  H
  C62      1.0000 0.69230  0.89580  0.50770  Biso   1.000  C
  H50      1.0000 0.68080  0.88400  0.44700  Biso   1.000  H
  C63      1.0000 0.70560  0.97060  0.53310  Biso   1.000  C
  C64      1.0000 0.72490  0.98470  0.62490  Biso   1.000  C
  H51      1.0000 0.73590  0.03530  0.64450  Biso   1.000  H
  C65      1.0000 0.72750  0.92320  0.68610  Biso   1.000  C
  H52      1.0000 0.73870  0.93340  0.74720  Biso   1.000  H
  C66      1.0000 0.73700  0.08700  0.31670  Biso   1.000  C
  H53      1.0000 0.75270  0.07710  0.25690  Biso   1.000  H
  C67      1.0000 0.73090  0.02460  0.37420  Biso   1.000  C
  H54      1.0000 0.74070  0.97430  0.35260  Biso   1.000  H
  C68      1.0000 0.70990  0.03600  0.46570  Biso   1.000  C
  C69      1.0000 0.68750  0.11170  0.48820  Biso   1.000  C
  H55      1.0000 0.66760  0.12220  0.54610  Biso   1.000  H
  C70      1.0000 0.69460  0.17120  0.42600  Biso   1.000  C
  H56      1.0000 0.67960  0.22130  0.44380  Biso   1.000  H
  O37      1.0000 0.68230  0.32950  0.31830  Biso   1.000  O
  O38      1.0000 0.62980  0.49100  0.31810  Biso   1.000  O
  O39      1.0000 0.68570  0.44110  0.46150  Biso   1.000  O
  O40      1.0000 0.51990  0.37110  0.31840  Biso   1.000  O
  O41      1.0000 0.57310  0.32030  0.46330  Biso   1.000  O
  O42      1.0000 0.62020  0.63290  0.37730  Biso   1.000  O
  V25      1.0000 0.62203  0.38776  0.37218  Biso   1.000  V
  V26      1.0000 0.68458  0.54842  0.41084  Biso   1.000  V
  V27      1.0000 0.46783  0.31163  0.41331  Biso   1.000  V
  V28      1.0000 0.56536  0.57144  0.26983  Biso   1.000  V
  N15      1.0000 0.27770  0.83890  0.33940  Biso   1.000  N
  N16      1.0000 0.28590  0.15110  0.65980  Biso   1.000  N
  C71      1.0000 0.30420  0.16410  0.57340  Biso   1.000  C
  H57      1.0000 0.31510  0.21510  0.55520  Biso   1.000  H
  C72      1.0000 0.30770  0.10420  0.50770  Biso   1.000  C
  H58      1.0000 0.31920  0.11600  0.44700  Biso   1.000  H
  C73      1.0000 0.29440  0.02940  0.53310  Biso   1.000  C
  C74      1.0000 0.27510  0.01530  0.62490  Biso   1.000  C
  H59      1.0000 0.26410  0.96470  0.64450  Biso   1.000  H
  C75      1.0000 0.27250  0.07680  0.68610  Biso   1.000  C
  H60      1.0000 0.26130  0.06660  0.74720  Biso   1.000  H
  C76      1.0000 0.26300  0.91300  0.31670  Biso   1.000  C
  H61      1.0000 0.24730  0.92290  0.25690  Biso   1.000  H
  C77      1.0000 0.26910  0.97540  0.37420  Biso   1.000  C
  H62      1.0000 0.25930  0.02570  0.35260  Biso   1.000  H
  C78      1.0000 0.29010  0.96400  0.46570  Biso   1.000  C
  C79      1.0000 0.31250  0.88830  0.48820  Biso   1.000  C
  H63      1.0000 0.33240  0.87780  0.54610  Biso   1.000  H
  C80      1.0000 0.30540  0.82880  0.42600  Biso   1.000  C
  H64      1.0000 0.32040  0.77870  0.44380  Biso   1.000  H
  O43      1.0000 0.31770  0.67050  0.31830  Biso   1.000  O
  O44      1.0000 0.37020  0.50900  0.31810  Biso   1.000  O
  O45      1.0000 0.31430  0.55890  0.46150  Biso   1.000  O
  O46      1.0000 0.48010  0.62890  0.31840  Biso   1.000  O
  O47      1.0000 0.42690  0.67970  0.46330  Biso   1.000  O
  O48      1.0000 0.37980  0.36710  0.37730  Biso   1.000  O
  V29      1.0000 0.37797  0.61224  0.37218  Biso   1.000  V
  V30      1.0000 0.31542  0.45158  0.41084  Biso   1.000  V
  V31      1.0000 0.53217  0.68837  0.41331  Biso   1.000  V
  V32      1.0000 0.43464  0.42856  0.26983  Biso   1.000  V
  O49      1.0000 0.00000  0.00000  0.28320  Biso   1.000  O
  O50      1.0000 0.00000  0.00000  0.71680  Biso   1.000  O
  O51      1.0000 0.50000  0.50000  0.78320  Biso   1.000  O
  O52      1.0000 0.50000  0.50000  0.21680  Biso   1.000  O
  Ni1      1.0000 0.75467  0.25467  0.25000  Biso   1.000  Ni
  Ni2      1.0000 0.24533  0.74533  0.25000  Biso   1.000  Ni
  Ni3      1.0000 0.25467  0.24533  0.75000  Biso   1.000  Ni
  Ni4      1.0000 0.74533  0.75467  0.75000  Biso   1.000  Ni
