data_QAWREM_clean
_audit_creation_date              2014-07-02
_audit_creation_method            'Materials Studio'
_symmetry_space_group_name_H-M    'P1'
_symmetry_Int_Tables_number       1
_symmetry_cell_setting            triclinic
loop_
_symmetry_equiv_pos_as_xyz
  x,y,z
_cell_length_a                    10.5255
_cell_length_b                    11.3271
_cell_length_c                    14.3881
_cell_angle_alpha                 111.3660
_cell_angle_beta                  107.8570
_cell_angle_gamma                 91.3740
loop_
_atom_site_label
_atom_site_type_symbol
_atom_site_fract_x
_atom_site_fract_y
_atom_site_fract_z
_atom_site_U_iso_or_equiv
_atom_site_adp_type
_atom_site_occupancy
Eu1    Eu    0.78409   0.13255   0.89416   0.01267  Uiso   1.00
Eu2    Eu    0.69361   0.98229   0.58120   0.01267  Uiso   1.00
Eu3    Eu    0.21591   0.86745   0.10584   0.01267  Uiso   1.00
Eu4    Eu    0.30639   0.01771   0.41880   0.01267  Uiso   1.00
H1     H     0.86920   0.60690   0.98950   0.01267  Uiso   1.00
H2     H     0.84260   0.46410   0.93980   0.01267  Uiso   1.00
H3     H     0.25400   0.85100   0.51300   0.01267  Uiso   1.00
H4     H     0.10420   0.88300   0.49900   0.01267  Uiso   1.00
H5     H     0.42130   0.43830   0.08890   0.01267  Uiso   1.00
H6     H     0.49320   0.35960   0.01920   0.01267  Uiso   1.00
H7     H     0.63120   0.38190   0.58330   0.01267  Uiso   1.00
H8     H     0.82660   0.73420   0.89420   0.01267  Uiso   1.00
H9     H     0.45110   0.14630   0.85440   0.01267  Uiso   1.00
H10    H     0.26700   0.18290   0.91090   0.01267  Uiso   1.00
H11    H     0.02330   0.96850   0.61460   0.01267  Uiso   1.00
H12    H     0.94490   0.53050   0.20820   0.01267  Uiso   1.00
H13    H     0.53440   0.61620   0.24570   0.01267  Uiso   1.00
H14    H     0.13080   0.39310   0.01050   0.01267  Uiso   1.00
H15    H     0.15740   0.53590   0.06020   0.01267  Uiso   1.00
H16    H     0.74600   0.14900   0.48700   0.01267  Uiso   1.00
H17    H     0.89580   0.11700   0.50100   0.01267  Uiso   1.00
H18    H     0.57870   0.56170   0.91110   0.01267  Uiso   1.00
H19    H     0.50680   0.64040   0.98080   0.01267  Uiso   1.00
H20    H     0.36880   0.61810   0.41670   0.01267  Uiso   1.00
H21    H     0.17340   0.26580   0.10580   0.01267  Uiso   1.00
H22    H     0.54890   0.85370   0.14560   0.01267  Uiso   1.00
H23    H     0.73300   0.81710   0.08910   0.01267  Uiso   1.00
H24    H     0.97670   0.03150   0.38540   0.01267  Uiso   1.00
H25    H     0.05510   0.46950   0.79180   0.01267  Uiso   1.00
H26    H     0.46560   0.38380   0.75430   0.01267  Uiso   1.00
C1     C     0.74110   0.30010   0.73340   0.01267  Uiso   1.00
C2     C     0.73450   0.43320   0.73840   0.01267  Uiso   1.00
C3     C     0.67240   0.45290   0.64610   0.01267  Uiso   1.00
C4     C     0.66920   0.57420   0.64390   0.01267  Uiso   1.00
C5     C     0.73140   0.68120   0.73910   0.01267  Uiso   1.00
C6     C     0.78760   0.66280   0.83130   0.01267  Uiso   1.00
C7     C     0.78870   0.54140   0.83460   0.01267  Uiso   1.00
C8     C     0.73820   0.81420   0.73920   0.01267  Uiso   1.00
C9     C     0.47170   0.01850   0.66900   0.01267  Uiso   1.00
C10    C     0.35080   0.03500   0.70210   0.01267  Uiso   1.00
C11    C     0.36490   0.10980   0.80600   0.01267  Uiso   1.00
C12    C     0.25520   0.13240   0.84050   0.01267  Uiso   1.00
C13    C     0.12710   0.07720   0.76700   0.01267  Uiso   1.00
C14    C     0.11010   0.00300   0.66290   0.01267  Uiso   1.00
C15    C     0.21990   0.97870   0.62860   0.01267  Uiso   1.00
C16    C     0.00470   0.09590   0.80010   0.01267  Uiso   1.00
C17    C     0.72580   0.77080   0.41720   0.01267  Uiso   1.00
C18    C     0.73420   0.66840   0.31840   0.01267  Uiso   1.00
C19    C     0.86040   0.64610   0.30870   0.01267  Uiso   1.00
C20    C     0.86220   0.54700   0.21680   0.01267  Uiso   1.00
C21    C     0.74450   0.47210   0.13750   0.01267  Uiso   1.00
C22    C     0.61860   0.49780   0.14840   0.01267  Uiso   1.00
C23    C     0.61710   0.59690   0.23850   0.01267  Uiso   1.00
C24    C     0.75650   0.36050   0.04700   0.01267  Uiso   1.00
C25    C     0.25890   0.69990   0.26660   0.01267  Uiso   1.00
C26    C     0.26550   0.56680   0.26160   0.01267  Uiso   1.00
C27    C     0.32760   0.54710   0.35390   0.01267  Uiso   1.00
C28    C     0.33080   0.42580   0.35610   0.01267  Uiso   1.00
C29    C     0.26860   0.31880   0.26090   0.01267  Uiso   1.00
C30    C     0.21240   0.33720   0.16870   0.01267  Uiso   1.00
C31    C     0.21130   0.45860   0.16540   0.01267  Uiso   1.00
C32    C     0.26180   0.18580   0.26080   0.01267  Uiso   1.00
C33    C     0.52830   0.98150   0.33100   0.01267  Uiso   1.00
C34    C     0.64920   0.96500   0.29790   0.01267  Uiso   1.00
C35    C     0.63510   0.89020   0.19400   0.01267  Uiso   1.00
C36    C     0.74480   0.86760   0.15950   0.01267  Uiso   1.00
C37    C     0.87290   0.92280   0.23300   0.01267  Uiso   1.00
C38    C     0.88990   0.99700   0.33710   0.01267  Uiso   1.00
C39    C     0.78010   0.02130   0.37140   0.01267  Uiso   1.00
C40    C     0.99530   0.90410   0.19990   0.01267  Uiso   1.00
C41    C     0.27420   0.22920   0.58280   0.01267  Uiso   1.00
C42    C     0.26580   0.33160   0.68160   0.01267  Uiso   1.00
C43    C     0.13960   0.35390   0.69130   0.01267  Uiso   1.00
C44    C     0.13780   0.45300   0.78320   0.01267  Uiso   1.00
C45    C     0.25550   0.52790   0.86250   0.01267  Uiso   1.00
C46    C     0.38140   0.50220   0.85160   0.01267  Uiso   1.00
C47    C     0.38290   0.40310   0.76150   0.01267  Uiso   1.00
C48    C     0.24350   0.63950   0.95300   0.01267  Uiso   1.00
N1     N     0.84000   0.53690   0.93380   0.01267  Uiso   1.00
N2     N     0.19460   0.90860   0.51850   0.01267  Uiso   1.00
N3     N     0.49500   0.42210   0.07620   0.01267  Uiso   1.00
N4     N     0.16000   0.46310   0.06620   0.01267  Uiso   1.00
N5     N     0.80540   0.09140   0.48150   0.01267  Uiso   1.00
N6     N     0.50500   0.57790   0.92380   0.01267  Uiso   1.00
O1     O     0.78220   0.28490   0.81940   0.01267  Uiso   1.00
O2     O     0.70680   0.21010   0.64390   0.01267  Uiso   1.00
O3     O     0.69200   0.82490   0.65180   0.01267  Uiso   1.00
O4     O     0.79350   0.90690   0.82840   0.01267  Uiso   1.00
O5     O     0.58820   0.05590   0.73700   0.01267  Uiso   1.00
O6     O     0.45810   0.96730   0.57090   0.01267  Uiso   1.00
O7     O     0.88880   0.05640   0.72980   0.01267  Uiso   1.00
O8     O     0.01840   0.14600   0.89740   0.01267  Uiso   1.00
O9     O     0.60970   0.79130   0.42170   0.01267  Uiso   1.00
O10    O     0.83040   0.83750   0.49210   0.01267  Uiso   1.00
O11    O     0.87240   0.33470   0.04630   0.01267  Uiso   1.00
O12    O     0.65260   0.29250   0.97350   0.01267  Uiso   1.00
O13    O     0.21780   0.71510   0.18060   0.01267  Uiso   1.00
O14    O     0.29320   0.78990   0.35610   0.01267  Uiso   1.00
O15    O     0.30800   0.17510   0.34820   0.01267  Uiso   1.00
O16    O     0.20650   0.09310   0.17160   0.01267  Uiso   1.00
O17    O     0.41180   0.94410   0.26300   0.01267  Uiso   1.00
O18    O     0.54190   0.03270   0.42910   0.01267  Uiso   1.00
O19    O     0.11120   0.94360   0.27020   0.01267  Uiso   1.00
O20    O     0.98160   0.85400   0.10260   0.01267  Uiso   1.00
O21    O     0.39030   0.20870   0.57830   0.01267  Uiso   1.00
O22    O     0.16960   0.16250   0.50790   0.01267  Uiso   1.00
O23    O     0.12760   0.66530   0.95370   0.01267  Uiso   1.00
O24    O     0.34740   0.70750   0.02650   0.01267  Uiso   1.00
