data_image0
_cell_length_a       10.4852
_cell_length_b       11.1525
_cell_length_c       14.2502
_cell_angle_alpha    111.516
_cell_angle_beta     107.291
_cell_angle_gamma    91.523

_symmetry_space_group_name_H-M    "P 1"
_symmetry_int_tables_number       1

loop_
  _symmetry_equiv_pos_as_xyz
  'x, y, z'

loop_
  _atom_site_label
  _atom_site_occupancy
  _atom_site_fract_x
  _atom_site_fract_y
  _atom_site_fract_z
  _atom_site_thermal_displace_type
  _atom_site_B_iso_or_equiv
  _atom_site_type_symbol
  Yb1      1.0000 0.68736  0.47761  0.07777  Biso   1.000  Yb
  Yb2      1.0000 0.77627  0.62757  0.38825  Biso   1.000  Yb
  O1       1.0000 0.68290  0.32130  0.14440  Biso   1.000  O
  O2       1.0000 0.78250  0.40890  0.32140  Biso   1.000  O
  O3       1.0000 0.78010  0.77950  0.31940  Biso   1.000  O
  O4       1.0000 0.69600  0.69960  0.14160  Biso   1.000  O
  O5       1.0000 0.60570  0.29220  0.92170  Biso   1.000  O
  O6       1.0000 0.82470  0.33520  0.99250  Biso   1.000  O
  O7       1.0000 0.86720  0.82080  0.54140  Biso   1.000  O
  O8       1.0000 0.64850  0.78510  0.46610  Biso   1.000  O
  O9       1.0000 0.46230  0.46920  0.07270  Biso   1.000  O
  O10      1.0000 0.58670  0.55440  0.24150  Biso   1.000  O
  O11      1.0000 0.99880  0.63800  0.38770  Biso   1.000  O
  O12      1.0000 0.87830  0.54940  0.21730  Biso   1.000  O
  N1       1.0000 0.84540  0.03570  0.43090  Biso   1.000  N
  H1       1.0000 0.87440  0.10730  0.48670  Biso   1.000  H
  H2       1.0000 0.85000  0.96210  0.43740  Biso   1.000  H
  N2       1.0000 0.84200  0.26780  0.42400  Biso   1.000  N
  H3       1.0000 0.83770  0.34580  0.42660  Biso   1.000  H
  H4       1.0000 0.88030  0.25540  0.48140  Biso   1.000  H
  N3       1.0000 0.49070  0.91760  0.57120  Biso   1.000  N
  H5       1.0000 0.41680  0.93470  0.58430  Biso   1.000  H
  H6       1.0000 0.48870  0.85450  0.51330  Biso   1.000  H
  N4       1.0000 0.98070  0.19200  0.88480  Biso   1.000  N
  H7       1.0000 0.05230  0.16180  0.87460  Biso   1.000  H
  H8       1.0000 0.98620  0.25390  0.94430  Biso   1.000  H
  N5       1.0000 0.19870  0.41110  0.01460  Biso   1.000  N
  H9       1.0000 0.26660  0.40200  0.99180  Biso   1.000  H
  H10      1.0000 0.11820  0.37930  0.97050  Biso   1.000  H
  N6       1.0000 0.26500  0.69800  0.44510  Biso   1.000  N
  H11      1.0000 0.34570  0.72900  0.48930  Biso   1.000  H
  H12      1.0000 0.19690  0.71270  0.46730  Biso   1.000  H
  C1       1.0000 0.72950  0.31320  0.23300  Biso   1.000  C
  C2       1.0000 0.72570  0.17830  0.23390  Biso   1.000  C
  C3       1.0000 0.65950  0.06950  0.14090  Biso   1.000  C
  H13      1.0000 0.61230  0.07950  0.07840  Biso   1.000  H
  C4       1.0000 0.66460  0.94660  0.14240  Biso   1.000  C
  H14      1.0000 0.62260  0.87430  0.07940  Biso   1.000  H
  C5       1.0000 0.73080  0.92740  0.23510  Biso   1.000  C
  C6       1.0000 0.79140  0.03890  0.33100  Biso   1.000  C
  C7       1.0000 0.78780  0.16260  0.32780  Biso   1.000  C
  C8       1.0000 0.73530  0.79270  0.23150  Biso   1.000  C
  C9       1.0000 0.71910  0.26890  0.91580  Biso   1.000  C
  C10      1.0000 0.73180  0.16540  0.81790  Biso   1.000  C
  C11      1.0000 0.61350  0.09380  0.73670  Biso   1.000  C
  H15      1.0000 0.53070  0.11390  0.74430  Biso   1.000  H
  C12      1.0000 0.61570  0.99350  0.64490  Biso   1.000  C
  C13      1.0000 0.74120  0.96520  0.63370  Biso   1.000  C
  C14      1.0000 0.85910  0.04190  0.71380  Biso   1.000  C
  H16      1.0000 0.94230  0.02580  0.70490  Biso   1.000  H
  C15      1.0000 0.85590  0.14010  0.80500  Biso   1.000  C
  C16      1.0000 0.75300  0.85180  0.54200  Biso   1.000  C
  C17      1.0000 0.47190  0.51830  0.17090  Biso   1.000  C
  C18      1.0000 0.34750  0.53280  0.20140  Biso   1.000  C
  C19      1.0000 0.21970  0.47830  0.12480  Biso   1.000  C
  C20      1.0000 0.10530  0.50170  0.15690  Biso   1.000  C
  H17      1.0000 0.01960  0.46870  0.10630  Biso   1.000  H
  C21      1.0000 0.11780  0.57230  0.26140  Biso   1.000  C
  C22      1.0000 0.24490  0.62520  0.33830  Biso   1.000  C
  C23      1.0000 0.35800  0.60430  0.30630  Biso   1.000  C
  H18      1.0000 0.44330  0.63950  0.35700  Biso   1.000  H
  C24      1.0000 0.99170  0.58870  0.29110  Biso   1.000  C
  Yb3      1.0000 0.31264  0.52239  0.92223  Biso   1.000  Yb
  Yb4      1.0000 0.22373  0.37243  0.61175  Biso   1.000  Yb
  O13      1.0000 0.31710  0.67870  0.85560  Biso   1.000  O
  O14      1.0000 0.21750  0.59110  0.67860  Biso   1.000  O
  O15      1.0000 0.21990  0.22050  0.68060  Biso   1.000  O
  O16      1.0000 0.30400  0.30040  0.85840  Biso   1.000  O
  O17      1.0000 0.39430  0.70780  0.07830  Biso   1.000  O
  O18      1.0000 0.17530  0.66480  0.00750  Biso   1.000  O
  O19      1.0000 0.13280  0.17920  0.45860  Biso   1.000  O
  O20      1.0000 0.35150  0.21490  0.53390  Biso   1.000  O
  O21      1.0000 0.53770  0.53080  0.92730  Biso   1.000  O
  O22      1.0000 0.41330  0.44560  0.75850  Biso   1.000  O
  O23      1.0000 0.00120  0.36200  0.61230  Biso   1.000  O
  O24      1.0000 0.12170  0.45060  0.78270  Biso   1.000  O
  N7       1.0000 0.15460  0.96430  0.56910  Biso   1.000  N
  H19      1.0000 0.12560  0.89270  0.51330  Biso   1.000  H
  H20      1.0000 0.15000  0.03790  0.56260  Biso   1.000  H
  N8       1.0000 0.15800  0.73220  0.57600  Biso   1.000  N
  H21      1.0000 0.16230  0.65420  0.57340  Biso   1.000  H
  H22      1.0000 0.11970  0.74460  0.51860  Biso   1.000  H
  N9       1.0000 0.50930  0.08240  0.42880  Biso   1.000  N
  H23      1.0000 0.58320  0.06530  0.41570  Biso   1.000  H
  H24      1.0000 0.51130  0.14550  0.48670  Biso   1.000  H
  N10      1.0000 0.01930  0.80800  0.11520  Biso   1.000  N
  H25      1.0000 0.94770  0.83820  0.12540  Biso   1.000  H
  H26      1.0000 0.01380  0.74610  0.05570  Biso   1.000  H
  N11      1.0000 0.80130  0.58890  0.98540  Biso   1.000  N
  H27      1.0000 0.73340  0.59800  0.00820  Biso   1.000  H
  H28      1.0000 0.88180  0.62070  0.02950  Biso   1.000  H
  N12      1.0000 0.73500  0.30200  0.55490  Biso   1.000  N
  H29      1.0000 0.65430  0.27100  0.51070  Biso   1.000  H
  H30      1.0000 0.80310  0.28730  0.53270  Biso   1.000  H
  C25      1.0000 0.27050  0.68680  0.76700  Biso   1.000  C
  C26      1.0000 0.27430  0.82170  0.76610  Biso   1.000  C
  C27      1.0000 0.34050  0.93050  0.85910  Biso   1.000  C
  H31      1.0000 0.38770  0.92050  0.92160  Biso   1.000  H
  C28      1.0000 0.33540  0.05340  0.85760  Biso   1.000  C
  H32      1.0000 0.37740  0.12570  0.92060  Biso   1.000  H
  C29      1.0000 0.26920  0.07260  0.76490  Biso   1.000  C
  C30      1.0000 0.20860  0.96110  0.66900  Biso   1.000  C
  C31      1.0000 0.21220  0.83740  0.67220  Biso   1.000  C
  C32      1.0000 0.26470  0.20730  0.76850  Biso   1.000  C
  C33      1.0000 0.28090  0.73110  0.08420  Biso   1.000  C
  C34      1.0000 0.26820  0.83460  0.18210  Biso   1.000  C
  C35      1.0000 0.38650  0.90620  0.26330  Biso   1.000  C
  H33      1.0000 0.46930  0.88610  0.25570  Biso   1.000  H
  C36      1.0000 0.38430  0.00650  0.35510  Biso   1.000  C
  C37      1.0000 0.25880  0.03480  0.36630  Biso   1.000  C
  C38      1.0000 0.14090  0.95810  0.28620  Biso   1.000  C
  H34      1.0000 0.05770  0.97420  0.29510  Biso   1.000  H
  C39      1.0000 0.14410  0.85990  0.19500  Biso   1.000  C
  C40      1.0000 0.24700  0.14820  0.45800  Biso   1.000  C
  C41      1.0000 0.52810  0.48170  0.82910  Biso   1.000  C
  C42      1.0000 0.65250  0.46720  0.79860  Biso   1.000  C
  C43      1.0000 0.78030  0.52170  0.87520  Biso   1.000  C
  C44      1.0000 0.89470  0.49830  0.84310  Biso   1.000  C
  H35      1.0000 0.98040  0.53130  0.89370  Biso   1.000  H
  C45      1.0000 0.88220  0.42770  0.73860  Biso   1.000  C
  C46      1.0000 0.75510  0.37480  0.66170  Biso   1.000  C
  C47      1.0000 0.64200  0.39570  0.69370  Biso   1.000  C
  H36      1.0000 0.55670  0.36050  0.64300  Biso   1.000  H
  C48      1.0000 0.00830  0.41130  0.70890  Biso   1.000  C
