data_image0
_cell_length_a       17.2023
_cell_length_b       17.2023
_cell_length_c       13.3086
_cell_angle_alpha    90
_cell_angle_beta     90
_cell_angle_gamma    90

_symmetry_space_group_name_H-M    "P 1"
_symmetry_int_tables_number       1

loop_
  _symmetry_equiv_pos_as_xyz
  'x, y, z'

loop_
  _atom_site_label
  _atom_site_occupancy
  _atom_site_fract_x
  _atom_site_fract_y
  _atom_site_fract_z
  _atom_site_thermal_displace_type
  _atom_site_B_iso_or_equiv
  _atom_site_type_symbol
  P1       1.0000 0.67420  0.41960  0.95120  Biso   1.000  P
  P2       1.0000 0.82320  0.40820  0.61510  Biso   1.000  P
  P3       1.0000 0.60440  0.18330  0.87620  Biso   1.000  P
  P4       1.0000 0.59200  0.33430  0.54940  Biso   1.000  P
  F1       1.0000 0.73060  0.24220  0.64620  Biso   1.000  F
  F2       1.0000 0.76440  0.27620  0.85310  Biso   1.000  F
  O1       1.0000 0.69880  0.35330  0.01910  Biso   1.000  O
  O2       1.0000 0.61320  0.46790  0.00380  Biso   1.000  O
  O3       1.0000 0.54150  0.39140  0.49310  Biso   1.000  O
  O4       1.0000 0.65230  0.19960  0.96880  Biso   1.000  O
  O5       1.0000 0.62280  0.36420  0.64900  Biso   1.000  O
  O6       1.0000 0.61410  0.24190  0.79220  Biso   1.000  O
  O7       1.0000 0.53890  0.26280  0.57890  Biso   1.000  O
  O8       1.0000 0.64990  0.39360  0.84630  Biso   1.000  O
  O9       1.0000 0.78020  0.38700  0.70920  Biso   1.000  O
  O10      1.0000 0.51850  0.17930  0.90680  Biso   1.000  O
  O11      1.0000 0.65500  0.30520  0.47890  Biso   1.000  O
  O12      1.0000 0.62820  0.10280  0.82990  Biso   1.000  O
  O13      1.0000 0.74750  0.47400  0.93080  Biso   1.000  O
  O14      1.0000 0.80720  0.35490  0.52560  Biso   1.000  O
  O15      1.0000 0.91040  0.41020  0.63940  Biso   1.000  O
  O16      1.0000 0.80310  0.49150  0.58660  Biso   1.000  O
  Fe1      1.0000 0.69320  0.31790  0.74920  Biso   1.000  Fe
  Fe2      1.0000 0.75310  0.25400  0.99930  Biso   1.000  Fe
  P5       1.0000 0.32580  0.58040  0.95120  Biso   1.000  P
  P6       1.0000 0.17680  0.59180  0.61510  Biso   1.000  P
  P7       1.0000 0.39560  0.81670  0.87620  Biso   1.000  P
  P8       1.0000 0.40800  0.66570  0.54940  Biso   1.000  P
  F3       1.0000 0.26940  0.75780  0.64620  Biso   1.000  F
  F4       1.0000 0.23560  0.72380  0.85310  Biso   1.000  F
  O17      1.0000 0.30120  0.64670  0.01910  Biso   1.000  O
  O18      1.0000 0.38680  0.53210  0.00380  Biso   1.000  O
  O19      1.0000 0.45850  0.60860  0.49310  Biso   1.000  O
  O20      1.0000 0.34770  0.80040  0.96880  Biso   1.000  O
  O21      1.0000 0.37720  0.63580  0.64900  Biso   1.000  O
  O22      1.0000 0.38590  0.75810  0.79220  Biso   1.000  O
  O23      1.0000 0.46110  0.73720  0.57890  Biso   1.000  O
  O24      1.0000 0.35010  0.60640  0.84630  Biso   1.000  O
  O25      1.0000 0.21980  0.61300  0.70920  Biso   1.000  O
  O26      1.0000 0.48150  0.82070  0.90680  Biso   1.000  O
  O27      1.0000 0.34500  0.69480  0.47890  Biso   1.000  O
  O28      1.0000 0.37180  0.89720  0.82990  Biso   1.000  O
  O29      1.0000 0.25250  0.52600  0.93080  Biso   1.000  O
  O30      1.0000 0.19280  0.64510  0.52560  Biso   1.000  O
  O31      1.0000 0.08960  0.58980  0.63940  Biso   1.000  O
  O32      1.0000 0.19690  0.50850  0.58660  Biso   1.000  O
  Fe3      1.0000 0.30680  0.68210  0.74920  Biso   1.000  Fe
  Fe4      1.0000 0.24690  0.74600  0.99930  Biso   1.000  Fe
  P9       1.0000 0.41960  0.32580  0.04880  Biso   1.000  P
  P10      1.0000 0.40820  0.17680  0.38490  Biso   1.000  P
  P11      1.0000 0.18330  0.39560  0.12380  Biso   1.000  P
  P12      1.0000 0.33430  0.40800  0.45060  Biso   1.000  P
  F5       1.0000 0.24220  0.26940  0.35380  Biso   1.000  F
  F6       1.0000 0.27620  0.23560  0.14690  Biso   1.000  F
  O33      1.0000 0.35330  0.30120  0.98090  Biso   1.000  O
  O34      1.0000 0.46790  0.38680  0.99620  Biso   1.000  O
  O35      1.0000 0.39140  0.45850  0.50690  Biso   1.000  O
  O36      1.0000 0.19960  0.34770  0.03120  Biso   1.000  O
  O37      1.0000 0.36420  0.37720  0.35100  Biso   1.000  O
  O38      1.0000 0.24190  0.38590  0.20780  Biso   1.000  O
  O39      1.0000 0.26280  0.46110  0.42110  Biso   1.000  O
  O40      1.0000 0.39360  0.35010  0.15370  Biso   1.000  O
  O41      1.0000 0.38700  0.21980  0.29080  Biso   1.000  O
  O42      1.0000 0.17930  0.48150  0.09320  Biso   1.000  O
  O43      1.0000 0.30520  0.34500  0.52110  Biso   1.000  O
  O44      1.0000 0.10280  0.37180  0.17010  Biso   1.000  O
  O45      1.0000 0.47400  0.25250  0.06920  Biso   1.000  O
  O46      1.0000 0.35490  0.19280  0.47440  Biso   1.000  O
  O47      1.0000 0.41020  0.08960  0.36060  Biso   1.000  O
  O48      1.0000 0.49150  0.19690  0.41340  Biso   1.000  O
  Fe5      1.0000 0.31790  0.30680  0.25080  Biso   1.000  Fe
  Fe6      1.0000 0.25400  0.24690  0.00070  Biso   1.000  Fe
  P13      1.0000 0.58040  0.67420  0.04880  Biso   1.000  P
  P14      1.0000 0.59180  0.82320  0.38490  Biso   1.000  P
  P15      1.0000 0.81670  0.60440  0.12380  Biso   1.000  P
  P16      1.0000 0.66570  0.59200  0.45060  Biso   1.000  P
  F7       1.0000 0.75780  0.73060  0.35380  Biso   1.000  F
  F8       1.0000 0.72380  0.76440  0.14690  Biso   1.000  F
  O49      1.0000 0.64670  0.69880  0.98090  Biso   1.000  O
  O50      1.0000 0.53210  0.61320  0.99620  Biso   1.000  O
  O51      1.0000 0.60860  0.54150  0.50690  Biso   1.000  O
  O52      1.0000 0.80040  0.65230  0.03120  Biso   1.000  O
  O53      1.0000 0.63580  0.62280  0.35100  Biso   1.000  O
  O54      1.0000 0.75810  0.61410  0.20780  Biso   1.000  O
  O55      1.0000 0.73720  0.53890  0.42110  Biso   1.000  O
  O56      1.0000 0.60640  0.64990  0.15370  Biso   1.000  O
  O57      1.0000 0.61300  0.78020  0.29080  Biso   1.000  O
  O58      1.0000 0.82070  0.51850  0.09320  Biso   1.000  O
  O59      1.0000 0.69480  0.65500  0.52110  Biso   1.000  O
  O60      1.0000 0.89720  0.62820  0.17010  Biso   1.000  O
  O61      1.0000 0.52600  0.74750  0.06920  Biso   1.000  O
  O62      1.0000 0.64510  0.80720  0.47440  Biso   1.000  O
  O63      1.0000 0.58980  0.91040  0.36060  Biso   1.000  O
  O64      1.0000 0.50850  0.80310  0.41340  Biso   1.000  O
  Fe7      1.0000 0.68210  0.69320  0.25080  Biso   1.000  Fe
  Fe8      1.0000 0.74600  0.75310  0.00070  Biso   1.000  Fe
  P17      1.0000 0.82580  0.91960  0.54880  Biso   1.000  P
  P18      1.0000 0.67680  0.90820  0.88490  Biso   1.000  P
  P19      1.0000 0.89560  0.68330  0.62380  Biso   1.000  P
  P20      1.0000 0.90800  0.83430  0.95060  Biso   1.000  P
  F9       1.0000 0.76940  0.74220  0.85380  Biso   1.000  F
  F10      1.0000 0.73560  0.77620  0.64690  Biso   1.000  F
  O65      1.0000 0.80120  0.85330  0.48090  Biso   1.000  O
  O66      1.0000 0.88680  0.96790  0.49620  Biso   1.000  O
  O67      1.0000 0.95850  0.89140  0.00690  Biso   1.000  O
  O68      1.0000 0.84770  0.69960  0.53120  Biso   1.000  O
  O69      1.0000 0.87720  0.86420  0.85100  Biso   1.000  O
  O70      1.0000 0.88590  0.74190  0.70780  Biso   1.000  O
  O71      1.0000 0.96110  0.76280  0.92110  Biso   1.000  O
  O72      1.0000 0.85010  0.89360  0.65370  Biso   1.000  O
  O73      1.0000 0.71980  0.88700  0.79080  Biso   1.000  O
  O74      1.0000 0.98150  0.67930  0.59320  Biso   1.000  O
  O75      1.0000 0.84500  0.80520  0.02110  Biso   1.000  O
  O76      1.0000 0.87180  0.60280  0.67010  Biso   1.000  O
  O77      1.0000 0.75250  0.97400  0.56920  Biso   1.000  O
  O78      1.0000 0.69280  0.85490  0.97440  Biso   1.000  O
  O79      1.0000 0.58960  0.91020  0.86060  Biso   1.000  O
  O80      1.0000 0.69690  0.99150  0.91340  Biso   1.000  O
  Fe9      1.0000 0.80680  0.81790  0.75080  Biso   1.000  Fe
  Fe10     1.0000 0.74690  0.75400  0.50070  Biso   1.000  Fe
  P21      1.0000 0.17420  0.08040  0.54880  Biso   1.000  P
  P22      1.0000 0.32320  0.09180  0.88490  Biso   1.000  P
  P23      1.0000 0.10440  0.31670  0.62380  Biso   1.000  P
  P24      1.0000 0.09200  0.16570  0.95060  Biso   1.000  P
  F11      1.0000 0.23060  0.25780  0.85380  Biso   1.000  F
  F12      1.0000 0.26440  0.22380  0.64690  Biso   1.000  F
  O81      1.0000 0.19880  0.14670  0.48090  Biso   1.000  O
  O82      1.0000 0.11320  0.03210  0.49620  Biso   1.000  O
  O83      1.0000 0.04150  0.10860  0.00690  Biso   1.000  O
  O84      1.0000 0.15230  0.30040  0.53120  Biso   1.000  O
  O85      1.0000 0.12280  0.13580  0.85100  Biso   1.000  O
  O86      1.0000 0.11410  0.25810  0.70780  Biso   1.000  O
  O87      1.0000 0.03890  0.23720  0.92110  Biso   1.000  O
  O88      1.0000 0.14990  0.10640  0.65370  Biso   1.000  O
  O89      1.0000 0.28020  0.11300  0.79080  Biso   1.000  O
  O90      1.0000 0.01850  0.32070  0.59320  Biso   1.000  O
  O91      1.0000 0.15500  0.19480  0.02110  Biso   1.000  O
  O92      1.0000 0.12820  0.39720  0.67010  Biso   1.000  O
  O93      1.0000 0.24750  0.02600  0.56920  Biso   1.000  O
  O94      1.0000 0.30720  0.14510  0.97440  Biso   1.000  O
  O95      1.0000 0.41040  0.08980  0.86060  Biso   1.000  O
  O96      1.0000 0.30310  0.00850  0.91340  Biso   1.000  O
  Fe11     1.0000 0.19320  0.18210  0.75080  Biso   1.000  Fe
  Fe12     1.0000 0.25310  0.24600  0.50070  Biso   1.000  Fe
  P25      1.0000 0.08040  0.82580  0.45120  Biso   1.000  P
  P26      1.0000 0.09180  0.67680  0.11510  Biso   1.000  P
  P27      1.0000 0.31670  0.89560  0.37620  Biso   1.000  P
  P28      1.0000 0.16570  0.90800  0.04940  Biso   1.000  P
  F13      1.0000 0.25780  0.76940  0.14620  Biso   1.000  F
  F14      1.0000 0.22380  0.73560  0.35310  Biso   1.000  F
  O97      1.0000 0.14670  0.80120  0.51910  Biso   1.000  O
  O98      1.0000 0.03210  0.88680  0.50380  Biso   1.000  O
  O99      1.0000 0.10860  0.95850  0.99310  Biso   1.000  O
  O100     1.0000 0.30040  0.84770  0.46880  Biso   1.000  O
  O101     1.0000 0.13580  0.87720  0.14900  Biso   1.000  O
  O102     1.0000 0.25810  0.88590  0.29220  Biso   1.000  O
  O103     1.0000 0.23720  0.96110  0.07890  Biso   1.000  O
  O104     1.0000 0.10640  0.85010  0.34630  Biso   1.000  O
  O105     1.0000 0.11300  0.71980  0.20920  Biso   1.000  O
  O106     1.0000 0.32070  0.98150  0.40680  Biso   1.000  O
  O107     1.0000 0.19480  0.84500  0.97890  Biso   1.000  O
  O108     1.0000 0.39720  0.87180  0.32990  Biso   1.000  O
  O109     1.0000 0.02600  0.75250  0.43080  Biso   1.000  O
  O110     1.0000 0.14510  0.69280  0.02560  Biso   1.000  O
  O111     1.0000 0.08980  0.58960  0.13940  Biso   1.000  O
  O112     1.0000 0.00850  0.69690  0.08660  Biso   1.000  O
  Fe13     1.0000 0.18210  0.80680  0.24920  Biso   1.000  Fe
  Fe14     1.0000 0.24600  0.74690  0.49930  Biso   1.000  Fe
  P29      1.0000 0.91960  0.17420  0.45120  Biso   1.000  P
  P30      1.0000 0.90820  0.32320  0.11510  Biso   1.000  P
  P31      1.0000 0.68330  0.10440  0.37620  Biso   1.000  P
  P32      1.0000 0.83430  0.09200  0.04940  Biso   1.000  P
  F15      1.0000 0.74220  0.23060  0.14620  Biso   1.000  F
  F16      1.0000 0.77620  0.26440  0.35310  Biso   1.000  F
  O113     1.0000 0.85330  0.19880  0.51910  Biso   1.000  O
  O114     1.0000 0.96790  0.11320  0.50380  Biso   1.000  O
  O115     1.0000 0.89140  0.04150  0.99310  Biso   1.000  O
  O116     1.0000 0.69960  0.15230  0.46880  Biso   1.000  O
  O117     1.0000 0.86420  0.12280  0.14900  Biso   1.000  O
  O118     1.0000 0.74190  0.11410  0.29220  Biso   1.000  O
  O119     1.0000 0.76280  0.03890  0.07890  Biso   1.000  O
  O120     1.0000 0.89360  0.14990  0.34630  Biso   1.000  O
  O121     1.0000 0.88700  0.28020  0.20920  Biso   1.000  O
  O122     1.0000 0.67930  0.01850  0.40680  Biso   1.000  O
  O123     1.0000 0.80520  0.15500  0.97890  Biso   1.000  O
  O124     1.0000 0.60280  0.12820  0.32990  Biso   1.000  O
  O125     1.0000 0.97400  0.24750  0.43080  Biso   1.000  O
  O126     1.0000 0.85490  0.30720  0.02560  Biso   1.000  O
  O127     1.0000 0.91020  0.41040  0.13940  Biso   1.000  O
  O128     1.0000 0.99150  0.30310  0.08660  Biso   1.000  O
  Fe15     1.0000 0.81790  0.19320  0.24920  Biso   1.000  Fe
  Fe16     1.0000 0.75400  0.25310  0.49930  Biso   1.000  Fe
  Fe17     1.0000 0.50000  0.50000  0.00000  Biso   1.000  Fe
  Fe18     1.0000 0.00000  0.00000  0.50000  Biso   1.000  Fe
  Fe19     1.0000 0.50000  0.50000  0.50000  Biso   1.000  Fe
  Fe20     1.0000 0.00000  0.00000  0.00000  Biso   1.000  Fe
