data_QAYTOZ_charged
_audit_creation_date              2014-07-02
_audit_creation_method            'Materials Studio'
_symmetry_space_group_name_H-M    'P1'
_symmetry_Int_Tables_number       1
_symmetry_cell_setting            triclinic
loop_
_symmetry_equiv_pos_as_xyz
  x,y,z
_cell_length_a                    12.8560
_cell_length_b                    13.0970
_cell_length_c                    18.0020
_cell_angle_alpha                 93.6090
_cell_angle_beta                  99.8870
_cell_angle_gamma                 91.4410
loop_
_atom_site_label
_atom_site_type_symbol
_atom_site_fract_x
_atom_site_fract_y
_atom_site_fract_z
_atom_site_U_iso_or_equiv
_atom_site_adp_type
_atom_site_occupancy
Mn1    Mn    0.74180   0.78380   0.74815   0.01267  Uiso   1.00
Mn2    Mn    0.25820   0.21620   0.25185   0.01267  Uiso   1.00
H1     H     0.02720   0.51790   0.74530   0.01267  Uiso   1.00
H2     H     0.76900   0.74860   0.02920   0.01267  Uiso   1.00
H3     H     0.64750   0.72960   0.45930   0.01267  Uiso   1.00
H4     H     0.96120   0.10700   0.74270   0.01267  Uiso   1.00
H5     H     0.49910   0.47130   0.75490   0.01267  Uiso   1.00
H6     H     0.45820   0.04340   0.77510   0.01267  Uiso   1.00
H7     H     0.08380   0.67640   0.78450   0.01267  Uiso   1.00
H8     H     0.00730   0.76660   0.76730   0.01267  Uiso   1.00
H9     H     0.01030   0.71050   0.84200   0.01267  Uiso   1.00
H10    H     0.82860   0.48020   0.66560   0.01267  Uiso   1.00
H11    H     0.92060   0.40290   0.67170   0.01267  Uiso   1.00
H12    H     0.80040   0.44610   0.78730   0.01267  Uiso   1.00
H13    H     0.89470   0.37130   0.79560   0.01267  Uiso   1.00
H14    H     0.80030   0.26330   0.69430   0.01267  Uiso   1.00
H15    H     0.70520   0.33690   0.68950   0.01267  Uiso   1.00
H16    H     0.60750   0.81870   0.91130   0.01267  Uiso   1.00
H17    H     0.67060   0.87280   0.98630   0.01267  Uiso   1.00
H18    H     0.67990   0.91590   0.90830   0.01267  Uiso   1.00
H19    H     0.93540   0.68820   0.04790   0.01267  Uiso   1.00
H20    H     0.94870   0.71650   0.96640   0.01267  Uiso   1.00
H21    H     0.83290   0.54830   0.99980   0.01267  Uiso   1.00
H22    H     0.83320   0.57890   0.91710   0.01267  Uiso   1.00
H23    H     0.02410   0.55550   0.94170   0.01267  Uiso   1.00
H24    H     0.95290   0.45510   0.93010   0.01267  Uiso   1.00
H25    H     0.82210   0.75070   0.50580   0.01267  Uiso   1.00
H26    H     0.86060   0.78240   0.59180   0.01267  Uiso   1.00
H27    H     0.82860   0.66780   0.56540   0.01267  Uiso   1.00
H28    H     0.47590   0.70140   0.47470   0.01267  Uiso   1.00
H29    H     0.50220   0.76000   0.55480   0.01267  Uiso   1.00
H30    H     0.50210   0.86010   0.42090   0.01267  Uiso   1.00
H31    H     0.40230   0.85540   0.45990   0.01267  Uiso   1.00
H32    H     0.49580   0.94930   0.56670   0.01267  Uiso   1.00
H33    H     0.59600   0.95370   0.52780   0.01267  Uiso   1.00
H34    H     0.84120   0.07960   0.63950   0.01267  Uiso   1.00
H35    H     0.85200   0.96830   0.60500   0.01267  Uiso   1.00
H36    H     0.75320   0.99540   0.64180   0.01267  Uiso   1.00
H37    H     0.03480   0.95030   0.82680   0.01267  Uiso   1.00
H38    H     0.07920   0.06360   0.83970   0.01267  Uiso   1.00
H39    H     0.94910   0.10930   0.90540   0.01267  Uiso   1.00
H40    H     0.89140   0.00140   0.88540   0.01267  Uiso   1.00
H41    H     0.09350   0.03400   0.97870   0.01267  Uiso   1.00
H42    H     0.04080   0.92470   0.95610   0.01267  Uiso   1.00
H43    H     0.57900   0.48210   0.65660   0.01267  Uiso   1.00
H44    H     0.52710   0.58270   0.62820   0.01267  Uiso   1.00
H45    H     0.65040   0.57800   0.64790   0.01267  Uiso   1.00
H46    H     0.43370   0.56780   0.85460   0.01267  Uiso   1.00
H47    H     0.54620   0.62220   0.87430   0.01267  Uiso   1.00
H48    H     0.49630   0.41880   0.89140   0.01267  Uiso   1.00
H49    H     0.61340   0.45750   0.89530   0.01267  Uiso   1.00
H50    H     0.57560   0.57950   0.00020   0.01267  Uiso   1.00
H51    H     0.60370   0.46670   0.01900   0.01267  Uiso   1.00
H52    H     0.39920   0.89890   0.71700   0.01267  Uiso   1.00
H53    H     0.47640   0.82790   0.68110   0.01267  Uiso   1.00
H54    H     0.45880   0.81460   0.76400   0.01267  Uiso   1.00
H55    H     0.57220   0.15810   0.84350   0.01267  Uiso   1.00
H56    H     0.66400   0.08220   0.84050   0.01267  Uiso   1.00
H57    H     0.67130   0.12370   0.71720   0.01267  Uiso   1.00
H58    H     0.58040   0.20060   0.72100   0.01267  Uiso   1.00
H59    H     0.68870   0.30170   0.81460   0.01267  Uiso   1.00
H60    H     0.77890   0.22340   0.81500   0.01267  Uiso   1.00
H61    H     0.97280   0.48210   0.25470   0.01267  Uiso   1.00
H62    H     0.23100   0.25140   0.97080   0.01267  Uiso   1.00
H63    H     0.35250   0.27040   0.54070   0.01267  Uiso   1.00
H64    H     0.03880   0.89300   0.25730   0.01267  Uiso   1.00
H65    H     0.50090   0.52870   0.24510   0.01267  Uiso   1.00
H66    H     0.54180   0.95660   0.22490   0.01267  Uiso   1.00
H67    H     0.91620   0.32360   0.21550   0.01267  Uiso   1.00
H68    H     0.99270   0.23340   0.23270   0.01267  Uiso   1.00
H69    H     0.98970   0.28950   0.15800   0.01267  Uiso   1.00
H70    H     0.17140   0.51980   0.33440   0.01267  Uiso   1.00
H71    H     0.07940   0.59710   0.32830   0.01267  Uiso   1.00
H72    H     0.19960   0.55390   0.21270   0.01267  Uiso   1.00
H73    H     0.10530   0.62870   0.20440   0.01267  Uiso   1.00
H74    H     0.19970   0.73670   0.30570   0.01267  Uiso   1.00
H75    H     0.29480   0.66310   0.31050   0.01267  Uiso   1.00
H76    H     0.39250   0.18130   0.08870   0.01267  Uiso   1.00
H77    H     0.32940   0.12720   0.01370   0.01267  Uiso   1.00
H78    H     0.32010   0.08410   0.09170   0.01267  Uiso   1.00
H79    H     0.06460   0.31180   0.95210   0.01267  Uiso   1.00
H80    H     0.05130   0.28350   0.03360   0.01267  Uiso   1.00
H81    H     0.16710   0.45170   0.00020   0.01267  Uiso   1.00
H82    H     0.16680   0.42110   0.08290   0.01267  Uiso   1.00
H83    H     0.97590   0.44450   0.05830   0.01267  Uiso   1.00
H84    H     0.04710   0.54490   0.06990   0.01267  Uiso   1.00
H85    H     0.17790   0.24930   0.49420   0.01267  Uiso   1.00
H86    H     0.13940   0.21760   0.40820   0.01267  Uiso   1.00
H87    H     0.17140   0.33220   0.43460   0.01267  Uiso   1.00
H88    H     0.52410   0.29860   0.52530   0.01267  Uiso   1.00
H89    H     0.49780   0.24000   0.44520   0.01267  Uiso   1.00
H90    H     0.49790   0.13990   0.57910   0.01267  Uiso   1.00
H91    H     0.59770   0.14460   0.54010   0.01267  Uiso   1.00
H92    H     0.50420   0.05070   0.43330   0.01267  Uiso   1.00
H93    H     0.40400   0.04630   0.47220   0.01267  Uiso   1.00
H94    H     0.15880   0.92040   0.36050   0.01267  Uiso   1.00
H95    H     0.14800   0.03170   0.39500   0.01267  Uiso   1.00
H96    H     0.24680   0.00460   0.35820   0.01267  Uiso   1.00
H97    H     0.96520   0.04970   0.17320   0.01267  Uiso   1.00
H98    H     0.92080   0.93640   0.16030   0.01267  Uiso   1.00
H99    H     0.05090   0.89070   0.09460   0.01267  Uiso   1.00
H100   H     0.10860   0.99860   0.11460   0.01267  Uiso   1.00
H101   H     0.90650   0.96600   0.02130   0.01267  Uiso   1.00
H102   H     0.95920   0.07530   0.04390   0.01267  Uiso   1.00
H103   H     0.42100   0.51790   0.34340   0.01267  Uiso   1.00
H104   H     0.47290   0.41730   0.37180   0.01267  Uiso   1.00
H105   H     0.34960   0.42200   0.35210   0.01267  Uiso   1.00
H106   H     0.56630   0.43220   0.14540   0.01267  Uiso   1.00
H107   H     0.45380   0.37780   0.12570   0.01267  Uiso   1.00
H108   H     0.50370   0.58120   0.10860   0.01267  Uiso   1.00
H109   H     0.38660   0.54250   0.10470   0.01267  Uiso   1.00
H110   H     0.42440   0.42050   0.99980   0.01267  Uiso   1.00
H111   H     0.39630   0.53330   0.98100   0.01267  Uiso   1.00
H112   H     0.60080   0.10110   0.28300   0.01267  Uiso   1.00
H113   H     0.52360   0.17210   0.31890   0.01267  Uiso   1.00
H114   H     0.54120   0.18540   0.23600   0.01267  Uiso   1.00
H115   H     0.42780   0.84190   0.15650   0.01267  Uiso   1.00
H116   H     0.33600   0.91780   0.15950   0.01267  Uiso   1.00
H117   H     0.32870   0.87630   0.28280   0.01267  Uiso   1.00
H118   H     0.41960   0.79940   0.27900   0.01267  Uiso   1.00
H119   H     0.31130   0.69830   0.18540   0.01267  Uiso   1.00
H120   H     0.22110   0.77660   0.18500   0.01267  Uiso   1.00
C1     C     0.93120   0.62720   0.74970   0.01267  Uiso   1.00
C2     C     0.76040   0.79020   0.92800   0.01267  Uiso   1.00
C3     C     0.70210   0.75700   0.56540   0.01267  Uiso   1.00
C4     C     0.88400   0.98000   0.71830   0.01267  Uiso   1.00
C5     C     0.58170   0.59200   0.74000   0.01267  Uiso   1.00
C6     C     0.55410   0.93890   0.75630   0.01267  Uiso   1.00
C7     C     0.01570   0.70190   0.78940   0.01267  Uiso   1.00
C8     C     0.88500   0.45200   0.70030   0.01267  Uiso   1.00
C9     C     0.83820   0.39770   0.75990   0.01267  Uiso   1.00
C10    C     0.76330   0.31010   0.72360   0.01267  Uiso   1.00
C11    C     0.67220   0.85490   0.93400   0.01267  Uiso   1.00
C12    C     0.90070   0.68580   0.99550   0.01267  Uiso   1.00
C13    C     0.87530   0.57990   0.96730   0.01267  Uiso   1.00
C14    C     0.97380   0.51580   0.96370   0.01267  Uiso   1.00
C15    C     0.81330   0.73780   0.55630   0.01267  Uiso   1.00
C16    C     0.51580   0.75910   0.50340   0.01267  Uiso   1.00
C17    C     0.47890   0.85680   0.46920   0.01267  Uiso   1.00
C18    C     0.51940   0.95170   0.51840   0.01267  Uiso   1.00
C19    C     0.82770   0.00830   0.64480   0.01267  Uiso   1.00
C20    C     0.01480   0.02110   0.83060   0.01267  Uiso   1.00
C21    C     0.96000   0.03690   0.89620   0.01267  Uiso   1.00
C22    C     0.02630   0.99590   0.96700   0.01267  Uiso   1.00
C23    C     0.58490   0.55550   0.66130   0.01267  Uiso   1.00
C24    C     0.50840   0.55840   0.85520   0.01267  Uiso   1.00
C25    C     0.54450   0.47780   0.90460   0.01267  Uiso   1.00
C26    C     0.55250   0.50820   0.98970   0.01267  Uiso   1.00
C27    C     0.46390   0.86320   0.72700   0.01267  Uiso   1.00
C28    C     0.60370   0.11160   0.81030   0.01267  Uiso   1.00
C29    C     0.64070   0.17040   0.75070   0.01267  Uiso   1.00
C30    C     0.72060   0.25320   0.78310   0.01267  Uiso   1.00
C31    C     0.06880   0.37280   0.25030   0.01267  Uiso   1.00
C32    C     0.23960   0.20980   0.07200   0.01267  Uiso   1.00
C33    C     0.29790   0.24300   0.43460   0.01267  Uiso   1.00
C34    C     0.11600   0.02000   0.28170   0.01267  Uiso   1.00
C35    C     0.41830   0.40800   0.26000   0.01267  Uiso   1.00
C36    C     0.44590   0.06110   0.24370   0.01267  Uiso   1.00
C37    C     0.98430   0.29810   0.21060   0.01267  Uiso   1.00
C38    C     0.11500   0.54800   0.29970   0.01267  Uiso   1.00
C39    C     0.16180   0.60230   0.24010   0.01267  Uiso   1.00
C40    C     0.23670   0.68990   0.27640   0.01267  Uiso   1.00
C41    C     0.32780   0.14510   0.06600   0.01267  Uiso   1.00
C42    C     0.09930   0.31420   0.00450   0.01267  Uiso   1.00
C43    C     0.12470   0.42010   0.03270   0.01267  Uiso   1.00
C44    C     0.02620   0.48420   0.03630   0.01267  Uiso   1.00
C45    C     0.18670   0.26220   0.44370   0.01267  Uiso   1.00
C46    C     0.48420   0.24090   0.49660   0.01267  Uiso   1.00
C47    C     0.52110   0.14320   0.53080   0.01267  Uiso   1.00
C48    C     0.48060   0.04830   0.48160   0.01267  Uiso   1.00
C49    C     0.17230   0.99170   0.35520   0.01267  Uiso   1.00
C50    C     0.98520   0.97890   0.16940   0.01267  Uiso   1.00
C51    C     0.04000   0.96310   0.10380   0.01267  Uiso   1.00
C52    C     0.97370   0.00410   0.03300   0.01267  Uiso   1.00
C53    C     0.41510   0.44450   0.33870   0.01267  Uiso   1.00
C54    C     0.49160   0.44160   0.14480   0.01267  Uiso   1.00
C55    C     0.45550   0.52220   0.09540   0.01267  Uiso   1.00
C56    C     0.44750   0.49180   0.01030   0.01267  Uiso   1.00
C57    C     0.53610   0.13680   0.27300   0.01267  Uiso   1.00
C58    C     0.39630   0.88840   0.18970   0.01267  Uiso   1.00
C59    C     0.35930   0.82960   0.24930   0.01267  Uiso   1.00
C60    C     0.27940   0.74680   0.21690   0.01267  Uiso   1.00
N1     N     0.95850   0.53250   0.73410   0.01267  Uiso   1.00
N2     N     0.80230   0.74420   0.98910   0.01267  Uiso   1.00
N3     N     0.62710   0.74620   0.50380   0.01267  Uiso   1.00
N4     N     0.95240   0.04450   0.75950   0.01267  Uiso   1.00
N5     N     0.52640   0.53140   0.77800   0.01267  Uiso   1.00
N6     N     0.52730   0.03060   0.77910   0.01267  Uiso   1.00
N7     N     0.04150   0.46750   0.26590   0.01267  Uiso   1.00
N8     N     0.19770   0.25580   0.01090   0.01267  Uiso   1.00
N9     N     0.37290   0.25380   0.49620   0.01267  Uiso   1.00
N10    N     0.04760   0.95550   0.24050   0.01267  Uiso   1.00
N11    N     0.47360   0.46860   0.22200   0.01267  Uiso   1.00
N12    N     0.47270   0.96940   0.22090   0.01267  Uiso   1.00
O1     O     0.83840   0.65330   0.72840   0.01267  Uiso   1.00
O2     O     0.79880   0.78280   0.86880   0.01267  Uiso   1.00
O3     O     0.67850   0.77940   0.62770   0.01267  Uiso   1.00
O4     O     0.86750   0.89270   0.74030   0.01267  Uiso   1.00
O5     O     0.62130   0.67460   0.76980   0.01267  Uiso   1.00
O6     O     0.64660   0.91670   0.76010   0.01267  Uiso   1.00
O7     O     0.16160   0.34670   0.27160   0.01267  Uiso   1.00
O8     O     0.20120   0.21720   0.13120   0.01267  Uiso   1.00
O9     O     0.32150   0.22060   0.37230   0.01267  Uiso   1.00
O10    O     0.13250   0.10730   0.25970   0.01267  Uiso   1.00
O11    O     0.37870   0.32540   0.23020   0.01267  Uiso   1.00
O12    O     0.35340   0.08330   0.23990   0.01267  Uiso   1.00
Hg1    Hg    0.76767   0.71260   0.24304   0.01267  Uiso   1.00
Br1    Br    0.61380   0.67621   0.31928   0.01267  Uiso   1.00
Br2    Br    0.93588   0.77083   0.33977   0.01267  Uiso   1.00
Br3    Br    0.69290   0.84870   0.15135   0.01267  Uiso   1.00
Br4    Br    0.80010   0.54360   0.17002   0.01267  Uiso   1.00
Hg2    Hg    0.23233   0.28740   0.75696   0.01267  Uiso   1.00
Br5    Br    0.38620   0.32379   0.68072   0.01267  Uiso   1.00
Br6    Br    0.06412   0.22917   0.66023   0.01267  Uiso   1.00
Br7    Br    0.30710   0.15130   0.84865   0.01267  Uiso   1.00
Br8    Br    0.19990   0.45640   0.82998   0.01267  Uiso   1.00
