data_image0
_cell_length_a       15.76
_cell_length_b       15.76
_cell_length_c       15.76
_cell_angle_alpha    90
_cell_angle_beta     90
_cell_angle_gamma    90

_symmetry_space_group_name_H-M    "P 1"
_symmetry_int_tables_number       1

loop_
  _symmetry_equiv_pos_as_xyz
  'x, y, z'

loop_
  _atom_site_label
  _atom_site_occupancy
  _atom_site_fract_x
  _atom_site_fract_y
  _atom_site_fract_z
  _atom_site_thermal_displace_type
  _atom_site_B_iso_or_equiv
  _atom_site_type_symbol
  N1       1.0000 0.41160  0.82050  0.19400  Biso   1.000  N
  C1       1.0000 0.39140  0.89920  0.21380  Biso   1.000  C
  H1       1.0000 0.42030  0.92610  0.25770  Biso   1.000  H
  N2       1.0000 0.08840  0.67950  0.19400  Biso   1.000  N
  C2       1.0000 0.10860  0.60080  0.21380  Biso   1.000  C
  H2       1.0000 0.07970  0.57390  0.25770  Biso   1.000  H
  N3       1.0000 0.08840  0.82050  0.30600  Biso   1.000  N
  C3       1.0000 0.10860  0.89920  0.28620  Biso   1.000  C
  H3       1.0000 0.07970  0.92610  0.24230  Biso   1.000  H
  N4       1.0000 0.41160  0.67950  0.30600  Biso   1.000  N
  C4       1.0000 0.39140  0.60080  0.28620  Biso   1.000  C
  H4       1.0000 0.42030  0.57390  0.24230  Biso   1.000  H
  N5       1.0000 0.19400  0.41160  0.82050  Biso   1.000  N
  C5       1.0000 0.21380  0.39140  0.89920  Biso   1.000  C
  H5       1.0000 0.25770  0.42030  0.92610  Biso   1.000  H
  N6       1.0000 0.19400  0.08840  0.67950  Biso   1.000  N
  C6       1.0000 0.21380  0.10860  0.60080  Biso   1.000  C
  H6       1.0000 0.25770  0.07970  0.57390  Biso   1.000  H
  N7       1.0000 0.30600  0.08840  0.82050  Biso   1.000  N
  C7       1.0000 0.28620  0.10860  0.89920  Biso   1.000  C
  H7       1.0000 0.24230  0.07970  0.92610  Biso   1.000  H
  N8       1.0000 0.30600  0.41160  0.67950  Biso   1.000  N
  C8       1.0000 0.28620  0.39140  0.60080  Biso   1.000  C
  H8       1.0000 0.24230  0.42030  0.57390  Biso   1.000  H
  N9       1.0000 0.82050  0.19400  0.41160  Biso   1.000  N
  C9       1.0000 0.89920  0.21380  0.39140  Biso   1.000  C
  H9       1.0000 0.92610  0.25770  0.42030  Biso   1.000  H
  N10      1.0000 0.67950  0.19400  0.08840  Biso   1.000  N
  C10      1.0000 0.60080  0.21380  0.10860  Biso   1.000  C
  H10      1.0000 0.57390  0.25770  0.07970  Biso   1.000  H
  N11      1.0000 0.82050  0.30600  0.08840  Biso   1.000  N
  C11      1.0000 0.89920  0.28620  0.10860  Biso   1.000  C
  H11      1.0000 0.92610  0.24230  0.07970  Biso   1.000  H
  N12      1.0000 0.67950  0.30600  0.41160  Biso   1.000  N
  C12      1.0000 0.60080  0.28620  0.39140  Biso   1.000  C
  H12      1.0000 0.57390  0.24230  0.42030  Biso   1.000  H
  N13      1.0000 0.32050  0.91160  0.80600  Biso   1.000  N
  C13      1.0000 0.39920  0.89140  0.78620  Biso   1.000  C
  H13      1.0000 0.42610  0.92030  0.74230  Biso   1.000  H
  N14      1.0000 0.17950  0.58840  0.80600  Biso   1.000  N
  C14      1.0000 0.10080  0.60860  0.78620  Biso   1.000  C
  H14      1.0000 0.07390  0.57970  0.74230  Biso   1.000  H
  N15      1.0000 0.32050  0.58840  0.69400  Biso   1.000  N
  C15      1.0000 0.39920  0.60860  0.71380  Biso   1.000  C
  H15      1.0000 0.42610  0.57970  0.75770  Biso   1.000  H
  N16      1.0000 0.17950  0.91160  0.69400  Biso   1.000  N
  C16      1.0000 0.10080  0.89140  0.71380  Biso   1.000  C
  H16      1.0000 0.07390  0.92030  0.75770  Biso   1.000  H
  N17      1.0000 0.91160  0.69400  0.17950  Biso   1.000  N
  C17      1.0000 0.89140  0.71380  0.10080  Biso   1.000  C
  H17      1.0000 0.92030  0.75770  0.07390  Biso   1.000  H
  N18      1.0000 0.58840  0.69400  0.32050  Biso   1.000  N
  C18      1.0000 0.60860  0.71380  0.39920  Biso   1.000  C
  H18      1.0000 0.57970  0.75770  0.42610  Biso   1.000  H
  N19      1.0000 0.58840  0.80600  0.17950  Biso   1.000  N
  C19      1.0000 0.60860  0.78620  0.10080  Biso   1.000  C
  H19      1.0000 0.57970  0.74230  0.07390  Biso   1.000  H
  N20      1.0000 0.91160  0.80600  0.32050  Biso   1.000  N
  C20      1.0000 0.89140  0.78620  0.39920  Biso   1.000  C
  H20      1.0000 0.92030  0.74230  0.42610  Biso   1.000  H
  N21      1.0000 0.69400  0.32050  0.58840  Biso   1.000  N
  C21      1.0000 0.71380  0.39920  0.60860  Biso   1.000  C
  H21      1.0000 0.75770  0.42610  0.57970  Biso   1.000  H
  N22      1.0000 0.69400  0.17950  0.91160  Biso   1.000  N
  C22      1.0000 0.71380  0.10080  0.89140  Biso   1.000  C
  H22      1.0000 0.75770  0.07390  0.92030  Biso   1.000  H
  N23      1.0000 0.80600  0.32050  0.91160  Biso   1.000  N
  C23      1.0000 0.78620  0.39920  0.89140  Biso   1.000  C
  H23      1.0000 0.74230  0.42610  0.92030  Biso   1.000  H
  N24      1.0000 0.80600  0.17950  0.58840  Biso   1.000  N
  C24      1.0000 0.78620  0.10080  0.60860  Biso   1.000  C
  H24      1.0000 0.74230  0.07390  0.57970  Biso   1.000  H
  N25      1.0000 0.58840  0.17950  0.80600  Biso   1.000  N
  C25      1.0000 0.60860  0.10080  0.78620  Biso   1.000  C
  H25      1.0000 0.57970  0.07390  0.74230  Biso   1.000  H
  N26      1.0000 0.91160  0.32050  0.80600  Biso   1.000  N
  C26      1.0000 0.89140  0.39920  0.78620  Biso   1.000  C
  H26      1.0000 0.92030  0.42610  0.74230  Biso   1.000  H
  N27      1.0000 0.91160  0.17950  0.69400  Biso   1.000  N
  C27      1.0000 0.89140  0.10080  0.71380  Biso   1.000  C
  H27      1.0000 0.92030  0.07390  0.75770  Biso   1.000  H
  N28      1.0000 0.58840  0.32050  0.69400  Biso   1.000  N
  C28      1.0000 0.60860  0.39920  0.71380  Biso   1.000  C
  H28      1.0000 0.57970  0.42610  0.75770  Biso   1.000  H
  N29      1.0000 0.80600  0.58840  0.17950  Biso   1.000  N
  C29      1.0000 0.78620  0.60860  0.10080  Biso   1.000  C
  H29      1.0000 0.74230  0.57970  0.07390  Biso   1.000  H
  N30      1.0000 0.80600  0.91160  0.32050  Biso   1.000  N
  C30      1.0000 0.78620  0.89140  0.39920  Biso   1.000  C
  H30      1.0000 0.74230  0.92030  0.42610  Biso   1.000  H
  N31      1.0000 0.69400  0.91160  0.17950  Biso   1.000  N
  C31      1.0000 0.71380  0.89140  0.10080  Biso   1.000  C
  H31      1.0000 0.75770  0.92030  0.07390  Biso   1.000  H
  N32      1.0000 0.69400  0.58840  0.32050  Biso   1.000  N
  C32      1.0000 0.71380  0.60860  0.39920  Biso   1.000  C
  H32      1.0000 0.75770  0.57970  0.42610  Biso   1.000  H
  N33      1.0000 0.17950  0.80600  0.58840  Biso   1.000  N
  C33      1.0000 0.10080  0.78620  0.60860  Biso   1.000  C
  H33      1.0000 0.07390  0.74230  0.57970  Biso   1.000  H
  N34      1.0000 0.32050  0.80600  0.91160  Biso   1.000  N
  C34      1.0000 0.39920  0.78620  0.89140  Biso   1.000  C
  H34      1.0000 0.42610  0.74230  0.92030  Biso   1.000  H
  N35      1.0000 0.17950  0.69400  0.91160  Biso   1.000  N
  C35      1.0000 0.10080  0.71380  0.89140  Biso   1.000  C
  H35      1.0000 0.07390  0.75770  0.92030  Biso   1.000  H
  N36      1.0000 0.32050  0.69400  0.58840  Biso   1.000  N
  C36      1.0000 0.39920  0.71380  0.60860  Biso   1.000  C
  H36      1.0000 0.42610  0.75770  0.57970  Biso   1.000  H
  N37      1.0000 0.67950  0.08840  0.19400  Biso   1.000  N
  C37      1.0000 0.60080  0.10860  0.21380  Biso   1.000  C
  H37      1.0000 0.57390  0.07970  0.25770  Biso   1.000  H
  N38      1.0000 0.82050  0.41160  0.19400  Biso   1.000  N
  C38      1.0000 0.89920  0.39140  0.21380  Biso   1.000  C
  H38      1.0000 0.92610  0.42030  0.25770  Biso   1.000  H
  N39      1.0000 0.67950  0.41160  0.30600  Biso   1.000  N
  C39      1.0000 0.60080  0.39140  0.28620  Biso   1.000  C
  H39      1.0000 0.57390  0.42030  0.24230  Biso   1.000  H
  N40      1.0000 0.82050  0.08840  0.30600  Biso   1.000  N
  C40      1.0000 0.89920  0.10860  0.28620  Biso   1.000  C
  H40      1.0000 0.92610  0.07970  0.24230  Biso   1.000  H
  N41      1.0000 0.08840  0.30600  0.82050  Biso   1.000  N
  C41      1.0000 0.10860  0.28620  0.89920  Biso   1.000  C
  H41      1.0000 0.07970  0.24230  0.92610  Biso   1.000  H
  N42      1.0000 0.41160  0.30600  0.67950  Biso   1.000  N
  C42      1.0000 0.39140  0.28620  0.60080  Biso   1.000  C
  H42      1.0000 0.42030  0.24230  0.57390  Biso   1.000  H
  N43      1.0000 0.41160  0.19400  0.82050  Biso   1.000  N
  C43      1.0000 0.39140  0.21380  0.89920  Biso   1.000  C
  H43      1.0000 0.42030  0.25770  0.92610  Biso   1.000  H
  N44      1.0000 0.08840  0.19400  0.67950  Biso   1.000  N
  C44      1.0000 0.10860  0.21380  0.60080  Biso   1.000  C
  H44      1.0000 0.07970  0.25770  0.57390  Biso   1.000  H
  N45      1.0000 0.30600  0.67950  0.41160  Biso   1.000  N
  C45      1.0000 0.28620  0.60080  0.39140  Biso   1.000  C
  H45      1.0000 0.24230  0.57390  0.42030  Biso   1.000  H
  N46      1.0000 0.30600  0.82050  0.08840  Biso   1.000  N
  C46      1.0000 0.28620  0.89920  0.10860  Biso   1.000  C
  H46      1.0000 0.24230  0.92610  0.07970  Biso   1.000  H
  N47      1.0000 0.19400  0.67950  0.08840  Biso   1.000  N
  C47      1.0000 0.21380  0.60080  0.10860  Biso   1.000  C
  H47      1.0000 0.25770  0.57390  0.07970  Biso   1.000  H
  N48      1.0000 0.19400  0.82050  0.41160  Biso   1.000  N
  C48      1.0000 0.21380  0.89920  0.39140  Biso   1.000  C
  H48      1.0000 0.25770  0.92610  0.42030  Biso   1.000  H
  Cu1      1.0000 0.50000  0.75000  0.25000  Biso   1.000  Cu
  Cu2      1.0000 0.00000  0.75000  0.25000  Biso   1.000  Cu
  Cu3      1.0000 0.25000  0.50000  0.75000  Biso   1.000  Cu
  Cu4      1.0000 0.25000  0.00000  0.75000  Biso   1.000  Cu
  Cu5      1.0000 0.75000  0.25000  0.50000  Biso   1.000  Cu
  Cu6      1.0000 0.75000  0.25000  0.00000  Biso   1.000  Cu
  Cu7      1.0000 0.50000  0.25000  0.75000  Biso   1.000  Cu
  Cu8      1.0000 0.00000  0.25000  0.75000  Biso   1.000  Cu
  Cu9      1.0000 0.75000  0.50000  0.25000  Biso   1.000  Cu
  Cu10     1.0000 0.75000  0.00000  0.25000  Biso   1.000  Cu
  Cu11     1.0000 0.25000  0.75000  0.50000  Biso   1.000  Cu
  Cu12     1.0000 0.25000  0.75000  0.00000  Biso   1.000  Cu
  C49      1.0000 0.37220  0.78120  0.12780  Biso   1.000  C
  O1       1.0000 0.39580  0.70920  0.10420  Biso   1.000  O
  C50      1.0000 0.32870  0.94270  0.17130  Biso   1.000  C
  H49      1.0000 0.31400  0.99700  0.18600  Biso   1.000  H
  C51      1.0000 0.12780  0.71880  0.12780  Biso   1.000  C
  O2       1.0000 0.10420  0.79080  0.10420  Biso   1.000  O
  C52      1.0000 0.17130  0.55730  0.17130  Biso   1.000  C
  H50      1.0000 0.18600  0.50300  0.18600  Biso   1.000  H
  C53      1.0000 0.12780  0.78120  0.37220  Biso   1.000  C
  O3       1.0000 0.10420  0.70920  0.39580  Biso   1.000  O
  C54      1.0000 0.17130  0.94270  0.32870  Biso   1.000  C
  H51      1.0000 0.18600  0.99700  0.31400  Biso   1.000  H
  C55      1.0000 0.37220  0.71880  0.37220  Biso   1.000  C
  O4       1.0000 0.39580  0.79080  0.39580  Biso   1.000  O
  C56      1.0000 0.32870  0.55730  0.32870  Biso   1.000  C
  H52      1.0000 0.31400  0.50300  0.31400  Biso   1.000  H
  C57      1.0000 0.12780  0.37220  0.78120  Biso   1.000  C
  O5       1.0000 0.10420  0.39580  0.70920  Biso   1.000  O
  C58      1.0000 0.17130  0.32870  0.94270  Biso   1.000  C
  H53      1.0000 0.18600  0.31400  0.99700  Biso   1.000  H
  C59      1.0000 0.12780  0.12780  0.71880  Biso   1.000  C
  O6       1.0000 0.10420  0.10420  0.79080  Biso   1.000  O
  C60      1.0000 0.17130  0.17130  0.55730  Biso   1.000  C
  H54      1.0000 0.18600  0.18600  0.50300  Biso   1.000  H
  C61      1.0000 0.37220  0.12780  0.78120  Biso   1.000  C
  O7       1.0000 0.39580  0.10420  0.70920  Biso   1.000  O
  C62      1.0000 0.32870  0.17130  0.94270  Biso   1.000  C
  H55      1.0000 0.31400  0.18600  0.99700  Biso   1.000  H
  C63      1.0000 0.37220  0.37220  0.71880  Biso   1.000  C
  O8       1.0000 0.39580  0.39580  0.79080  Biso   1.000  O
  C64      1.0000 0.32870  0.32870  0.55730  Biso   1.000  C
  H56      1.0000 0.31400  0.31400  0.50300  Biso   1.000  H
  C65      1.0000 0.78120  0.12780  0.37220  Biso   1.000  C
  O9       1.0000 0.70920  0.10420  0.39580  Biso   1.000  O
  C66      1.0000 0.94270  0.17130  0.32870  Biso   1.000  C
  H57      1.0000 0.99700  0.18600  0.31400  Biso   1.000  H
  C67      1.0000 0.71880  0.12780  0.12780  Biso   1.000  C
  O10      1.0000 0.79080  0.10420  0.10420  Biso   1.000  O
  C68      1.0000 0.55730  0.17130  0.17130  Biso   1.000  C
  H58      1.0000 0.50300  0.18600  0.18600  Biso   1.000  H
  C69      1.0000 0.78120  0.37220  0.12780  Biso   1.000  C
  O11      1.0000 0.70920  0.39580  0.10420  Biso   1.000  O
  C70      1.0000 0.94270  0.32870  0.17130  Biso   1.000  C
  H59      1.0000 0.99700  0.31400  0.18600  Biso   1.000  H
  C71      1.0000 0.71880  0.37220  0.37220  Biso   1.000  C
  O12      1.0000 0.79080  0.39580  0.39580  Biso   1.000  O
  C72      1.0000 0.55730  0.32870  0.32870  Biso   1.000  C
  H60      1.0000 0.50300  0.31400  0.31400  Biso   1.000  H
  C73      1.0000 0.28120  0.87220  0.87220  Biso   1.000  C
  O13      1.0000 0.20920  0.89580  0.89580  Biso   1.000  O
  C74      1.0000 0.44270  0.82870  0.82870  Biso   1.000  C
  H61      1.0000 0.49700  0.81400  0.81400  Biso   1.000  H
  C75      1.0000 0.21880  0.62780  0.87220  Biso   1.000  C
  O14      1.0000 0.29080  0.60420  0.89580  Biso   1.000  O
  C76      1.0000 0.05730  0.67130  0.82870  Biso   1.000  C
  H62      1.0000 0.00300  0.68600  0.81400  Biso   1.000  H
  C77      1.0000 0.28120  0.62780  0.62780  Biso   1.000  C
  O15      1.0000 0.20920  0.60420  0.60420  Biso   1.000  O
  C78      1.0000 0.44270  0.67130  0.67130  Biso   1.000  C
  H63      1.0000 0.49700  0.68600  0.68600  Biso   1.000  H
  C79      1.0000 0.21880  0.87220  0.62780  Biso   1.000  C
  O16      1.0000 0.29080  0.89580  0.60420  Biso   1.000  O
  C80      1.0000 0.05730  0.82870  0.67130  Biso   1.000  C
  H64      1.0000 0.00300  0.81400  0.68600  Biso   1.000  H
  C81      1.0000 0.87220  0.62780  0.21880  Biso   1.000  C
  O17      1.0000 0.89580  0.60420  0.29080  Biso   1.000  O
  C82      1.0000 0.82870  0.67130  0.05730  Biso   1.000  C
  H65      1.0000 0.81400  0.68600  0.00300  Biso   1.000  H
  C83      1.0000 0.62780  0.62780  0.28120  Biso   1.000  C
  O18      1.0000 0.60420  0.60420  0.20920  Biso   1.000  O
  C84      1.0000 0.67130  0.67130  0.44270  Biso   1.000  C
  H66      1.0000 0.68600  0.68600  0.49700  Biso   1.000  H
  C85      1.0000 0.62780  0.87220  0.21880  Biso   1.000  C
  O19      1.0000 0.60420  0.89580  0.29080  Biso   1.000  O
  C86      1.0000 0.67130  0.82870  0.05730  Biso   1.000  C
  H67      1.0000 0.68600  0.81400  0.00300  Biso   1.000  H
  C87      1.0000 0.87220  0.87220  0.28120  Biso   1.000  C
  O20      1.0000 0.89580  0.89580  0.20920  Biso   1.000  O
  C88      1.0000 0.82870  0.82870  0.44270  Biso   1.000  C
  H68      1.0000 0.81400  0.81400  0.49700  Biso   1.000  H
  C89      1.0000 0.62780  0.28120  0.62780  Biso   1.000  C
  O21      1.0000 0.60420  0.20920  0.60420  Biso   1.000  O
  C90      1.0000 0.67130  0.44270  0.67130  Biso   1.000  C
  H69      1.0000 0.68600  0.49700  0.68600  Biso   1.000  H
  C91      1.0000 0.62780  0.21880  0.87220  Biso   1.000  C
  O22      1.0000 0.60420  0.29080  0.89580  Biso   1.000  O
  C92      1.0000 0.67130  0.05730  0.82870  Biso   1.000  C
  H70      1.0000 0.68600  0.00300  0.81400  Biso   1.000  H
  C93      1.0000 0.87220  0.28120  0.87220  Biso   1.000  C
  O23      1.0000 0.89580  0.20920  0.89580  Biso   1.000  O
  C94      1.0000 0.82870  0.44270  0.82870  Biso   1.000  C
  H71      1.0000 0.81400  0.49700  0.81400  Biso   1.000  H
  C95      1.0000 0.87220  0.21880  0.62780  Biso   1.000  C
  O24      1.0000 0.89580  0.29080  0.60420  Biso   1.000  O
  C96      1.0000 0.82870  0.05730  0.67130  Biso   1.000  C
  H72      1.0000 0.81400  0.00300  0.68600  Biso   1.000  H
