data_image0
_cell_length_a       42.68
_cell_length_b       42.68
_cell_length_c       16.66
_cell_angle_alpha    90
_cell_angle_beta     90
_cell_angle_gamma    120

_symmetry_space_group_name_H-M    "P 1"
_symmetry_int_tables_number       1

loop_
  _symmetry_equiv_pos_as_xyz
  'x, y, z'

loop_
  _atom_site_label
  _atom_site_occupancy
  _atom_site_fract_x
  _atom_site_fract_y
  _atom_site_fract_z
  _atom_site_thermal_displace_type
  _atom_site_B_iso_or_equiv
  _atom_site_type_symbol
  C1       1.0000 0.14880  0.65310  0.96090  Biso   1.000  C
  H1       1.0000 0.13130  0.63530  0.92780  Biso   1.000  H
  C2       1.0000 0.22640  0.74200  0.74660  Biso   1.000  C
  H2       1.0000 0.21220  0.73040  0.70210  Biso   1.000  H
  C3       1.0000 0.21899  0.72969  0.82870  Biso   1.000  C
  C4       1.0000 0.08625  0.59325  0.63290  Biso   1.000  C
  O1       1.0000 0.05392  0.58510  0.64720  Biso   1.000  O
  O2       1.0000 0.09719  0.57946  0.58060  Biso   1.000  O
  C5       1.0000 0.14944  0.62884  0.68810  Biso   1.000  C
  H3       1.0000 0.15590  0.61570  0.65430  Biso   1.000  H
  C6       1.0000 0.11470  0.62280  0.68520  Biso   1.000  C
  C7       1.0000 0.16490  0.67150  0.79090  Biso   1.000  C
  C8       1.0000 0.17477  0.65347  0.73890  Biso   1.000  C
  H4       1.0000 0.19840  0.65790  0.73800  Biso   1.000  H
  C9       1.0000 0.10440  0.64170  0.73240  Biso   1.000  C
  H5       1.0000 0.08110  0.63810  0.72920  Biso   1.000  H
  C10      1.0000 0.18120  0.68590  0.93470  Biso   1.000  C
  C11      1.0000 0.18990  0.69610  0.85550  Biso   1.000  C
  C12      1.0000 0.13030  0.66770  0.78750  Biso   1.000  C
  H6       1.0000 0.12420  0.68150  0.82010  Biso   1.000  H
  C13      1.0000 0.34690  0.49570  0.96090  Biso   1.000  C
  H7       1.0000 0.36470  0.49600  0.92780  Biso   1.000  H
  C14      1.0000 0.25800  0.48440  0.74660  Biso   1.000  C
  H8       1.0000 0.26960  0.48180  0.70210  Biso   1.000  H
  C15      1.0000 0.27031  0.48930  0.82870  Biso   1.000  C
  C16      1.0000 0.40675  0.49300  0.63290  Biso   1.000  C
  O3       1.0000 0.41490  0.46882  0.64720  Biso   1.000  O
  O4       1.0000 0.42054  0.51773  0.58060  Biso   1.000  O
  C17      1.0000 0.37116  0.52060  0.68810  Biso   1.000  C
  H9       1.0000 0.38430  0.54020  0.65430  Biso   1.000  H
  C18      1.0000 0.37720  0.49190  0.68520  Biso   1.000  C
  C19      1.0000 0.32850  0.49340  0.79090  Biso   1.000  C
  C20      1.0000 0.34653  0.52130  0.73890  Biso   1.000  C
  H10      1.0000 0.34210  0.54050  0.73800  Biso   1.000  H
  C21      1.0000 0.35830  0.46270  0.73240  Biso   1.000  C
  H11      1.0000 0.36190  0.44300  0.72920  Biso   1.000  H
  C22      1.0000 0.31410  0.49530  0.93470  Biso   1.000  C
  C23      1.0000 0.30390  0.49380  0.85550  Biso   1.000  C
  C24      1.0000 0.33230  0.46260  0.78750  Biso   1.000  C
  H12      1.0000 0.31850  0.44270  0.82010  Biso   1.000  H
  C25      1.0000 0.50430  0.85120  0.96090  Biso   1.000  C
  H13      1.0000 0.50400  0.86870  0.92780  Biso   1.000  H
  C26      1.0000 0.51560  0.77360  0.74660  Biso   1.000  C
  H14      1.0000 0.51820  0.78780  0.70210  Biso   1.000  H
  C27      1.0000 0.51070  0.78101  0.82870  Biso   1.000  C
  C28      1.0000 0.50700  0.91375  0.63290  Biso   1.000  C
  O5       1.0000 0.53118  0.94608  0.64720  Biso   1.000  O
  O6       1.0000 0.48227  0.90281  0.58060  Biso   1.000  O
  C29      1.0000 0.47940  0.85056  0.68810  Biso   1.000  C
  H15      1.0000 0.45980  0.84410  0.65430  Biso   1.000  H
  C30      1.0000 0.50810  0.88530  0.68520  Biso   1.000  C
  C31      1.0000 0.50660  0.83510  0.79090  Biso   1.000  C
  C32      1.0000 0.47870  0.82523  0.73890  Biso   1.000  C
  H16      1.0000 0.45950  0.80160  0.73800  Biso   1.000  H
  C33      1.0000 0.53730  0.89560  0.73240  Biso   1.000  C
  H17      1.0000 0.55700  0.91890  0.72920  Biso   1.000  H
  C34      1.0000 0.50470  0.81880  0.93470  Biso   1.000  C
  C35      1.0000 0.50620  0.81010  0.85550  Biso   1.000  C
  C36      1.0000 0.53740  0.86970  0.78750  Biso   1.000  C
  H18      1.0000 0.55730  0.87580  0.82010  Biso   1.000  H
  C37      1.0000 0.85120  0.34690  0.96090  Biso   1.000  C
  H19      1.0000 0.86870  0.36470  0.92780  Biso   1.000  H
  C38      1.0000 0.77360  0.25800  0.74660  Biso   1.000  C
  H20      1.0000 0.78780  0.26960  0.70210  Biso   1.000  H
  C39      1.0000 0.78101  0.27031  0.82870  Biso   1.000  C
  C40      1.0000 0.91375  0.40675  0.63290  Biso   1.000  C
  O7       1.0000 0.94608  0.41490  0.64720  Biso   1.000  O
  O8       1.0000 0.90281  0.42054  0.58060  Biso   1.000  O
  C41      1.0000 0.85056  0.37116  0.68810  Biso   1.000  C
  H21      1.0000 0.84410  0.38430  0.65430  Biso   1.000  H
  C42      1.0000 0.88530  0.37720  0.68520  Biso   1.000  C
  C43      1.0000 0.83510  0.32850  0.79090  Biso   1.000  C
  C44      1.0000 0.82523  0.34653  0.73890  Biso   1.000  C
  H22      1.0000 0.80160  0.34210  0.73800  Biso   1.000  H
  C45      1.0000 0.89560  0.35830  0.73240  Biso   1.000  C
  H23      1.0000 0.91890  0.36190  0.72920  Biso   1.000  H
  C46      1.0000 0.81880  0.31410  0.93470  Biso   1.000  C
  C47      1.0000 0.81010  0.30390  0.85550  Biso   1.000  C
  C48      1.0000 0.86970  0.33230  0.78750  Biso   1.000  C
  H24      1.0000 0.87580  0.31850  0.82010  Biso   1.000  H
  C49      1.0000 0.65310  0.50430  0.96090  Biso   1.000  C
  H25      1.0000 0.63530  0.50400  0.92780  Biso   1.000  H
  C50      1.0000 0.74200  0.51560  0.74660  Biso   1.000  C
  H26      1.0000 0.73040  0.51820  0.70210  Biso   1.000  H
  C51      1.0000 0.72969  0.51070  0.82870  Biso   1.000  C
  C52      1.0000 0.59325  0.50700  0.63290  Biso   1.000  C
  O9       1.0000 0.58510  0.53118  0.64720  Biso   1.000  O
  O10      1.0000 0.57946  0.48227  0.58060  Biso   1.000  O
  C53      1.0000 0.62884  0.47940  0.68810  Biso   1.000  C
  H27      1.0000 0.61570  0.45980  0.65430  Biso   1.000  H
  C54      1.0000 0.62280  0.50810  0.68520  Biso   1.000  C
  C55      1.0000 0.67150  0.50660  0.79090  Biso   1.000  C
  C56      1.0000 0.65347  0.47870  0.73890  Biso   1.000  C
  H28      1.0000 0.65790  0.45950  0.73800  Biso   1.000  H
  C57      1.0000 0.64170  0.53730  0.73240  Biso   1.000  C
  H29      1.0000 0.63810  0.55700  0.72920  Biso   1.000  H
  C58      1.0000 0.68590  0.50470  0.93470  Biso   1.000  C
  C59      1.0000 0.69610  0.50620  0.85550  Biso   1.000  C
  C60      1.0000 0.66770  0.53740  0.78750  Biso   1.000  C
  H30      1.0000 0.68150  0.55730  0.82010  Biso   1.000  H
  C61      1.0000 0.49570  0.14880  0.96090  Biso   1.000  C
  H31      1.0000 0.49600  0.13130  0.92780  Biso   1.000  H
  C62      1.0000 0.48440  0.22640  0.74660  Biso   1.000  C
  H32      1.0000 0.48180  0.21220  0.70210  Biso   1.000  H
  C63      1.0000 0.48930  0.21899  0.82870  Biso   1.000  C
  C64      1.0000 0.49300  0.08625  0.63290  Biso   1.000  C
  O11      1.0000 0.46882  0.05392  0.64720  Biso   1.000  O
  O12      1.0000 0.51773  0.09719  0.58060  Biso   1.000  O
  C65      1.0000 0.52060  0.14944  0.68810  Biso   1.000  C
  H33      1.0000 0.54020  0.15590  0.65430  Biso   1.000  H
  C66      1.0000 0.49190  0.11470  0.68520  Biso   1.000  C
  C67      1.0000 0.49340  0.16490  0.79090  Biso   1.000  C
  C68      1.0000 0.52130  0.17477  0.73890  Biso   1.000  C
  H34      1.0000 0.54050  0.19840  0.73800  Biso   1.000  H
  C69      1.0000 0.46270  0.10440  0.73240  Biso   1.000  C
  H35      1.0000 0.44300  0.08110  0.72920  Biso   1.000  H
  C70      1.0000 0.49530  0.18120  0.93470  Biso   1.000  C
  C71      1.0000 0.49380  0.18990  0.85550  Biso   1.000  C
  C72      1.0000 0.46260  0.13030  0.78750  Biso   1.000  C
  H36      1.0000 0.44270  0.12420  0.82010  Biso   1.000  H
  C73      1.0000 0.65310  0.14880  0.03910  Biso   1.000  C
  H37      1.0000 0.63530  0.13130  0.07220  Biso   1.000  H
  C74      1.0000 0.74200  0.22640  0.25340  Biso   1.000  C
  H38      1.0000 0.73040  0.21220  0.29790  Biso   1.000  H
  C75      1.0000 0.72969  0.21899  0.17130  Biso   1.000  C
  C76      1.0000 0.59325  0.08625  0.36710  Biso   1.000  C
  O13      1.0000 0.58510  0.05392  0.35280  Biso   1.000  O
  O14      1.0000 0.57946  0.09719  0.41940  Biso   1.000  O
  C77      1.0000 0.62884  0.14944  0.31190  Biso   1.000  C
  H39      1.0000 0.61570  0.15590  0.34570  Biso   1.000  H
  C78      1.0000 0.62280  0.11470  0.31480  Biso   1.000  C
  C79      1.0000 0.67150  0.16490  0.20910  Biso   1.000  C
  C80      1.0000 0.65347  0.17477  0.26110  Biso   1.000  C
  H40      1.0000 0.65790  0.19840  0.26200  Biso   1.000  H
  C81      1.0000 0.64170  0.10440  0.26760  Biso   1.000  C
  H41      1.0000 0.63810  0.08110  0.27080  Biso   1.000  H
  C82      1.0000 0.68590  0.18120  0.06530  Biso   1.000  C
  C83      1.0000 0.69610  0.18990  0.14450  Biso   1.000  C
  C84      1.0000 0.66770  0.13030  0.21250  Biso   1.000  C
  H42      1.0000 0.68150  0.12420  0.17990  Biso   1.000  H
  C85      1.0000 0.49570  0.34690  0.03910  Biso   1.000  C
  H43      1.0000 0.49600  0.36470  0.07220  Biso   1.000  H
  C86      1.0000 0.48440  0.25800  0.25340  Biso   1.000  C
  H44      1.0000 0.48180  0.26960  0.29790  Biso   1.000  H
  C87      1.0000 0.48930  0.27031  0.17130  Biso   1.000  C
  C88      1.0000 0.49300  0.40675  0.36710  Biso   1.000  C
  O15      1.0000 0.46882  0.41490  0.35280  Biso   1.000  O
  O16      1.0000 0.51773  0.42054  0.41940  Biso   1.000  O
  C89      1.0000 0.52060  0.37116  0.31190  Biso   1.000  C
  H45      1.0000 0.54020  0.38430  0.34570  Biso   1.000  H
  C90      1.0000 0.49190  0.37720  0.31480  Biso   1.000  C
  C91      1.0000 0.49340  0.32850  0.20910  Biso   1.000  C
  C92      1.0000 0.52130  0.34653  0.26110  Biso   1.000  C
  H46      1.0000 0.54050  0.34210  0.26200  Biso   1.000  H
  C93      1.0000 0.46270  0.35830  0.26760  Biso   1.000  C
  H47      1.0000 0.44300  0.36190  0.27080  Biso   1.000  H
  C94      1.0000 0.49530  0.31410  0.06530  Biso   1.000  C
  C95      1.0000 0.49380  0.30390  0.14450  Biso   1.000  C
  C96      1.0000 0.46260  0.33230  0.21250  Biso   1.000  C
  H48      1.0000 0.44270  0.31850  0.17990  Biso   1.000  H
  C97      1.0000 0.85120  0.50430  0.03910  Biso   1.000  C
  H49      1.0000 0.86870  0.50400  0.07220  Biso   1.000  H
  C98      1.0000 0.77360  0.51560  0.25340  Biso   1.000  C
  H50      1.0000 0.78780  0.51820  0.29790  Biso   1.000  H
  C99      1.0000 0.78101  0.51070  0.17130  Biso   1.000  C
  C100     1.0000 0.91375  0.50700  0.36710  Biso   1.000  C
  O17      1.0000 0.94608  0.53118  0.35280  Biso   1.000  O
  O18      1.0000 0.90281  0.48227  0.41940  Biso   1.000  O
  C101     1.0000 0.85056  0.47940  0.31190  Biso   1.000  C
  H51      1.0000 0.84410  0.45980  0.34570  Biso   1.000  H
  C102     1.0000 0.88530  0.50810  0.31480  Biso   1.000  C
  C103     1.0000 0.83510  0.50660  0.20910  Biso   1.000  C
  C104     1.0000 0.82523  0.47870  0.26110  Biso   1.000  C
  H52      1.0000 0.80160  0.45950  0.26200  Biso   1.000  H
  C105     1.0000 0.89560  0.53730  0.26760  Biso   1.000  C
  H53      1.0000 0.91890  0.55700  0.27080  Biso   1.000  H
  C106     1.0000 0.81880  0.50470  0.06530  Biso   1.000  C
  C107     1.0000 0.81010  0.50620  0.14450  Biso   1.000  C
  C108     1.0000 0.86970  0.53740  0.21250  Biso   1.000  C
  H54      1.0000 0.87580  0.55730  0.17990  Biso   1.000  H
  C109     1.0000 0.34690  0.85120  0.03910  Biso   1.000  C
  H55      1.0000 0.36470  0.86870  0.07220  Biso   1.000  H
  C110     1.0000 0.25800  0.77360  0.25340  Biso   1.000  C
  H56      1.0000 0.26960  0.78780  0.29790  Biso   1.000  H
  C111     1.0000 0.27031  0.78101  0.17130  Biso   1.000  C
  C112     1.0000 0.40675  0.91375  0.36710  Biso   1.000  C
  O19      1.0000 0.41490  0.94608  0.35280  Biso   1.000  O
  O20      1.0000 0.42054  0.90281  0.41940  Biso   1.000  O
  C113     1.0000 0.37116  0.85056  0.31190  Biso   1.000  C
  H57      1.0000 0.38430  0.84410  0.34570  Biso   1.000  H
  C114     1.0000 0.37720  0.88530  0.31480  Biso   1.000  C
  C115     1.0000 0.32850  0.83510  0.20910  Biso   1.000  C
  C116     1.0000 0.34653  0.82523  0.26110  Biso   1.000  C
  H58      1.0000 0.34210  0.80160  0.26200  Biso   1.000  H
  C117     1.0000 0.35830  0.89560  0.26760  Biso   1.000  C
  H59      1.0000 0.36190  0.91890  0.27080  Biso   1.000  H
  C118     1.0000 0.31410  0.81880  0.06530  Biso   1.000  C
  C119     1.0000 0.30390  0.81010  0.14450  Biso   1.000  C
  C120     1.0000 0.33230  0.86970  0.21250  Biso   1.000  C
  H60      1.0000 0.31850  0.87580  0.17990  Biso   1.000  H
  C121     1.0000 0.50430  0.65310  0.03910  Biso   1.000  C
  H61      1.0000 0.50400  0.63530  0.07220  Biso   1.000  H
  C122     1.0000 0.51560  0.74200  0.25340  Biso   1.000  C
  H62      1.0000 0.51820  0.73040  0.29790  Biso   1.000  H
  C123     1.0000 0.51070  0.72969  0.17130  Biso   1.000  C
  C124     1.0000 0.50700  0.59325  0.36710  Biso   1.000  C
  O21      1.0000 0.53118  0.58510  0.35280  Biso   1.000  O
  O22      1.0000 0.48227  0.57946  0.41940  Biso   1.000  O
  C125     1.0000 0.47940  0.62884  0.31190  Biso   1.000  C
  H63      1.0000 0.45980  0.61570  0.34570  Biso   1.000  H
  C126     1.0000 0.50810  0.62280  0.31480  Biso   1.000  C
  C127     1.0000 0.50660  0.67150  0.20910  Biso   1.000  C
  C128     1.0000 0.47870  0.65347  0.26110  Biso   1.000  C
  H64      1.0000 0.45950  0.65790  0.26200  Biso   1.000  H
  C129     1.0000 0.53730  0.64170  0.26760  Biso   1.000  C
  H65      1.0000 0.55700  0.63810  0.27080  Biso   1.000  H
  C130     1.0000 0.50470  0.68590  0.06530  Biso   1.000  C
  C131     1.0000 0.50620  0.69610  0.14450  Biso   1.000  C
  C132     1.0000 0.53740  0.66770  0.21250  Biso   1.000  C
  H66      1.0000 0.55730  0.68150  0.17990  Biso   1.000  H
  C133     1.0000 0.14880  0.49570  0.03910  Biso   1.000  C
  H67      1.0000 0.13130  0.49600  0.07220  Biso   1.000  H
  C134     1.0000 0.22640  0.48440  0.25340  Biso   1.000  C
  H68      1.0000 0.21220  0.48180  0.29790  Biso   1.000  H
  C135     1.0000 0.21899  0.48930  0.17130  Biso   1.000  C
  C136     1.0000 0.08625  0.49300  0.36710  Biso   1.000  C
  O23      1.0000 0.05392  0.46882  0.35280  Biso   1.000  O
  O24      1.0000 0.09719  0.51773  0.41940  Biso   1.000  O
  C137     1.0000 0.14944  0.52060  0.31190  Biso   1.000  C
  H69      1.0000 0.15590  0.54020  0.34570  Biso   1.000  H
  C138     1.0000 0.11470  0.49190  0.31480  Biso   1.000  C
  C139     1.0000 0.16490  0.49340  0.20910  Biso   1.000  C
  C140     1.0000 0.17477  0.52130  0.26110  Biso   1.000  C
  H70      1.0000 0.19840  0.54050  0.26200  Biso   1.000  H
  C141     1.0000 0.10440  0.46270  0.26760  Biso   1.000  C
  H71      1.0000 0.08110  0.44300  0.27080  Biso   1.000  H
  C142     1.0000 0.18120  0.49530  0.06530  Biso   1.000  C
  C143     1.0000 0.18990  0.49380  0.14450  Biso   1.000  C
  C144     1.0000 0.13030  0.46260  0.21250  Biso   1.000  C
  H72      1.0000 0.12420  0.44270  0.17990  Biso   1.000  H
  C145     1.0000 0.85120  0.34690  0.03910  Biso   1.000  C
  H73      1.0000 0.86870  0.36470  0.07220  Biso   1.000  H
  C146     1.0000 0.77360  0.25800  0.25340  Biso   1.000  C
  H74      1.0000 0.78780  0.26960  0.29790  Biso   1.000  H
  C147     1.0000 0.78101  0.27031  0.17130  Biso   1.000  C
  C148     1.0000 0.91375  0.40675  0.36710  Biso   1.000  C
  O25      1.0000 0.94608  0.41490  0.35280  Biso   1.000  O
  O26      1.0000 0.90281  0.42054  0.41940  Biso   1.000  O
  C149     1.0000 0.85056  0.37116  0.31190  Biso   1.000  C
  H75      1.0000 0.84410  0.38430  0.34570  Biso   1.000  H
  C150     1.0000 0.88530  0.37720  0.31480  Biso   1.000  C
  C151     1.0000 0.83510  0.32850  0.20910  Biso   1.000  C
  C152     1.0000 0.82523  0.34653  0.26110  Biso   1.000  C
  H76      1.0000 0.80160  0.34210  0.26200  Biso   1.000  H
  C153     1.0000 0.89560  0.35830  0.26760  Biso   1.000  C
  H77      1.0000 0.91890  0.36190  0.27080  Biso   1.000  H
  C154     1.0000 0.81880  0.31410  0.06530  Biso   1.000  C
  C155     1.0000 0.81010  0.30390  0.14450  Biso   1.000  C
  C156     1.0000 0.86970  0.33230  0.21250  Biso   1.000  C
  H78      1.0000 0.87580  0.31850  0.17990  Biso   1.000  H
  C157     1.0000 0.65310  0.50430  0.03910  Biso   1.000  C
  H79      1.0000 0.63530  0.50400  0.07220  Biso   1.000  H
  C158     1.0000 0.74200  0.51560  0.25340  Biso   1.000  C
  H80      1.0000 0.73040  0.51820  0.29790  Biso   1.000  H
  C159     1.0000 0.72969  0.51070  0.17130  Biso   1.000  C
  C160     1.0000 0.59325  0.50700  0.36710  Biso   1.000  C
  O27      1.0000 0.58510  0.53118  0.35280  Biso   1.000  O
  O28      1.0000 0.57946  0.48227  0.41940  Biso   1.000  O
  C161     1.0000 0.62884  0.47940  0.31190  Biso   1.000  C
  H81      1.0000 0.61570  0.45980  0.34570  Biso   1.000  H
  C162     1.0000 0.62280  0.50810  0.31480  Biso   1.000  C
  C163     1.0000 0.67150  0.50660  0.20910  Biso   1.000  C
  C164     1.0000 0.65347  0.47870  0.26110  Biso   1.000  C
  H82      1.0000 0.65790  0.45950  0.26200  Biso   1.000  H
  C165     1.0000 0.64170  0.53730  0.26760  Biso   1.000  C
  H83      1.0000 0.63810  0.55700  0.27080  Biso   1.000  H
  C166     1.0000 0.68590  0.50470  0.06530  Biso   1.000  C
  C167     1.0000 0.69610  0.50620  0.14450  Biso   1.000  C
  C168     1.0000 0.66770  0.53740  0.21250  Biso   1.000  C
  H84      1.0000 0.68150  0.55730  0.17990  Biso   1.000  H
  C169     1.0000 0.49570  0.14880  0.03910  Biso   1.000  C
  H85      1.0000 0.49600  0.13130  0.07220  Biso   1.000  H
  C170     1.0000 0.48440  0.22640  0.25340  Biso   1.000  C
  H86      1.0000 0.48180  0.21220  0.29790  Biso   1.000  H
  C171     1.0000 0.48930  0.21899  0.17130  Biso   1.000  C
  C172     1.0000 0.49300  0.08625  0.36710  Biso   1.000  C
  O29      1.0000 0.46882  0.05392  0.35280  Biso   1.000  O
  O30      1.0000 0.51773  0.09719  0.41940  Biso   1.000  O
  C173     1.0000 0.52060  0.14944  0.31190  Biso   1.000  C
  H87      1.0000 0.54020  0.15590  0.34570  Biso   1.000  H
  C174     1.0000 0.49190  0.11470  0.31480  Biso   1.000  C
  C175     1.0000 0.49340  0.16490  0.20910  Biso   1.000  C
  C176     1.0000 0.52130  0.17477  0.26110  Biso   1.000  C
  H88      1.0000 0.54050  0.19840  0.26200  Biso   1.000  H
  C177     1.0000 0.46270  0.10440  0.26760  Biso   1.000  C
  H89      1.0000 0.44300  0.08110  0.27080  Biso   1.000  H
  C178     1.0000 0.49530  0.18120  0.06530  Biso   1.000  C
  C179     1.0000 0.49380  0.18990  0.14450  Biso   1.000  C
  C180     1.0000 0.46260  0.13030  0.21250  Biso   1.000  C
  H90      1.0000 0.44270  0.12420  0.17990  Biso   1.000  H
  C181     1.0000 0.14880  0.65310  0.03910  Biso   1.000  C
  H91      1.0000 0.13130  0.63530  0.07220  Biso   1.000  H
  C182     1.0000 0.22640  0.74200  0.25340  Biso   1.000  C
  H92      1.0000 0.21220  0.73040  0.29790  Biso   1.000  H
  C183     1.0000 0.21899  0.72969  0.17130  Biso   1.000  C
  C184     1.0000 0.08625  0.59325  0.36710  Biso   1.000  C
  O31      1.0000 0.05392  0.58510  0.35280  Biso   1.000  O
  O32      1.0000 0.09719  0.57946  0.41940  Biso   1.000  O
  C185     1.0000 0.14944  0.62884  0.31190  Biso   1.000  C
  H93      1.0000 0.15590  0.61570  0.34570  Biso   1.000  H
  C186     1.0000 0.11470  0.62280  0.31480  Biso   1.000  C
  C187     1.0000 0.16490  0.67150  0.20910  Biso   1.000  C
  C188     1.0000 0.17477  0.65347  0.26110  Biso   1.000  C
  H94      1.0000 0.19840  0.65790  0.26200  Biso   1.000  H
  C189     1.0000 0.10440  0.64170  0.26760  Biso   1.000  C
  H95      1.0000 0.08110  0.63810  0.27080  Biso   1.000  H
  C190     1.0000 0.18120  0.68590  0.06530  Biso   1.000  C
  C191     1.0000 0.18990  0.69610  0.14450  Biso   1.000  C
  C192     1.0000 0.13030  0.66770  0.21250  Biso   1.000  C
  H96      1.0000 0.12420  0.68150  0.17990  Biso   1.000  H
  C193     1.0000 0.34690  0.49570  0.03910  Biso   1.000  C
  H97      1.0000 0.36470  0.49600  0.07220  Biso   1.000  H
  C194     1.0000 0.25800  0.48440  0.25340  Biso   1.000  C
  H98      1.0000 0.26960  0.48180  0.29790  Biso   1.000  H
  C195     1.0000 0.27031  0.48930  0.17130  Biso   1.000  C
  C196     1.0000 0.40675  0.49300  0.36710  Biso   1.000  C
  O33      1.0000 0.41490  0.46882  0.35280  Biso   1.000  O
  O34      1.0000 0.42054  0.51773  0.41940  Biso   1.000  O
  C197     1.0000 0.37116  0.52060  0.31190  Biso   1.000  C
  H99      1.0000 0.38430  0.54020  0.34570  Biso   1.000  H
  C198     1.0000 0.37720  0.49190  0.31480  Biso   1.000  C
  C199     1.0000 0.32850  0.49340  0.20910  Biso   1.000  C
  C200     1.0000 0.34653  0.52130  0.26110  Biso   1.000  C
  H100     1.0000 0.34210  0.54050  0.26200  Biso   1.000  H
  C201     1.0000 0.35830  0.46270  0.26760  Biso   1.000  C
  H101     1.0000 0.36190  0.44300  0.27080  Biso   1.000  H
  C202     1.0000 0.31410  0.49530  0.06530  Biso   1.000  C
  C203     1.0000 0.30390  0.49380  0.14450  Biso   1.000  C
  C204     1.0000 0.33230  0.46260  0.21250  Biso   1.000  C
  H102     1.0000 0.31850  0.44270  0.17990  Biso   1.000  H
  C205     1.0000 0.50430  0.85120  0.03910  Biso   1.000  C
  H103     1.0000 0.50400  0.86870  0.07220  Biso   1.000  H
  C206     1.0000 0.51560  0.77360  0.25340  Biso   1.000  C
  H104     1.0000 0.51820  0.78780  0.29790  Biso   1.000  H
  C207     1.0000 0.51070  0.78101  0.17130  Biso   1.000  C
  C208     1.0000 0.50700  0.91375  0.36710  Biso   1.000  C
  O35      1.0000 0.53118  0.94608  0.35280  Biso   1.000  O
  O36      1.0000 0.48227  0.90281  0.41940  Biso   1.000  O
  C209     1.0000 0.47940  0.85056  0.31190  Biso   1.000  C
  H105     1.0000 0.45980  0.84410  0.34570  Biso   1.000  H
  C210     1.0000 0.50810  0.88530  0.31480  Biso   1.000  C
  C211     1.0000 0.50660  0.83510  0.20910  Biso   1.000  C
  C212     1.0000 0.47870  0.82523  0.26110  Biso   1.000  C
  H106     1.0000 0.45950  0.80160  0.26200  Biso   1.000  H
  C213     1.0000 0.53730  0.89560  0.26760  Biso   1.000  C
  H107     1.0000 0.55700  0.91890  0.27080  Biso   1.000  H
  C214     1.0000 0.50470  0.81880  0.06530  Biso   1.000  C
  C215     1.0000 0.50620  0.81010  0.14450  Biso   1.000  C
  C216     1.0000 0.53740  0.86970  0.21250  Biso   1.000  C
  H108     1.0000 0.55730  0.87580  0.17990  Biso   1.000  H
  C217     1.0000 0.34690  0.85120  0.96090  Biso   1.000  C
  H109     1.0000 0.36470  0.86870  0.92780  Biso   1.000  H
  C218     1.0000 0.25800  0.77360  0.74660  Biso   1.000  C
  H110     1.0000 0.26960  0.78780  0.70210  Biso   1.000  H
  C219     1.0000 0.27031  0.78101  0.82870  Biso   1.000  C
  C220     1.0000 0.40675  0.91375  0.63290  Biso   1.000  C
  O37      1.0000 0.41490  0.94608  0.64720  Biso   1.000  O
  O38      1.0000 0.42054  0.90281  0.58060  Biso   1.000  O
  C221     1.0000 0.37116  0.85056  0.68810  Biso   1.000  C
  H111     1.0000 0.38430  0.84410  0.65430  Biso   1.000  H
  C222     1.0000 0.37720  0.88530  0.68520  Biso   1.000  C
  C223     1.0000 0.32850  0.83510  0.79090  Biso   1.000  C
  C224     1.0000 0.34653  0.82523  0.73890  Biso   1.000  C
  H112     1.0000 0.34210  0.80160  0.73800  Biso   1.000  H
  C225     1.0000 0.35830  0.89560  0.73240  Biso   1.000  C
  H113     1.0000 0.36190  0.91890  0.72920  Biso   1.000  H
  C226     1.0000 0.31410  0.81880  0.93470  Biso   1.000  C
  C227     1.0000 0.30390  0.81010  0.85550  Biso   1.000  C
  C228     1.0000 0.33230  0.86970  0.78750  Biso   1.000  C
  H114     1.0000 0.31850  0.87580  0.82010  Biso   1.000  H
  C229     1.0000 0.50430  0.65310  0.96090  Biso   1.000  C
  H115     1.0000 0.50400  0.63530  0.92780  Biso   1.000  H
  C230     1.0000 0.51560  0.74200  0.74660  Biso   1.000  C
  H116     1.0000 0.51820  0.73040  0.70210  Biso   1.000  H
  C231     1.0000 0.51070  0.72969  0.82870  Biso   1.000  C
  C232     1.0000 0.50700  0.59325  0.63290  Biso   1.000  C
  O39      1.0000 0.53118  0.58510  0.64720  Biso   1.000  O
  O40      1.0000 0.48227  0.57946  0.58060  Biso   1.000  O
  C233     1.0000 0.47940  0.62884  0.68810  Biso   1.000  C
  H117     1.0000 0.45980  0.61570  0.65430  Biso   1.000  H
  C234     1.0000 0.50810  0.62280  0.68520  Biso   1.000  C
  C235     1.0000 0.50660  0.67150  0.79090  Biso   1.000  C
  C236     1.0000 0.47870  0.65347  0.73890  Biso   1.000  C
  H118     1.0000 0.45950  0.65790  0.73800  Biso   1.000  H
  C237     1.0000 0.53730  0.64170  0.73240  Biso   1.000  C
  H119     1.0000 0.55700  0.63810  0.72920  Biso   1.000  H
  C238     1.0000 0.50470  0.68590  0.93470  Biso   1.000  C
  C239     1.0000 0.50620  0.69610  0.85550  Biso   1.000  C
  C240     1.0000 0.53740  0.66770  0.78750  Biso   1.000  C
  H120     1.0000 0.55730  0.68150  0.82010  Biso   1.000  H
  C241     1.0000 0.14880  0.49570  0.96090  Biso   1.000  C
  H121     1.0000 0.13130  0.49600  0.92780  Biso   1.000  H
  C242     1.0000 0.22640  0.48440  0.74660  Biso   1.000  C
  H122     1.0000 0.21220  0.48180  0.70210  Biso   1.000  H
  C243     1.0000 0.21899  0.48930  0.82870  Biso   1.000  C
  C244     1.0000 0.08625  0.49300  0.63290  Biso   1.000  C
  O41      1.0000 0.05392  0.46882  0.64720  Biso   1.000  O
  O42      1.0000 0.09719  0.51773  0.58060  Biso   1.000  O
  C245     1.0000 0.14944  0.52060  0.68810  Biso   1.000  C
  H123     1.0000 0.15590  0.54020  0.65430  Biso   1.000  H
  C246     1.0000 0.11470  0.49190  0.68520  Biso   1.000  C
  C247     1.0000 0.16490  0.49340  0.79090  Biso   1.000  C
  C248     1.0000 0.17477  0.52130  0.73890  Biso   1.000  C
  H124     1.0000 0.19840  0.54050  0.73800  Biso   1.000  H
  C249     1.0000 0.10440  0.46270  0.73240  Biso   1.000  C
  H125     1.0000 0.08110  0.44300  0.72920  Biso   1.000  H
  C250     1.0000 0.18120  0.49530  0.93470  Biso   1.000  C
  C251     1.0000 0.18990  0.49380  0.85550  Biso   1.000  C
  C252     1.0000 0.13030  0.46260  0.78750  Biso   1.000  C
  H126     1.0000 0.12420  0.44270  0.82010  Biso   1.000  H
  C253     1.0000 0.65310  0.14880  0.96090  Biso   1.000  C
  H127     1.0000 0.63530  0.13130  0.92780  Biso   1.000  H
  C254     1.0000 0.74200  0.22640  0.74660  Biso   1.000  C
  H128     1.0000 0.73040  0.21220  0.70210  Biso   1.000  H
  C255     1.0000 0.72969  0.21899  0.82870  Biso   1.000  C
  C256     1.0000 0.59325  0.08625  0.63290  Biso   1.000  C
  O43      1.0000 0.58510  0.05392  0.64720  Biso   1.000  O
  O44      1.0000 0.57946  0.09719  0.58060  Biso   1.000  O
  C257     1.0000 0.62884  0.14944  0.68810  Biso   1.000  C
  H129     1.0000 0.61570  0.15590  0.65430  Biso   1.000  H
  C258     1.0000 0.62280  0.11470  0.68520  Biso   1.000  C
  C259     1.0000 0.67150  0.16490  0.79090  Biso   1.000  C
  C260     1.0000 0.65347  0.17477  0.73890  Biso   1.000  C
  H130     1.0000 0.65790  0.19840  0.73800  Biso   1.000  H
  C261     1.0000 0.64170  0.10440  0.73240  Biso   1.000  C
  H131     1.0000 0.63810  0.08110  0.72920  Biso   1.000  H
  C262     1.0000 0.68590  0.18120  0.93470  Biso   1.000  C
  C263     1.0000 0.69610  0.18990  0.85550  Biso   1.000  C
  C264     1.0000 0.66770  0.13030  0.78750  Biso   1.000  C
  H132     1.0000 0.68150  0.12420  0.82010  Biso   1.000  H
  C265     1.0000 0.49570  0.34690  0.96090  Biso   1.000  C
  H133     1.0000 0.49600  0.36470  0.92780  Biso   1.000  H
  C266     1.0000 0.48440  0.25800  0.74660  Biso   1.000  C
  H134     1.0000 0.48180  0.26960  0.70210  Biso   1.000  H
  C267     1.0000 0.48930  0.27031  0.82870  Biso   1.000  C
  C268     1.0000 0.49300  0.40675  0.63290  Biso   1.000  C
  O45      1.0000 0.46882  0.41490  0.64720  Biso   1.000  O
  O46      1.0000 0.51773  0.42054  0.58060  Biso   1.000  O
  C269     1.0000 0.52060  0.37116  0.68810  Biso   1.000  C
  H135     1.0000 0.54020  0.38430  0.65430  Biso   1.000  H
  C270     1.0000 0.49190  0.37720  0.68520  Biso   1.000  C
  C271     1.0000 0.49340  0.32850  0.79090  Biso   1.000  C
  C272     1.0000 0.52130  0.34653  0.73890  Biso   1.000  C
  H136     1.0000 0.54050  0.34210  0.73800  Biso   1.000  H
  C273     1.0000 0.46270  0.35830  0.73240  Biso   1.000  C
  H137     1.0000 0.44300  0.36190  0.72920  Biso   1.000  H
  C274     1.0000 0.49530  0.31410  0.93470  Biso   1.000  C
  C275     1.0000 0.49380  0.30390  0.85550  Biso   1.000  C
  C276     1.0000 0.46260  0.33230  0.78750  Biso   1.000  C
  H138     1.0000 0.44270  0.31850  0.82010  Biso   1.000  H
  C277     1.0000 0.85120  0.50430  0.96090  Biso   1.000  C
  H139     1.0000 0.86870  0.50400  0.92780  Biso   1.000  H
  C278     1.0000 0.77360  0.51560  0.74660  Biso   1.000  C
  H140     1.0000 0.78780  0.51820  0.70210  Biso   1.000  H
  C279     1.0000 0.78101  0.51070  0.82870  Biso   1.000  C
  C280     1.0000 0.91375  0.50700  0.63290  Biso   1.000  C
  O47      1.0000 0.94608  0.53118  0.64720  Biso   1.000  O
  O48      1.0000 0.90281  0.48227  0.58060  Biso   1.000  O
  C281     1.0000 0.85056  0.47940  0.68810  Biso   1.000  C
  H141     1.0000 0.84410  0.45980  0.65430  Biso   1.000  H
  C282     1.0000 0.88530  0.50810  0.68520  Biso   1.000  C
  C283     1.0000 0.83510  0.50660  0.79090  Biso   1.000  C
  C284     1.0000 0.82523  0.47870  0.73890  Biso   1.000  C
  H142     1.0000 0.80160  0.45950  0.73800  Biso   1.000  H
  C285     1.0000 0.89560  0.53730  0.73240  Biso   1.000  C
  H143     1.0000 0.91890  0.55700  0.72920  Biso   1.000  H
  C286     1.0000 0.81880  0.50470  0.93470  Biso   1.000  C
  C287     1.0000 0.81010  0.50620  0.85550  Biso   1.000  C
  C288     1.0000 0.86970  0.53740  0.78750  Biso   1.000  C
  H144     1.0000 0.87580  0.55730  0.82010  Biso   1.000  H
  Cl1      1.0000 0.27740  0.72260  0.00000  Biso   1.000  Cl
  Fe1      1.0000 0.24760  0.75240  0.00000  Biso   1.000  Fe
  Cl2      1.0000 0.27740  0.55480  0.00000  Biso   1.000  Cl
  Fe2      1.0000 0.24760  0.49520  0.00000  Biso   1.000  Fe
  Cl3      1.0000 0.44520  0.72260  0.00000  Biso   1.000  Cl
  Fe3      1.0000 0.50480  0.75240  0.00000  Biso   1.000  Fe
  Cl4      1.0000 0.72260  0.27740  0.00000  Biso   1.000  Cl
  Fe4      1.0000 0.75240  0.24760  0.00000  Biso   1.000  Fe
  Cl5      1.0000 0.72260  0.44520  0.00000  Biso   1.000  Cl
  Fe5      1.0000 0.75240  0.50480  0.00000  Biso   1.000  Fe
  Cl6      1.0000 0.55480  0.27740  0.00000  Biso   1.000  Cl
  Fe6      1.0000 0.49520  0.24760  0.00000  Biso   1.000  Fe
  O49      1.0000 0.03176  0.47496  0.50000  Biso   1.000  O
  O50      1.0000 0.52504  0.55680  0.50000  Biso   1.000  O
  O51      1.0000 0.44320  0.96824  0.50000  Biso   1.000  O
  O52      1.0000 0.96824  0.52504  0.50000  Biso   1.000  O
  O53      1.0000 0.47496  0.44320  0.50000  Biso   1.000  O
  O54      1.0000 0.55680  0.03176  0.50000  Biso   1.000  O
  O55      1.0000 0.47496  0.03176  0.50000  Biso   1.000  O
  O56      1.0000 0.55680  0.52504  0.50000  Biso   1.000  O
  O57      1.0000 0.96824  0.44320  0.50000  Biso   1.000  O
  O58      1.0000 0.52504  0.96824  0.50000  Biso   1.000  O
  O59      1.0000 0.44320  0.47496  0.50000  Biso   1.000  O
  O60      1.0000 0.03176  0.55680  0.50000  Biso   1.000  O
  N1       1.0000 0.24655  0.75345  0.87880  Biso   1.000  N
  N2       1.0000 0.24655  0.49310  0.87880  Biso   1.000  N
  N3       1.0000 0.50690  0.75345  0.87880  Biso   1.000  N
  N4       1.0000 0.75345  0.24655  0.87880  Biso   1.000  N
  N5       1.0000 0.75345  0.50690  0.87880  Biso   1.000  N
  N6       1.0000 0.49310  0.24655  0.87880  Biso   1.000  N
  N7       1.0000 0.75345  0.24655  0.12120  Biso   1.000  N
  N8       1.0000 0.49310  0.24655  0.12120  Biso   1.000  N
  N9       1.0000 0.75345  0.50690  0.12120  Biso   1.000  N
  N10      1.0000 0.24655  0.75345  0.12120  Biso   1.000  N
  N11      1.0000 0.50690  0.75345  0.12120  Biso   1.000  N
  N12      1.0000 0.24655  0.49310  0.12120  Biso   1.000  N
  O61      1.0000 0.03303  0.51651  0.39320  Biso   1.000  O
  O62      1.0000 0.48349  0.51651  0.39320  Biso   1.000  O
  O63      1.0000 0.48349  0.96697  0.39320  Biso   1.000  O
  O64      1.0000 0.96697  0.48349  0.39320  Biso   1.000  O
  O65      1.0000 0.51651  0.48348  0.39320  Biso   1.000  O
  O66      1.0000 0.51651  0.03303  0.39320  Biso   1.000  O
  O67      1.0000 0.51651  0.03303  0.60680  Biso   1.000  O
  O68      1.0000 0.51651  0.48349  0.60680  Biso   1.000  O
  O69      1.0000 0.96697  0.48349  0.60680  Biso   1.000  O
  O70      1.0000 0.48349  0.96697  0.60680  Biso   1.000  O
  O71      1.0000 0.48349  0.51651  0.60680  Biso   1.000  O
  O72      1.0000 0.03303  0.51651  0.60680  Biso   1.000  O
  Zr1      1.0000 0.00000  0.45878  0.60564  Biso   1.000  Zr
  Zr2      1.0000 0.54122  0.54122  0.60564  Biso   1.000  Zr
  Zr3      1.0000 0.45878  0.00000  0.60564  Biso   1.000  Zr
  Zr4      1.0000 0.00000  0.54122  0.60564  Biso   1.000  Zr
  Zr5      1.0000 0.45878  0.45878  0.60564  Biso   1.000  Zr
  Zr6      1.0000 0.54122  0.00000  0.60564  Biso   1.000  Zr
  Zr7      1.0000 0.45878  0.00000  0.39436  Biso   1.000  Zr
  Zr8      1.0000 0.54122  0.54122  0.39436  Biso   1.000  Zr
  Zr9      1.0000 0.00000  0.45878  0.39436  Biso   1.000  Zr
  Zr10     1.0000 0.54122  0.00000  0.39436  Biso   1.000  Zr
  Zr11     1.0000 0.45878  0.45878  0.39436  Biso   1.000  Zr
  Zr12     1.0000 0.00000  0.54122  0.39436  Biso   1.000  Zr
  Zr13     1.0000 0.06648  0.53324  0.50000  Biso   1.000  Zr
  Zr14     1.0000 0.46676  0.53324  0.50000  Biso   1.000  Zr
  Zr15     1.0000 0.46676  0.93352  0.50000  Biso   1.000  Zr
  Zr16     1.0000 0.93352  0.46676  0.50000  Biso   1.000  Zr
  Zr17     1.0000 0.53324  0.46676  0.50000  Biso   1.000  Zr
  Zr18     1.0000 0.53324  0.06648  0.50000  Biso   1.000  Zr
  N13      1.0000 0.19970  0.70620  0.00000  Biso   1.000  N
  N14      1.0000 0.29380  0.49350  0.00000  Biso   1.000  N
  N15      1.0000 0.50650  0.80030  0.00000  Biso   1.000  N
  N16      1.0000 0.80030  0.29380  0.00000  Biso   1.000  N
  N17      1.0000 0.70620  0.50650  0.00000  Biso   1.000  N
  N18      1.0000 0.49350  0.19970  0.00000  Biso   1.000  N
  N19      1.0000 0.70620  0.19970  0.00000  Biso   1.000  N
  N20      1.0000 0.49350  0.29380  0.00000  Biso   1.000  N
  N21      1.0000 0.80030  0.50650  0.00000  Biso   1.000  N
  N22      1.0000 0.29380  0.80030  0.00000  Biso   1.000  N
  N23      1.0000 0.50650  0.70620  0.00000  Biso   1.000  N
  N24      1.0000 0.19970  0.49350  0.00000  Biso   1.000  N
  Cl7      1.0000 0.78520  0.57040  0.00000  Biso   1.000  Cl
  Cl8      1.0000 0.42960  0.21480  0.00000  Biso   1.000  Cl
  Cl9      1.0000 0.78520  0.21480  0.00000  Biso   1.000  Cl
  Cl10     1.0000 0.21480  0.42960  0.00000  Biso   1.000  Cl
  Cl11     1.0000 0.57040  0.78520  0.00000  Biso   1.000  Cl
  Cl12     1.0000 0.21480  0.78520  0.00000  Biso   1.000  Cl
