data_QEJYIP_clean
_audit_creation_date              2014-07-02
_audit_creation_method            'Materials Studio'
_symmetry_space_group_name_H-M    'P1'
_symmetry_Int_Tables_number       1
_symmetry_cell_setting            triclinic
loop_
_symmetry_equiv_pos_as_xyz
  x,y,z
_cell_length_a                    10.7731
_cell_length_b                    12.4199
_cell_length_c                    13.5326
_cell_angle_alpha                 99.0989
_cell_angle_beta                  90.0000
_cell_angle_gamma                 115.7030
loop_
_atom_site_label
_atom_site_type_symbol
_atom_site_fract_x
_atom_site_fract_y
_atom_site_fract_z
_atom_site_U_iso_or_equiv
_atom_site_adp_type
_atom_site_occupancy
Cd1    Cd    0.93517   0.40610   0.85865   0.01267  Uiso   1.00
Cd2    Cd    0.52907   0.59390   0.64135   0.01267  Uiso   1.00
Cd3    Cd    0.06483   0.59390   0.14135   0.01267  Uiso   1.00
Cd4    Cd    0.47093   0.40610   0.35865   0.01267  Uiso   1.00
H1     H     0.80480   0.11340   0.83730   0.01267  Uiso   1.00
H2     H     0.63350   0.95420   0.89370   0.01267  Uiso   1.00
H3     H     0.68690   0.33680   0.98700   0.01267  Uiso   1.00
H4     H     0.52000   0.18520   0.05280   0.01267  Uiso   1.00
H5     H     0.29590   0.57260   0.83210   0.01267  Uiso   1.00
H6     H     0.69140   0.88660   0.66270   0.01267  Uiso   1.00
H7     H     0.67930   0.04580   0.60630   0.01267  Uiso   1.00
H8     H     0.35010   0.66320   0.51300   0.01267  Uiso   1.00
H9     H     0.33480   0.81480   0.44720   0.01267  Uiso   1.00
H10    H     0.72330   0.42740   0.66790   0.01267  Uiso   1.00
H11    H     0.19520   0.88660   0.16270   0.01267  Uiso   1.00
H12    H     0.36650   0.04580   0.10630   0.01267  Uiso   1.00
H13    H     0.31310   0.66320   0.01300   0.01267  Uiso   1.00
H14    H     0.48000   0.81480   0.94720   0.01267  Uiso   1.00
H15    H     0.70410   0.42740   0.16790   0.01267  Uiso   1.00
H16    H     0.30860   0.11340   0.33730   0.01267  Uiso   1.00
H17    H     0.32070   0.95420   0.39370   0.01267  Uiso   1.00
H18    H     0.64990   0.33680   0.48700   0.01267  Uiso   1.00
H19    H     0.66520   0.18520   0.55280   0.01267  Uiso   1.00
H20    H     0.27670   0.57260   0.33210   0.01267  Uiso   1.00
C1     C     0.74660   0.12920   0.88190   0.01267  Uiso   1.00
C2     C     0.64290   0.03240   0.91550   0.01267  Uiso   1.00
C3     C     0.67910   0.25860   0.96940   0.01267  Uiso   1.00
C4     C     0.57600   0.16700   0.00750   0.01267  Uiso   1.00
C5     C     0.55540   0.05020   0.97960   0.01267  Uiso   1.00
C6     C     0.24980   0.51900   0.77360   0.01267  Uiso   1.00
C7     C     0.21130   0.42060   0.62470   0.01267  Uiso   1.00
C8     C     0.24460   0.38340   0.52300   0.01267  Uiso   1.00
C9     C     0.08870   0.38180   0.66990   0.01267  Uiso   1.00
C10    C     0.94890   0.29040   0.63530   0.01267  Uiso   1.00
C11    C     0.61740   0.87080   0.61810   0.01267  Uiso   1.00
C12    C     0.61050   0.96760   0.58450   0.01267  Uiso   1.00
C13    C     0.42050   0.74140   0.53060   0.01267  Uiso   1.00
C14    C     0.40900   0.83300   0.49250   0.01267  Uiso   1.00
C15    C     0.50520   0.94980   0.52040   0.01267  Uiso   1.00
C16    C     0.73080   0.48100   0.72640   0.01267  Uiso   1.00
C17    C     0.79070   0.57940   0.87530   0.01267  Uiso   1.00
C18    C     0.86120   0.61660   0.97700   0.01267  Uiso   1.00
C19    C     0.70690   0.61820   0.83010   0.01267  Uiso   1.00
C20    C     0.65850   0.70960   0.86470   0.01267  Uiso   1.00
C21    C     0.25340   0.87080   0.11810   0.01267  Uiso   1.00
C22    C     0.35710   0.96760   0.08450   0.01267  Uiso   1.00
C23    C     0.32090   0.74140   0.03060   0.01267  Uiso   1.00
C24    C     0.42400   0.83300   0.99250   0.01267  Uiso   1.00
C25    C     0.44460   0.94980   0.02040   0.01267  Uiso   1.00
C26    C     0.75020   0.48100   0.22640   0.01267  Uiso   1.00
C27    C     0.78870   0.57940   0.37530   0.01267  Uiso   1.00
C28    C     0.75540   0.61660   0.47700   0.01267  Uiso   1.00
C29    C     0.91130   0.61820   0.33010   0.01267  Uiso   1.00
C30    C     0.05110   0.70960   0.36470   0.01267  Uiso   1.00
C31    C     0.38260   0.12920   0.38190   0.01267  Uiso   1.00
C32    C     0.38950   0.03240   0.41550   0.01267  Uiso   1.00
C33    C     0.57950   0.25860   0.46940   0.01267  Uiso   1.00
C34    C     0.59100   0.16700   0.50750   0.01267  Uiso   1.00
C35    C     0.49480   0.05020   0.47960   0.01267  Uiso   1.00
C36    C     0.26920   0.51900   0.27360   0.01267  Uiso   1.00
C37    C     0.20930   0.42060   0.12470   0.01267  Uiso   1.00
C38    C     0.13880   0.38340   0.02300   0.01267  Uiso   1.00
C39    C     0.29310   0.38180   0.16990   0.01267  Uiso   1.00
C40    C     0.34150   0.29040   0.13530   0.01267  Uiso   1.00
N1     N     0.76730   0.24160   0.90950   0.01267  Uiso   1.00
N2     N     0.11450   0.44660   0.76520   0.01267  Uiso   1.00
N3     N     0.31270   0.50720   0.69090   0.01267  Uiso   1.00
N4     N     0.52570   0.75840   0.59050   0.01267  Uiso   1.00
N5     N     0.66790   0.55340   0.73480   0.01267  Uiso   1.00
N6     N     0.80550   0.49280   0.80910   0.01267  Uiso   1.00
N7     N     0.23270   0.75840   0.09050   0.01267  Uiso   1.00
N8     N     0.88550   0.55340   0.23480   0.01267  Uiso   1.00
N9     N     0.68730   0.49280   0.30910   0.01267  Uiso   1.00
N10    N     0.47430   0.24160   0.40950   0.01267  Uiso   1.00
N11    N     0.33210   0.44660   0.26520   0.01267  Uiso   1.00
N12    N     0.19450   0.50720   0.19090   0.01267  Uiso   1.00
O1     O     0.85470   0.27140   0.69180   0.01267  Uiso   1.00
O2     O     0.93060   0.22940   0.54660   0.01267  Uiso   1.00
O3     O     0.15290   0.29800   0.46550   0.01267  Uiso   1.00
O4     O     0.36790   0.43940   0.50330   0.01267  Uiso   1.00
O5     O     0.58330   0.72860   0.80820   0.01267  Uiso   1.00
O6     O     0.70120   0.77060   0.95340   0.01267  Uiso   1.00
O7     O     0.85490   0.70200   0.03450   0.01267  Uiso   1.00
O8     O     0.92850   0.56060   0.99670   0.01267  Uiso   1.00
O9     O     0.14530   0.72860   0.30820   0.01267  Uiso   1.00
O10    O     0.06940   0.77060   0.45340   0.01267  Uiso   1.00
O11    O     0.84710   0.70200   0.53450   0.01267  Uiso   1.00
O12    O     0.63210   0.56060   0.49670   0.01267  Uiso   1.00
O13    O     0.41670   0.27140   0.19180   0.01267  Uiso   1.00
O14    O     0.29880   0.22940   0.04660   0.01267  Uiso   1.00
O15    O     0.14510   0.29800   0.96550   0.01267  Uiso   1.00
O16    O     0.07150   0.43940   0.00330   0.01267  Uiso   1.00
