data_QEKLUP_clean
_audit_creation_date              2014-07-02
_audit_creation_method            'Materials Studio'
_symmetry_space_group_name_H-M    'P1'
_symmetry_Int_Tables_number       1
_symmetry_cell_setting            triclinic
loop_
_symmetry_equiv_pos_as_xyz
  x,y,z
_cell_length_a                    5.0483
_cell_length_b                    10.2114
_cell_length_c                    10.2114
_cell_angle_alpha                 97.6989
_cell_angle_beta                  96.6359
_cell_angle_gamma                 83.3641
loop_
_atom_site_label
_atom_site_type_symbol
_atom_site_fract_x
_atom_site_fract_y
_atom_site_fract_z
_atom_site_U_iso_or_equiv
_atom_site_adp_type
_atom_site_occupancy
Ba1    Ba    0.66105   0.10554   0.89446   0.01267  Uiso   1.00
Ba2    Ba    0.33895   0.89446   0.10554   0.01267  Uiso   1.00
U1     U     0.50000  -0.00000   0.50000   0.01267  Uiso   1.00
U2     U     0.50000   0.50000   0.00000   0.01267  Uiso   1.00
P1     P     0.09730   0.88009   0.70393   0.01267  Uiso   1.00
P2     P     0.90270   0.70393   0.88009   0.01267  Uiso   1.00
P3     P     0.90270   0.11991   0.29607   0.01267  Uiso   1.00
P4     P     0.09730   0.29607   0.11991   0.01267  Uiso   1.00
H1     H     0.14860   0.65250   0.70030   0.01267  Uiso   1.00
H2     H     0.85140   0.70030   0.65250   0.01267  Uiso   1.00
H3     H     0.85140   0.34750   0.29970   0.01267  Uiso   1.00
H4     H     0.14860   0.29970   0.34750   0.01267  Uiso   1.00
C1     C     0.00000   0.71900   0.71900   0.01267  Uiso   1.00
C2     C     0.00000   0.28100   0.28100   0.01267  Uiso   1.00
O1     O     0.36500   0.13226   0.61426   0.01267  Uiso   1.00
O2     O     0.27480   0.85951   0.58771   0.01267  Uiso   1.00
O3     O     0.22520   0.94442   0.83262   0.01267  Uiso   1.00
O4     O     0.83180   0.96435   0.66375   0.01267  Uiso   1.00
O5     O     0.63500   0.61426   0.13226   0.01267  Uiso   1.00
O6     O     0.72520   0.58771   0.85951   0.01267  Uiso   1.00
O7     O     0.77480   0.83262   0.94442   0.01267  Uiso   1.00
O8     O     0.16820   0.66375   0.96435   0.01267  Uiso   1.00
O9     O     0.63500   0.86774   0.38574   0.01267  Uiso   1.00
O10    O     0.72520   0.14049   0.41229   0.01267  Uiso   1.00
O11    O     0.77480   0.05558   0.16738   0.01267  Uiso   1.00
O12    O     0.16820   0.03565   0.33625   0.01267  Uiso   1.00
O13    O     0.36500   0.38574   0.86774   0.01267  Uiso   1.00
O14    O     0.27480   0.41229   0.14049   0.01267  Uiso   1.00
O15    O     0.22520   0.16738   0.05558   0.01267  Uiso   1.00
O16    O     0.83180   0.33625   0.03565   0.01267  Uiso   1.00
