data_QEKLID01_clean
_audit_creation_date              2014-07-02
_audit_creation_method            'Materials Studio'
_symmetry_space_group_name_H-M    'P1'
_symmetry_Int_Tables_number       1
_symmetry_cell_setting            triclinic
loop_
_symmetry_equiv_pos_as_xyz
  x,y,z
_cell_length_a                    7.8733
_cell_length_b                    10.1432
_cell_length_c                    13.5280
_cell_angle_alpha                 68.3550
_cell_angle_beta                  79.6450
_cell_angle_gamma                 70.7020
loop_
_atom_site_label
_atom_site_type_symbol
_atom_site_fract_x
_atom_site_fract_y
_atom_site_fract_z
_atom_site_U_iso_or_equiv
_atom_site_adp_type
_atom_site_occupancy
Cd1    Cd    0.82667   0.65590   0.54336   0.01267  Uiso   1.00
Cd2    Cd    0.17333   0.34410   0.45664   0.01267  Uiso   1.00
Cd3    Cd    0.50000   0.00000   0.50000   0.01267  Uiso   1.00
H1     H     0.85330   0.13180   0.55650   0.01267  Uiso   1.00
H2     H     0.79750   0.22290   0.82870   0.01267  Uiso   1.00
H3     H     0.83030   0.81570   0.84190   0.01267  Uiso   1.00
H4     H     0.60230   0.16680   0.97320   0.01267  Uiso   1.00
H5     H     0.55090   0.11190   0.15660   0.01267  Uiso   1.00
H6     H     0.88730   0.70390   0.19690   0.01267  Uiso   1.00
H7     H     0.93570   0.75930   0.01270   0.01267  Uiso   1.00
H8     H     0.14670   0.86820   0.44350   0.01267  Uiso   1.00
H9     H     0.20250   0.77710   0.17130   0.01267  Uiso   1.00
H10    H     0.16970   0.18430   0.15810   0.01267  Uiso   1.00
H11    H     0.39770   0.83320   0.02680   0.01267  Uiso   1.00
H12    H     0.44910   0.88810   0.84340   0.01267  Uiso   1.00
H13    H     0.11270   0.29610   0.80310   0.01267  Uiso   1.00
H14    H     0.06430   0.24070   0.98730   0.01267  Uiso   1.00
C1     C     0.83980   0.95770   0.69070   0.01267  Uiso   1.00
C2     C     0.84230   0.10210   0.63050   0.01267  Uiso   1.00
C3     C     0.82790   0.20250   0.68260   0.01267  Uiso   1.00
C4     C     0.80900   0.15580   0.79440   0.01267  Uiso   1.00
C5     C     0.80690   0.01230   0.85510   0.01267  Uiso   1.00
C6     C     0.82620   0.91340   0.80230   0.01267  Uiso   1.00
C7     C     0.77630   0.97110   0.97420   0.01267  Uiso   1.00
C8     C     0.66050   0.07340   0.01810   0.01267  Uiso   1.00
C9     C     0.62810   0.04080   0.12840   0.01267  Uiso   1.00
C10    C     0.71260   0.90150   0.19450   0.01267  Uiso   1.00
C11    C     0.82900   0.79710   0.15180   0.01267  Uiso   1.00
C12    C     0.85980   0.83060   0.04100   0.01267  Uiso   1.00
C13    C     0.84320   0.84980   0.63850   0.01267  Uiso   1.00
C14    C     0.83790   0.35460   0.62410   0.01267  Uiso   1.00
C15    C     0.68490   0.86770   0.31480   0.01267  Uiso   1.00
C16    C     0.16020   0.04230   0.30930   0.01267  Uiso   1.00
C17    C     0.15770   0.89790   0.36950   0.01267  Uiso   1.00
C18    C     0.17210   0.79750   0.31740   0.01267  Uiso   1.00
C19    C     0.19100   0.84420   0.20560   0.01267  Uiso   1.00
C20    C     0.19310   0.98770   0.14490   0.01267  Uiso   1.00
C21    C     0.17380   0.08660   0.19770   0.01267  Uiso   1.00
C22    C     0.22370   0.02890   0.02580   0.01267  Uiso   1.00
C23    C     0.33950   0.92660   0.98190   0.01267  Uiso   1.00
C24    C     0.37190   0.95920   0.87160   0.01267  Uiso   1.00
C25    C     0.28740   0.09850   0.80550   0.01267  Uiso   1.00
C26    C     0.17100   0.20290   0.84820   0.01267  Uiso   1.00
C27    C     0.14020   0.16940   0.95900   0.01267  Uiso   1.00
C28    C     0.15680   0.15020   0.36150   0.01267  Uiso   1.00
C29    C     0.16210   0.64540   0.37590   0.01267  Uiso   1.00
C30    C     0.31510   0.13230   0.68520   0.01267  Uiso   1.00
O1     O     0.88390   0.71610   0.68620   0.01267  Uiso   1.00
O2     O     0.79850   0.90040   0.54170   0.01267  Uiso   1.00
O3     O     0.88110   0.39670   0.52110   0.01267  Uiso   1.00
O4     O     0.79780   0.44670   0.67230   0.01267  Uiso   1.00
O5     O     0.58060   0.97140   0.34540   0.01267  Uiso   1.00
O6     O     0.76570   0.74360   0.37200   0.01267  Uiso   1.00
O7     O     0.11610   0.28390   0.31380   0.01267  Uiso   1.00
O8     O     0.20150   0.09960   0.45830   0.01267  Uiso   1.00
O9     O     0.11890   0.60330   0.47890   0.01267  Uiso   1.00
O10    O     0.20220   0.55330   0.32770   0.01267  Uiso   1.00
O11    O     0.41940   0.02860   0.65460   0.01267  Uiso   1.00
O12    O     0.23430   0.25640   0.62800   0.01267  Uiso   1.00
