data_QEKLID_clean
_audit_creation_date              2014-07-02
_audit_creation_method            'Materials Studio'
_symmetry_space_group_name_H-M    'P1'
_symmetry_Int_Tables_number       1
_symmetry_cell_setting            triclinic
loop_
_symmetry_equiv_pos_as_xyz
  x,y,z
_cell_length_a                    7.8681
_cell_length_b                    10.1311
_cell_length_c                    13.4927
_cell_angle_alpha                 68.3760
_cell_angle_beta                  79.8550
_cell_angle_gamma                 70.8230
loop_
_atom_site_label
_atom_site_type_symbol
_atom_site_fract_x
_atom_site_fract_y
_atom_site_fract_z
_atom_site_U_iso_or_equiv
_atom_site_adp_type
_atom_site_occupancy
Cd1    Cd    0.67278   0.84377   0.95656   0.01267  Uiso   1.00
Cd2    Cd    0.32722   0.15623   0.04344   0.01267  Uiso   1.00
Cd3    Cd    0.00000   0.50000   0.00000   0.01267  Uiso   1.00
H1     H     0.70230   0.27450   0.67230   0.01267  Uiso   1.00
H2     H     0.64520   0.36840   0.94320   0.01267  Uiso   1.00
H3     H     0.56480   0.73920   0.48690   0.01267  Uiso   1.00
H4     H     0.66790   0.68450   0.65760   0.01267  Uiso   1.00
H5     H     0.94810   0.38610   0.34600   0.01267  Uiso   1.00
H6     H     0.89870   0.33220   0.52770   0.01267  Uiso   1.00
H7     H     0.61360   0.79660   0.30420   0.01267  Uiso   1.00
H8     H     0.29770   0.72550   0.32770   0.01267  Uiso   1.00
H9     H     0.35480   0.63160   0.05680   0.01267  Uiso   1.00
H10    H     0.43520   0.26080   0.51310   0.01267  Uiso   1.00
H11    H     0.33210   0.31550   0.34240   0.01267  Uiso   1.00
H12    H     0.05190   0.61390   0.65400   0.01267  Uiso   1.00
H13    H     0.10130   0.66780   0.47230   0.01267  Uiso   1.00
H14    H     0.38640   0.20340   0.69580   0.01267  Uiso   1.00
C1     C     0.66310   0.14340   0.87680   0.01267  Uiso   1.00
C2     C     0.67000   0.29890   0.81660   0.01267  Uiso   1.00
C3     C     0.69040   0.34260   0.70600   0.01267  Uiso   1.00
C4     C     0.65870   0.54220   0.80890   0.01267  Uiso   1.00
C5     C     0.65640   0.64980   0.86120   0.01267  Uiso   1.00
C6     C     0.65610   0.39830   0.86900   0.01267  Uiso   1.00
C7     C     0.64090   0.66800   0.45850   0.01267  Uiso   1.00
C8     C     0.67260   0.58650   0.69730   0.01267  Uiso   1.00
C9     C     0.87100   0.45780   0.37360   0.01267  Uiso   1.00
C10    C     0.78690   0.59820   0.30430   0.01267  Uiso   1.00
C11    C     0.69330   0.48660   0.64440   0.01267  Uiso   1.00
C12    C     0.83990   0.42530   0.48250   0.01267  Uiso   1.00
C13    C     0.72340   0.52840   0.52560   0.01267  Uiso   1.00
C14    C     0.67120   0.70260   0.34880   0.01267  Uiso   1.00
C15    C     0.81600   0.63210   0.18560   0.01267  Uiso   1.00
C16    C     0.33690   0.85660   0.12320   0.01267  Uiso   1.00
C17    C     0.33000   0.70110   0.18340   0.01267  Uiso   1.00
C18    C     0.30960   0.65740   0.29400   0.01267  Uiso   1.00
C19    C     0.34130   0.45780   0.19110   0.01267  Uiso   1.00
C20    C     0.34360   0.35020   0.13880   0.01267  Uiso   1.00
C21    C     0.34390   0.60170   0.13100   0.01267  Uiso   1.00
C22    C     0.35910   0.33200   0.54150   0.01267  Uiso   1.00
C23    C     0.32740   0.41350   0.30270   0.01267  Uiso   1.00
C24    C     0.12900   0.54220   0.62640   0.01267  Uiso   1.00
C25    C     0.21310   0.40180   0.69570   0.01267  Uiso   1.00
C26    C     0.30670   0.51340   0.35560   0.01267  Uiso   1.00
C27    C     0.16010   0.57470   0.51750   0.01267  Uiso   1.00
C28    C     0.27660   0.47160   0.47440   0.01267  Uiso   1.00
C29    C     0.32880   0.29740   0.65120   0.01267  Uiso   1.00
C30    C     0.18400   0.36790   0.81440   0.01267  Uiso   1.00
O1     O     0.70100   0.05310   0.82840   0.01267  Uiso   1.00
O2     O     0.62000   0.10630   0.97780   0.01267  Uiso   1.00
O3     O     0.70100   0.59830   0.95780   0.01267  Uiso   1.00
O4     O     0.61310   0.78430   0.81240   0.01267  Uiso   1.00
O5     O     0.92010   0.52760   0.15600   0.01267  Uiso   1.00
O6     O     0.73700   0.75760   0.12710   0.01267  Uiso   1.00
O7     O     0.29900   0.94690   0.17160   0.01267  Uiso   1.00
O8     O     0.38000   0.89370   0.02220   0.01267  Uiso   1.00
O9     O     0.29900   0.40170   0.04220   0.01267  Uiso   1.00
O10    O     0.38690   0.21570   0.18760   0.01267  Uiso   1.00
O11    O     0.07990   0.47240   0.84400   0.01267  Uiso   1.00
O12    O     0.26300   0.24240   0.87290   0.01267  Uiso   1.00
