data_image0
_cell_length_a       6.605
_cell_length_b       8.787
_cell_length_c       11.499
_cell_angle_alpha    93.07
_cell_angle_beta     90.42
_cell_angle_gamma    104.66

_symmetry_space_group_name_H-M    "P 1"
_symmetry_int_tables_number       1

loop_
  _symmetry_equiv_pos_as_xyz
  'x, y, z'

loop_
  _atom_site_label
  _atom_site_occupancy
  _atom_site_fract_x
  _atom_site_fract_y
  _atom_site_fract_z
  _atom_site_thermal_displace_type
  _atom_site_B_iso_or_equiv
  _atom_site_type_symbol
  Zr1      1.0000 0.18050  0.77440  0.40620  Biso   1.000  Zr
  Zr2      1.0000 0.22810  0.94140  0.85130  Biso   1.000  Zr
  P1       1.0000 0.28560  0.11900  0.58370  Biso   1.000  P
  P2       1.0000 0.23920  0.95680  0.14170  Biso   1.000  P
  P3       1.0000 0.87080  0.40600  0.32200  Biso   1.000  P
  F1       1.0000 0.30370  0.16310  0.92370  Biso   1.000  F
  O1       1.0000 0.25060  0.00720  0.47270  Biso   1.000  O
  O2       1.0000 0.13610  0.22310  0.58310  Biso   1.000  O
  O3       1.0000 0.51680  0.22670  0.59110  Biso   1.000  O
  O4       1.0000 0.24330  0.02030  0.68920  Biso   1.000  O
  O5       1.0000 0.45060  0.06520  0.16520  Biso   1.000  O
  O6       1.0000 0.08020  0.05980  0.15890  Biso   1.000  O
  O7       1.0000 0.21060  0.86190  0.02240  Biso   1.000  O
  O8       1.0000 0.19800  0.84220  0.23750  Biso   1.000  O
  O9       1.0000 0.87170  0.29980  0.21040  Biso   1.000  O
  O10      1.0000 0.07210  0.54130  0.33240  Biso   1.000  O
  O11      1.0000 0.83810  0.31370  0.43050  Biso   1.000  O
  O12      1.0000 0.67620  0.47900  0.30080  Biso   1.000  O
  H1       1.0000 0.65000  0.56800  0.33300  Biso   1.000  H
  Zr3      1.0000 0.81950  0.22560  0.59380  Biso   1.000  Zr
  Zr4      1.0000 0.77190  0.05860  0.14870  Biso   1.000  Zr
  P4       1.0000 0.71440  0.88100  0.41630  Biso   1.000  P
  P5       1.0000 0.76080  0.04320  0.85830  Biso   1.000  P
  P6       1.0000 0.12920  0.59400  0.67800  Biso   1.000  P
  F2       1.0000 0.69630  0.83690  0.07630  Biso   1.000  F
  O13      1.0000 0.74940  0.99280  0.52730  Biso   1.000  O
  O14      1.0000 0.86390  0.77690  0.41690  Biso   1.000  O
  O15      1.0000 0.48320  0.77330  0.40890  Biso   1.000  O
  O16      1.0000 0.75670  0.97970  0.31080  Biso   1.000  O
  O17      1.0000 0.54940  0.93480  0.83480  Biso   1.000  O
  O18      1.0000 0.91980  0.94020  0.84110  Biso   1.000  O
  O19      1.0000 0.78940  0.13810  0.97760  Biso   1.000  O
  O20      1.0000 0.80200  0.15780  0.76250  Biso   1.000  O
  O21      1.0000 0.12830  0.70020  0.78960  Biso   1.000  O
  O22      1.0000 0.92790  0.45870  0.66760  Biso   1.000  O
  O23      1.0000 0.16190  0.68630  0.56950  Biso   1.000  O
  O24      1.0000 0.32380  0.52100  0.69920  Biso   1.000  O
  H2       1.0000 0.35000  0.43200  0.66700  Biso   1.000  H
