data_QERWAL_clean
_audit_creation_date              2014-07-02
_audit_creation_method            'Materials Studio'
_symmetry_space_group_name_H-M    'P1'
_symmetry_Int_Tables_number       1
_symmetry_cell_setting            triclinic
loop_
_symmetry_equiv_pos_as_xyz
  x,y,z
_cell_length_a                    13.1698
_cell_length_b                    16.6969
_cell_length_c                    19.1965
_cell_angle_alpha                 90.0000
_cell_angle_beta                  90.0000
_cell_angle_gamma                 108.9670
loop_
_atom_site_label
_atom_site_type_symbol
_atom_site_fract_x
_atom_site_fract_y
_atom_site_fract_z
_atom_site_U_iso_or_equiv
_atom_site_adp_type
_atom_site_occupancy
Ni1    Ni    0.46247   0.52787   0.77383   0.01267  Uiso   1.00
Ni2    Ni    0.03753   0.97213   0.27383   0.01267  Uiso   1.00
Ni3    Ni    0.53753   0.47213   0.22617   0.01267  Uiso   1.00
Ni4    Ni    0.96247   0.02787   0.72617   0.01267  Uiso   1.00
Ni5    Ni    0.00000   0.50000   0.00000   0.01267  Uiso   1.00
Ni6    Ni    0.50000   0.00000   0.50000   0.01267  Uiso   1.00
H1     H     0.79410   0.58710   0.88510   0.01267  Uiso   1.00
H2     H     0.75460   0.76480   0.75370   0.01267  Uiso   1.00
H3     H     0.03200   0.81210   0.86190   0.01267  Uiso   1.00
H4     H     0.11150   0.37510   0.94660   0.01267  Uiso   1.00
H5     H     0.11740   0.29560   0.85080   0.01267  Uiso   1.00
H6     H     0.94310   0.41650   0.74570   0.01267  Uiso   1.00
H7     H     0.94250   0.49260   0.84530   0.01267  Uiso   1.00
H8     H     0.45940   0.63850   0.64770   0.01267  Uiso   1.00
H9     H     0.34650   0.64680   0.55980   0.01267  Uiso   1.00
H10    H     0.11630   0.44860   0.64710   0.01267  Uiso   1.00
H11    H     0.23590   0.44690   0.73350   0.01267  Uiso   1.00
H12    H     0.32160   0.63790   0.79910   0.01267  Uiso   1.00
H13    H     0.20260   0.65290   0.88180   0.01267  Uiso   1.00
H14    H     0.31090   0.50750   0.01180   0.01267  Uiso   1.00
H15    H     0.42490   0.49490   0.92430   0.01267  Uiso   1.00
H16    H     0.05100   0.25300   0.73100   0.01267  Uiso   1.00
H17    H     0.99800   0.31000   0.69400   0.01267  Uiso   1.00
H18    H     0.17800   0.58100   0.50800   0.01267  Uiso   1.00
H19    H     0.08500   0.51000   0.54400   0.01267  Uiso   1.00
H20    H     0.15700   0.63800   0.00400   0.01267  Uiso   1.00
H21    H     0.19800   0.58500   0.04900   0.01267  Uiso   1.00
H22    H     0.70590   0.91290   0.38510   0.01267  Uiso   1.00
H23    H     0.74540   0.73520   0.25370   0.01267  Uiso   1.00
H24    H     0.46800   0.68790   0.36190   0.01267  Uiso   1.00
H25    H     0.38850   0.12490   0.44660   0.01267  Uiso   1.00
H26    H     0.38260   0.20440   0.35080   0.01267  Uiso   1.00
H27    H     0.55690   0.08350   0.24570   0.01267  Uiso   1.00
H28    H     0.55750   0.00740   0.34530   0.01267  Uiso   1.00
H29    H     0.04060   0.86150   0.14770   0.01267  Uiso   1.00
H30    H     0.15350   0.85320   0.05980   0.01267  Uiso   1.00
H31    H     0.38370   0.05140   0.14710   0.01267  Uiso   1.00
H32    H     0.26410   0.05310   0.23350   0.01267  Uiso   1.00
H33    H     0.17840   0.86210   0.29910   0.01267  Uiso   1.00
H34    H     0.29740   0.84710   0.38180   0.01267  Uiso   1.00
H35    H     0.18910   0.99250   0.51180   0.01267  Uiso   1.00
H36    H     0.07510   0.00510   0.42430   0.01267  Uiso   1.00
H37    H     0.44900   0.24700   0.23100   0.01267  Uiso   1.00
H38    H     0.50200   0.19000   0.19400   0.01267  Uiso   1.00
H39    H     0.32200   0.91900   0.00800   0.01267  Uiso   1.00
H40    H     0.41500   0.99000   0.04400   0.01267  Uiso   1.00
H41    H     0.34300   0.86200   0.50400   0.01267  Uiso   1.00
H42    H     0.30200   0.91500   0.54900   0.01267  Uiso   1.00
H43    H     0.20590   0.41290   0.11490   0.01267  Uiso   1.00
H44    H     0.24540   0.23520   0.24630   0.01267  Uiso   1.00
H45    H     0.96800   0.18790   0.13810   0.01267  Uiso   1.00
H46    H     0.88850   0.62490   0.05340   0.01267  Uiso   1.00
H47    H     0.88260   0.70440   0.14920   0.01267  Uiso   1.00
H48    H     0.05690   0.58350   0.25430   0.01267  Uiso   1.00
H49    H     0.05750   0.50740   0.15470   0.01267  Uiso   1.00
H50    H     0.54060   0.36150   0.35230   0.01267  Uiso   1.00
H51    H     0.65350   0.35320   0.44020   0.01267  Uiso   1.00
H52    H     0.88370   0.55140   0.35290   0.01267  Uiso   1.00
H53    H     0.76410   0.55310   0.26650   0.01267  Uiso   1.00
H54    H     0.67840   0.36210   0.20090   0.01267  Uiso   1.00
H55    H     0.79740   0.34710   0.11820   0.01267  Uiso   1.00
H56    H     0.68910   0.49250   0.98820   0.01267  Uiso   1.00
H57    H     0.57510   0.50510   0.07570   0.01267  Uiso   1.00
H58    H     0.94900   0.74700   0.26900   0.01267  Uiso   1.00
H59    H     0.00200   0.69000   0.30600   0.01267  Uiso   1.00
H60    H     0.82200   0.41900   0.49200   0.01267  Uiso   1.00
H61    H     0.91500   0.49000   0.45600   0.01267  Uiso   1.00
H62    H     0.84300   0.36200   0.99600   0.01267  Uiso   1.00
H63    H     0.80200   0.41500   0.95100   0.01267  Uiso   1.00
H64    H     0.29410   0.08710   0.61490   0.01267  Uiso   1.00
H65    H     0.25460   0.26480   0.74630   0.01267  Uiso   1.00
H66    H     0.53200   0.31210   0.63810   0.01267  Uiso   1.00
H67    H     0.61150   0.87510   0.55340   0.01267  Uiso   1.00
H68    H     0.61740   0.79560   0.64920   0.01267  Uiso   1.00
H69    H     0.44310   0.91650   0.75430   0.01267  Uiso   1.00
H70    H     0.44250   0.99260   0.65470   0.01267  Uiso   1.00
H71    H     0.95940   0.13850   0.85230   0.01267  Uiso   1.00
H72    H     0.84650   0.14680   0.94020   0.01267  Uiso   1.00
H73    H     0.61630   0.94860   0.85290   0.01267  Uiso   1.00
H74    H     0.73590   0.94690   0.76650   0.01267  Uiso   1.00
H75    H     0.82160   0.13790   0.70090   0.01267  Uiso   1.00
H76    H     0.70260   0.15290   0.61820   0.01267  Uiso   1.00
H77    H     0.81090   0.00750   0.48820   0.01267  Uiso   1.00
H78    H     0.92490   0.99490   0.57570   0.01267  Uiso   1.00
H79    H     0.55100   0.75300   0.76900   0.01267  Uiso   1.00
H80    H     0.49800   0.81000   0.80600   0.01267  Uiso   1.00
H81    H     0.67800   0.08100   0.99200   0.01267  Uiso   1.00
H82    H     0.58500   0.01000   0.95600   0.01267  Uiso   1.00
H83    H     0.65700   0.13800   0.49600   0.01267  Uiso   1.00
H84    H     0.69800   0.08500   0.45100   0.01267  Uiso   1.00
C1     C     0.99270   0.66190   0.92780   0.01267  Uiso   1.00
C2     C     0.92540   0.69410   0.87910   0.01267  Uiso   1.00
C3     C     0.82130   0.64150   0.86410   0.01267  Uiso   1.00
C4     C     0.75710   0.66880   0.81830   0.01267  Uiso   1.00
C5     C     0.64470   0.61440   0.80500   0.01267  Uiso   1.00
C6     C     0.79740   0.74710   0.78620   0.01267  Uiso   1.00
C7     C     0.90070   0.79980   0.80170   0.01267  Uiso   1.00
C8     C     0.93690   0.88530   0.76890   0.01267  Uiso   1.00
C9     C     0.96320   0.77450   0.84940   0.01267  Uiso   1.00
C10    C     0.07530   0.38280   0.90560   0.01267  Uiso   1.00
C11    C     0.07920   0.33500   0.84850   0.01267  Uiso   1.00
C12    C     0.02760   0.34350   0.78680   0.01267  Uiso   1.00
C13    C     0.97700   0.40570   0.78670   0.01267  Uiso   1.00
C14    C     0.97730   0.45080   0.84670   0.01267  Uiso   1.00
C15    C     0.38860   0.59920   0.64730   0.01267  Uiso   1.00
C16    C     0.32210   0.60480   0.59480   0.01267  Uiso   1.00
C17    C     0.21680   0.54760   0.59290   0.01267  Uiso   1.00
C18    C     0.18670   0.48840   0.64620   0.01267  Uiso   1.00
C19    C     0.25870   0.48760   0.69720   0.01267  Uiso   1.00
C20    C     0.31810   0.60990   0.84250   0.01267  Uiso   1.00
C21    C     0.24740   0.61980   0.89180   0.01267  Uiso   1.00
C22    C     0.24210   0.58140   0.95590   0.01267  Uiso   1.00
C23    C     0.31090   0.53420   0.96810   0.01267  Uiso   1.00
C24    C     0.37860   0.52710   0.91540   0.01267  Uiso   1.00
C25    C     0.50730   0.83810   0.42780   0.01267  Uiso   1.00
C26    C     0.57460   0.80590   0.37910   0.01267  Uiso   1.00
C27    C     0.67870   0.85850   0.36410   0.01267  Uiso   1.00
C28    C     0.74290   0.83120   0.31830   0.01267  Uiso   1.00
C29    C     0.85530   0.88560   0.30500   0.01267  Uiso   1.00
C30    C     0.70260   0.75290   0.28620   0.01267  Uiso   1.00
C31    C     0.59930   0.70020   0.30170   0.01267  Uiso   1.00
C32    C     0.56310   0.61470   0.26890   0.01267  Uiso   1.00
C33    C     0.53680   0.72550   0.34940   0.01267  Uiso   1.00
C34    C     0.42470   0.11720   0.40560   0.01267  Uiso   1.00
C35    C     0.42080   0.16500   0.34850   0.01267  Uiso   1.00
C36    C     0.47240   0.15650   0.28680   0.01267  Uiso   1.00
C37    C     0.52300   0.09430   0.28670   0.01267  Uiso   1.00
C38    C     0.52270   0.04920   0.34670   0.01267  Uiso   1.00
C39    C     0.11140   0.90080   0.14730   0.01267  Uiso   1.00
C40    C     0.17790   0.89520   0.09480   0.01267  Uiso   1.00
C41    C     0.28320   0.95240   0.09290   0.01267  Uiso   1.00
C42    C     0.31330   0.01160   0.14620   0.01267  Uiso   1.00
C43    C     0.24130   0.01240   0.19720   0.01267  Uiso   1.00
C44    C     0.18190   0.89010   0.34250   0.01267  Uiso   1.00
C45    C     0.25260   0.88020   0.39180   0.01267  Uiso   1.00
C46    C     0.25790   0.91860   0.45590   0.01267  Uiso   1.00
C47    C     0.18910   0.96580   0.46810   0.01267  Uiso   1.00
C48    C     0.12140   0.97290   0.41540   0.01267  Uiso   1.00
C49    C     0.00730   0.33810   0.07220   0.01267  Uiso   1.00
C50    C     0.07460   0.30590   0.12090   0.01267  Uiso   1.00
C51    C     0.17870   0.35850   0.13590   0.01267  Uiso   1.00
C52    C     0.24290   0.33120   0.18170   0.01267  Uiso   1.00
C53    C     0.35530   0.38560   0.19500   0.01267  Uiso   1.00
C54    C     0.20260   0.25290   0.21380   0.01267  Uiso   1.00
C55    C     0.09930   0.20020   0.19830   0.01267  Uiso   1.00
C56    C     0.06310   0.11470   0.23110   0.01267  Uiso   1.00
C57    C     0.03680   0.22550   0.15060   0.01267  Uiso   1.00
C58    C     0.92470   0.61720   0.09440   0.01267  Uiso   1.00
C59    C     0.92080   0.66500   0.15150   0.01267  Uiso   1.00
C60    C     0.97240   0.65650   0.21320   0.01267  Uiso   1.00
C61    C     0.02300   0.59430   0.21330   0.01267  Uiso   1.00
C62    C     0.02270   0.54920   0.15330   0.01267  Uiso   1.00
C63    C     0.61140   0.40080   0.35270   0.01267  Uiso   1.00
C64    C     0.67790   0.39520   0.40520   0.01267  Uiso   1.00
C65    C     0.78320   0.45240   0.40710   0.01267  Uiso   1.00
C66    C     0.81330   0.51160   0.35380   0.01267  Uiso   1.00
C67    C     0.74130   0.51240   0.30280   0.01267  Uiso   1.00
C68    C     0.68190   0.39010   0.15750   0.01267  Uiso   1.00
C69    C     0.75260   0.38020   0.10820   0.01267  Uiso   1.00
C70    C     0.75790   0.41860   0.04410   0.01267  Uiso   1.00
C71    C     0.68910   0.46580   0.03190   0.01267  Uiso   1.00
C72    C     0.62140   0.47290   0.08460   0.01267  Uiso   1.00
C73    C     0.49270   0.16190   0.57220   0.01267  Uiso   1.00
C74    C     0.42540   0.19410   0.62090   0.01267  Uiso   1.00
C75    C     0.32130   0.14150   0.63590   0.01267  Uiso   1.00
C76    C     0.25710   0.16880   0.68170   0.01267  Uiso   1.00
C77    C     0.14470   0.11440   0.69500   0.01267  Uiso   1.00
C78    C     0.29740   0.24710   0.71380   0.01267  Uiso   1.00
C79    C     0.40070   0.29980   0.69830   0.01267  Uiso   1.00
C80    C     0.43690   0.38530   0.73110   0.01267  Uiso   1.00
C81    C     0.46320   0.27450   0.65060   0.01267  Uiso   1.00
C82    C     0.57530   0.88280   0.59440   0.01267  Uiso   1.00
C83    C     0.57920   0.83500   0.65150   0.01267  Uiso   1.00
C84    C     0.52760   0.84350   0.71320   0.01267  Uiso   1.00
C85    C     0.47700   0.90570   0.71330   0.01267  Uiso   1.00
C86    C     0.47730   0.95080   0.65330   0.01267  Uiso   1.00
C87    C     0.88860   0.09920   0.85270   0.01267  Uiso   1.00
C88    C     0.82210   0.10480   0.90520   0.01267  Uiso   1.00
C89    C     0.71680   0.04760   0.90710   0.01267  Uiso   1.00
C90    C     0.68670   0.98840   0.85380   0.01267  Uiso   1.00
C91    C     0.75870   0.98760   0.80280   0.01267  Uiso   1.00
C92    C     0.81810   0.10990   0.65750   0.01267  Uiso   1.00
C93    C     0.74740   0.11980   0.60820   0.01267  Uiso   1.00
C94    C     0.74210   0.08140   0.54410   0.01267  Uiso   1.00
C95    C     0.81090   0.03420   0.53190   0.01267  Uiso   1.00
C96    C     0.87860   0.02710   0.58460   0.01267  Uiso   1.00
N1     N     0.02280   0.44060   0.90740   0.01267  Uiso   1.00
N2     N     0.02690   0.29570   0.72990   0.01267  Uiso   1.00
N3     N     0.36040   0.54140   0.69880   0.01267  Uiso   1.00
N4     N     0.14640   0.54970   0.54230   0.01267  Uiso   1.00
N5     N     0.38310   0.56260   0.85250   0.01267  Uiso   1.00
N6     N     0.16840   0.58680   0.00660   0.01267  Uiso   1.00
N7     N     0.47720   0.05940   0.40740   0.01267  Uiso   1.00
N8     N     0.47310   0.20430   0.22990   0.01267  Uiso   1.00
N9     N     0.13960   0.95860   0.19880   0.01267  Uiso   1.00
N10    N     0.35360   0.95030   0.04230   0.01267  Uiso   1.00
N11    N     0.11690   0.93740   0.35250   0.01267  Uiso   1.00
N12    N     0.33160   0.91320   0.50660   0.01267  Uiso   1.00
N13    N     0.97720   0.55940   0.09260   0.01267  Uiso   1.00
N14    N     0.97310   0.70430   0.27010   0.01267  Uiso   1.00
N15    N     0.63960   0.45860   0.30120   0.01267  Uiso   1.00
N16    N     0.85360   0.45030   0.45770   0.01267  Uiso   1.00
N17    N     0.61690   0.43740   0.14750   0.01267  Uiso   1.00
N18    N     0.83160   0.41320   0.99340   0.01267  Uiso   1.00
N19    N     0.52280   0.94060   0.59260   0.01267  Uiso   1.00
N20    N     0.52690   0.79570   0.77010   0.01267  Uiso   1.00
N21    N     0.86040   0.04140   0.80120   0.01267  Uiso   1.00
N22    N     0.64640   0.04970   0.95770   0.01267  Uiso   1.00
N23    N     0.88310   0.06260   0.64750   0.01267  Uiso   1.00
N24    N     0.66840   0.08680   0.49340   0.01267  Uiso   1.00
O1     O     0.95420   0.58407   0.94291   0.01267  Uiso   1.00
O2     O     0.08020   0.71150   0.95080   0.01267  Uiso   1.00
O3     O     0.60560   0.54336   0.83467   0.01267  Uiso   1.00
O4     O     0.58800   0.63995   0.76222   0.01267  Uiso   1.00
O5     O     0.88650   0.89939   0.71707   0.01267  Uiso   1.00
O6     O     0.01400   0.94478   0.79546   0.01267  Uiso   1.00
O7     O     0.54580   0.91593   0.44291   0.01267  Uiso   1.00
O8     O     0.41980   0.78850   0.45080   0.01267  Uiso   1.00
O9     O     0.89440   0.95664   0.33467   0.01267  Uiso   1.00
O10    O     0.91200   0.86005   0.26222   0.01267  Uiso   1.00
O11    O     0.61350   0.60061   0.21707   0.01267  Uiso   1.00
O12    O     0.48600   0.55522   0.29546   0.01267  Uiso   1.00
O13    O     0.04580   0.41593   0.05709   0.01267  Uiso   1.00
O14    O     0.91980   0.28850   0.04920   0.01267  Uiso   1.00
O15    O     0.39440   0.45664   0.16533   0.01267  Uiso   1.00
O16    O     0.41200   0.36005   0.23778   0.01267  Uiso   1.00
O17    O     0.11350   0.10061   0.28293   0.01267  Uiso   1.00
O18    O     0.98600   0.05522   0.20454   0.01267  Uiso   1.00
O19    O     0.45420   0.08407   0.55709   0.01267  Uiso   1.00
O20    O     0.58020   0.21150   0.54920   0.01267  Uiso   1.00
O21    O     0.10560   0.04336   0.66533   0.01267  Uiso   1.00
O22    O     0.08800   0.13995   0.73778   0.01267  Uiso   1.00
O23    O     0.38650   0.39939   0.78293   0.01267  Uiso   1.00
O24    O     0.51400   0.44478   0.70454   0.01267  Uiso   1.00
