data_QERZUI_clean
_audit_creation_date              2014-07-02
_audit_creation_method            'Materials Studio'
_symmetry_space_group_name_H-M    'P1'
_symmetry_Int_Tables_number       1
_symmetry_cell_setting            triclinic
loop_
_symmetry_equiv_pos_as_xyz
  x,y,z
_cell_length_a                    5.0328
_cell_length_b                    11.1760
_cell_length_c                    12.6797
_cell_angle_alpha                 91.8477
_cell_angle_beta                  101.4470
_cell_angle_gamma                 80.6499
loop_
_atom_site_label
_atom_site_type_symbol
_atom_site_fract_x
_atom_site_fract_y
_atom_site_fract_z
_atom_site_U_iso_or_equiv
_atom_site_adp_type
_atom_site_occupancy
Cu1    Cu    0.39944   0.19775   0.22700   0.01267  Uiso   1.00
Cu2    Cu    0.17244   0.69775   0.77300   0.01267  Uiso   1.00
H1     H     0.58490   0.58990   0.45540   0.01267  Uiso   1.00
H2     H     0.17050   0.41060   0.87300   0.01267  Uiso   1.00
H3     H     0.40840   0.27300   0.00260   0.01267  Uiso   1.00
H4     H     0.63380   0.51440   0.06680   0.01267  Uiso   1.00
H5     H     0.89410   0.37750   0.19260   0.01267  Uiso   1.00
H6     H     0.09660   0.35730   0.51100   0.01267  Uiso   1.00
H7     H     0.03430   0.46730   0.66460   0.01267  Uiso   1.00
H8     H     0.50630   0.69270   0.60900   0.01267  Uiso   1.00
H9     H     0.12950   0.08990   0.54460   0.01267  Uiso   1.00
H10    H     0.29750   0.91060   0.12700   0.01267  Uiso   1.00
H11    H     0.40580   0.77300   0.99740   0.01267  Uiso   1.00
H12    H     0.56700   0.01440   0.93320   0.01267  Uiso   1.00
H13    H     0.70150   0.87750   0.80740   0.01267  Uiso   1.00
H14    H     0.58560   0.85730   0.48900   0.01267  Uiso   1.00
H15    H     0.36970   0.96730   0.33540   0.01267  Uiso   1.00
H16    H     0.89730   0.19270   0.39100   0.01267  Uiso   1.00
C1     C     0.34667   0.46160   0.46454   0.01267  Uiso   1.00
C2     C     0.40057   0.39150   0.36494   0.01267  Uiso   1.00
C3     C     0.47090   0.56360   0.49620   0.01267  Uiso   1.00
C4     C     0.10830   0.40510   0.93680   0.01267  Uiso   1.00
C5     C     0.25185   0.32320   0.01570   0.01267  Uiso   1.00
C6     C     0.79173   0.46680   0.05206   0.01267  Uiso   1.00
C7     C     0.87069   0.47890   0.95378   0.01267  Uiso   1.00
C8     C     0.70780   0.56760   0.86900   0.01267  Uiso   1.00
C9     C     0.94889   0.38390   0.12738   0.01267  Uiso   1.00
C10    C     0.18126   0.42520   0.52892   0.01267  Uiso   1.00
C11    C     0.14403   0.49230   0.62126   0.01267  Uiso   1.00
C12    C     0.42262   0.62500   0.58844   0.01267  Uiso   1.00
C13    C     0.88213   0.96160   0.53546   0.01267  Uiso   1.00
C14    C     0.03563   0.89150   0.63506   0.01267  Uiso   1.00
C15    C     0.97470   0.06360   0.50380   0.01267  Uiso   1.00
C16    C     0.17150   0.90510   0.06320   0.01267  Uiso   1.00
C17    C     0.23615   0.82320   0.98430   0.01267  Uiso   1.00
C18    C     0.73967   0.96680   0.94794   0.01267  Uiso   1.00
C19    C     0.91691   0.97890   0.04622   0.01267  Uiso   1.00
C20    C     0.83880   0.06760   0.13100   0.01267  Uiso   1.00
C21    C     0.82151   0.88390   0.87262   0.01267  Uiso   1.00
C22    C     0.65234   0.92520   0.47108   0.01267  Uiso   1.00
C23    C     0.52277   0.99230   0.37874   0.01267  Uiso   1.00
C24    C     0.83418   0.12500   0.41156   0.01267  Uiso   1.00
N1     N     0.17558   0.31290   0.10996   0.01267  Uiso   1.00
N2     N     0.25922   0.59050   0.64964   0.01267  Uiso   1.00
N3     N     0.06562   0.81290   0.89004   0.01267  Uiso   1.00
N4     N     0.60958   0.09050   0.35036   0.01267  Uiso   1.00
O1     O     0.26903   0.30300   0.34086   0.01267  Uiso   1.00
O2     O     0.81706   0.59750   0.79712   0.01267  Uiso   1.00
O3     O     0.56588   0.42010   0.31536   0.01267  Uiso   1.00
O4     O     0.46036   0.60420   0.87852   0.01267  Uiso   1.00
O5     O     0.92817   0.80300   0.65914   0.01267  Uiso   1.00
O6     O     0.01994   0.09750   0.20288   0.01267  Uiso   1.00
O7     O     0.25052   0.92010   0.68464   0.01267  Uiso   1.00
O8     O     0.58184   0.10420   0.12148   0.01267  Uiso   1.00
