data_QERZUI01_clean
_audit_creation_date              2014-07-02
_audit_creation_method            'Materials Studio'
_symmetry_space_group_name_H-M    'P1'
_symmetry_Int_Tables_number       1
_symmetry_cell_setting            triclinic
loop_
_symmetry_equiv_pos_as_xyz
  x,y,z
_cell_length_a                    5.1186
_cell_length_b                    11.3254
_cell_length_c                    12.5766
_cell_angle_alpha                 92.0293
_cell_angle_beta                  101.7420
_cell_angle_gamma                 79.9790
loop_
_atom_site_label
_atom_site_type_symbol
_atom_site_fract_x
_atom_site_fract_y
_atom_site_fract_z
_atom_site_U_iso_or_equiv
_atom_site_adp_type
_atom_site_occupancy
Cu1    Cu    0.05564   0.78349   0.22594   0.01267  Uiso   1.00
Cu2    Cu    0.82970   0.28349   0.77406   0.01267  Uiso   1.00
H1     H     0.87250   0.50700   0.66280   0.01267  Uiso   1.00
H2     H     0.65270   0.62200   0.51220   0.01267  Uiso   1.00
H3     H     0.09250   0.40560   0.45920   0.01267  Uiso   1.00
H4     H     0.32420   0.29720   0.61180   0.01267  Uiso   1.00
H5     H     0.33490   0.10780   0.80720   0.01267  Uiso   1.00
H6     H     0.59700   0.96920   0.93240   0.01267  Uiso   1.00
H7     H     0.04850   0.05650   0.12340   0.01267  Uiso   1.00
H8     H     0.81030   0.19750   0.99700   0.01267  Uiso   1.00
H9     H     0.20970   0.00700   0.33720   0.01267  Uiso   1.00
H10    H     0.14050   0.12200   0.48780   0.01267  Uiso   1.00
H11    H     0.63330   0.90560   0.54080   0.01267  Uiso   1.00
H12    H     0.71240   0.79720   0.38820   0.01267  Uiso   1.00
H13    H     0.52770   0.60780   0.19280   0.01267  Uiso   1.00
H14    H     0.66460   0.46920   0.06760   0.01267  Uiso   1.00
H15    H     0.92510   0.55650   0.87660   0.01267  Uiso   1.00
H16    H     0.81330   0.69750   0.00300   0.01267  Uiso   1.00
C1     C     0.71173   0.48680   0.62126   0.01267  Uiso   1.00
C2     C     0.58242   0.55590   0.53064   0.01267  Uiso   1.00
C3     C     0.34821   0.52590   0.46802   0.01267  Uiso   1.00
C4     C     0.25182   0.42790   0.49984   0.01267  Uiso   1.00
C5     C     0.39057   0.36350   0.59134   0.01267  Uiso   1.00
C6     C     0.19437   0.59810   0.36834   0.01267  Uiso   1.00
C7     C     0.27800   0.09810   0.87240   0.01267  Uiso   1.00
C8     C     0.43535   0.01410   0.94670   0.01267  Uiso   1.00
C9     C     0.35199   0.99660   0.04298   0.01267  Uiso   1.00
C10    C     0.11261   0.06630   0.05982   0.01267  Uiso   1.00
C11    C     0.96966   0.14970   0.98332   0.01267  Uiso   1.00
C12    C     0.51685   0.90840   0.12790   0.01267  Uiso   1.00
C13    C     0.09047   0.98680   0.37874   0.01267  Uiso   1.00
C14    C     0.05178   0.05590   0.46936   0.01267  Uiso   1.00
C15    C     0.88019   0.02590   0.53198   0.01267  Uiso   1.00
C16    C     0.75198   0.92790   0.50016   0.01267  Uiso   1.00
C17    C     0.79923   0.86350   0.40866   0.01267  Uiso   1.00
C18    C     0.82603   0.09810   0.63166   0.01267  Uiso   1.00
C19    C     0.40560   0.59810   0.12760   0.01267  Uiso   1.00
C20    C     0.48865   0.51410   0.05330   0.01267  Uiso   1.00
C21    C     0.30901   0.49660   0.95702   0.01267  Uiso   1.00
C22    C     0.05279   0.56630   0.94018   0.01267  Uiso   1.00
C23    C     0.98634   0.64970   0.01668   0.01267  Uiso   1.00
C24    C     0.38895   0.40840   0.87210   0.01267  Uiso   1.00
N1     N     0.62033   0.39350   0.65246   0.01267  Uiso   1.00
N2     N     0.04867   0.16610   0.88914   0.01267  Uiso   1.00
N3     N     0.96787   0.89350   0.34754   0.01267  Uiso   1.00
N4     N     0.15953   0.66610   0.11086   0.01267  Uiso   1.00
O1     O     0.30285   0.68310   0.34350   0.01267  Uiso   1.00
O2     O     0.97605   0.57230   0.32010   0.01267  Uiso   1.00
O3     O     0.76296   0.87390   0.11832   0.01267  Uiso   1.00
O4     O     0.40967   0.87630   0.19954   0.01267  Uiso   1.00
O5     O     0.95935   0.18310   0.65650   0.01267  Uiso   1.00
O6     O     0.65595   0.07230   0.67990   0.01267  Uiso   1.00
O7     O     0.64464   0.37390   0.88168   0.01267  Uiso   1.00
O8     O     0.21013   0.37630   0.80046   0.01267  Uiso   1.00
