data_image0
_cell_length_a       10.35
_cell_length_b       12.19
_cell_length_c       13
_cell_angle_alpha    90
_cell_angle_beta     90
_cell_angle_gamma    90

_symmetry_space_group_name_H-M    "P 1"
_symmetry_int_tables_number       1

loop_
  _symmetry_equiv_pos_as_xyz
  'x, y, z'

loop_
  _atom_site_label
  _atom_site_occupancy
  _atom_site_fract_x
  _atom_site_fract_y
  _atom_site_fract_z
  _atom_site_thermal_displace_type
  _atom_site_B_iso_or_equiv
  _atom_site_type_symbol
  O1       1.0000 0.54550  0.27750  0.16260  Biso   1.000  O
  O2       1.0000 0.39200  0.13380  0.21020  Biso   1.000  O
  O3       1.0000 0.10570  0.11190  0.24050  Biso   1.000  O
  O4       1.0000 0.72580  0.02410  0.90820  Biso   1.000  O
  O5       1.0000 0.45450  0.72250  0.16260  Biso   1.000  O
  O6       1.0000 0.60800  0.86620  0.21020  Biso   1.000  O
  O7       1.0000 0.89430  0.88810  0.24050  Biso   1.000  O
  O8       1.0000 0.27420  0.97590  0.90820  Biso   1.000  O
  O9       1.0000 0.45450  0.27750  0.33740  Biso   1.000  O
  O10      1.0000 0.60800  0.13380  0.28980  Biso   1.000  O
  O11      1.0000 0.89430  0.11190  0.25950  Biso   1.000  O
  O12      1.0000 0.27420  0.02410  0.59180  Biso   1.000  O
  O13      1.0000 0.54550  0.72250  0.33740  Biso   1.000  O
  O14      1.0000 0.39200  0.86620  0.28980  Biso   1.000  O
  O15      1.0000 0.10570  0.88810  0.25950  Biso   1.000  O
  O16      1.0000 0.72580  0.97590  0.59180  Biso   1.000  O
  O17      1.0000 0.45450  0.72250  0.83740  Biso   1.000  O
  O18      1.0000 0.60800  0.86620  0.78980  Biso   1.000  O
  O19      1.0000 0.89430  0.88810  0.75950  Biso   1.000  O
  O20      1.0000 0.27420  0.97590  0.09180  Biso   1.000  O
  O21      1.0000 0.54550  0.27750  0.83740  Biso   1.000  O
  O22      1.0000 0.39200  0.13380  0.78980  Biso   1.000  O
  O23      1.0000 0.10570  0.11190  0.75950  Biso   1.000  O
  O24      1.0000 0.72580  0.02410  0.09180  Biso   1.000  O
  O25      1.0000 0.54550  0.72250  0.66260  Biso   1.000  O
  O26      1.0000 0.39200  0.86620  0.71020  Biso   1.000  O
  O27      1.0000 0.10570  0.88810  0.74050  Biso   1.000  O
  O28      1.0000 0.72580  0.97590  0.40820  Biso   1.000  O
  O29      1.0000 0.45450  0.27750  0.66260  Biso   1.000  O
  O30      1.0000 0.60800  0.13380  0.71020  Biso   1.000  O
  O31      1.0000 0.89430  0.11190  0.74050  Biso   1.000  O
  O32      1.0000 0.27420  0.02410  0.40820  Biso   1.000  O
  In1      1.0000 0.55930  0.27030  0.00000  Biso   1.000  In
  P1       1.0000 0.78100  0.08340  0.00000  Biso   1.000  P
  C1       1.0000 0.57400  0.51230  0.00000  Biso   1.000  C
  O33      1.0000 0.64780  0.43190  0.00000  Biso   1.000  O
  O34      1.0000 0.60710  0.61110  0.00000  Biso   1.000  O
  O35      1.0000 0.74260  0.20150  0.00000  Biso   1.000  O
  O36      1.0000 0.92400  0.09100  0.00000  Biso   1.000  O
  In2      1.0000 0.44070  0.72970  0.00000  Biso   1.000  In
  P2       1.0000 0.21900  0.91660  0.00000  Biso   1.000  P
  C2       1.0000 0.42600  0.48770  0.00000  Biso   1.000  C
  O37      1.0000 0.35220  0.56810  0.00000  Biso   1.000  O
  O38      1.0000 0.39290  0.38890  0.00000  Biso   1.000  O
  O39      1.0000 0.25740  0.79850  0.00000  Biso   1.000  O
  O40      1.0000 0.07600  0.90900  0.00000  Biso   1.000  O
  In3      1.0000 0.44070  0.27030  0.50000  Biso   1.000  In
  P3       1.0000 0.21900  0.08340  0.50000  Biso   1.000  P
  C3       1.0000 0.42600  0.51230  0.50000  Biso   1.000  C
  O41      1.0000 0.35220  0.43190  0.50000  Biso   1.000  O
  O42      1.0000 0.39290  0.61110  0.50000  Biso   1.000  O
  O43      1.0000 0.25740  0.20150  0.50000  Biso   1.000  O
  O44      1.0000 0.07600  0.09100  0.50000  Biso   1.000  O
  In4      1.0000 0.55930  0.72970  0.50000  Biso   1.000  In
  P4       1.0000 0.78100  0.91660  0.50000  Biso   1.000  P
  C4       1.0000 0.57400  0.48770  0.50000  Biso   1.000  C
  O45      1.0000 0.64780  0.56810  0.50000  Biso   1.000  O
  O46      1.0000 0.60710  0.38890  0.50000  Biso   1.000  O
  O47      1.0000 0.74260  0.79850  0.50000  Biso   1.000  O
  O48      1.0000 0.92400  0.90900  0.50000  Biso   1.000  O
  In5      1.0000 0.27590  0.00000  0.25000  Biso   1.000  In
  In6      1.0000 0.72410  0.00000  0.25000  Biso   1.000  In
  In7      1.0000 0.72410  0.00000  0.75000  Biso   1.000  In
  In8      1.0000 0.27590  0.00000  0.75000  Biso   1.000  In
  P5       1.0000 0.50000  0.20430  0.25000  Biso   1.000  P
  P6       1.0000 0.50000  0.79570  0.25000  Biso   1.000  P
  P7       1.0000 0.50000  0.79570  0.75000  Biso   1.000  P
  P8       1.0000 0.50000  0.20430  0.75000  Biso   1.000  P
  C5       1.0000 0.00000  0.06670  0.25000  Biso   1.000  C
  C6       1.0000 0.00000  0.93330  0.25000  Biso   1.000  C
  C7       1.0000 0.00000  0.93330  0.75000  Biso   1.000  C
  C8       1.0000 0.00000  0.06670  0.75000  Biso   1.000  C
