data_image0
_cell_length_a       14.0189
_cell_length_b       13.4792
_cell_length_c       14.2787
_cell_angle_alpha    90
_cell_angle_beta     90.466
_cell_angle_gamma    90

_symmetry_space_group_name_H-M    "P 1"
_symmetry_int_tables_number       1

loop_
  _symmetry_equiv_pos_as_xyz
  'x, y, z'

loop_
  _atom_site_label
  _atom_site_occupancy
  _atom_site_fract_x
  _atom_site_fract_y
  _atom_site_fract_z
  _atom_site_thermal_displace_type
  _atom_site_B_iso_or_equiv
  _atom_site_type_symbol
  Zn1      1.0000 0.12160  0.13030  0.73420  Biso   1.000  Zn
  Zn2      1.0000 0.97410  0.73010  0.87420  Biso   1.000  Zn
  P1       1.0000 0.14650  0.61280  0.77370  Biso   1.000  P
  P2       1.0000 0.97480  0.25320  0.60720  Biso   1.000  P
  O1       1.0000 0.05830  0.18290  0.62370  Biso   1.000  O
  O2       1.0000 0.08700  0.99480  0.76010  Biso   1.000  O
  O3       1.0000 0.24950  0.61330  0.81110  Biso   1.000  O
  O4       1.0000 0.88900  0.22120  0.66250  Biso   1.000  O
  O5       1.0000 0.00810  0.86500  0.66490  Biso   1.000  O
  O6       1.0000 0.08430  0.64960  0.85310  Biso   1.000  O
  O7       1.0000 0.94870  0.25380  0.50440  Biso   1.000  O
  O8       1.0000 0.13880  0.68030  0.68930  Biso   1.000  O
  O9       1.0000 0.00360  0.35790  0.63590  Biso   1.000  O
  O10      1.0000 0.11990  0.50660  0.75050  Biso   1.000  O
  Zn3      1.0000 0.62160  0.63030  0.73420  Biso   1.000  Zn
  Zn4      1.0000 0.47410  0.23010  0.87420  Biso   1.000  Zn
  P3       1.0000 0.64650  0.11280  0.77370  Biso   1.000  P
  P4       1.0000 0.47480  0.75320  0.60720  Biso   1.000  P
  O11      1.0000 0.55830  0.68290  0.62370  Biso   1.000  O
  O12      1.0000 0.58700  0.49480  0.76010  Biso   1.000  O
  O13      1.0000 0.74950  0.11330  0.81110  Biso   1.000  O
  O14      1.0000 0.38900  0.72120  0.66250  Biso   1.000  O
  O15      1.0000 0.50810  0.36500  0.66490  Biso   1.000  O
  O16      1.0000 0.58430  0.14960  0.85310  Biso   1.000  O
  O17      1.0000 0.44870  0.75380  0.50440  Biso   1.000  O
  O18      1.0000 0.63880  0.18030  0.68930  Biso   1.000  O
  O19      1.0000 0.50360  0.85790  0.63590  Biso   1.000  O
  O20      1.0000 0.61990  0.00660  0.75050  Biso   1.000  O
  Zn5      1.0000 0.87840  0.13030  0.76580  Biso   1.000  Zn
  Zn6      1.0000 0.02590  0.73010  0.62580  Biso   1.000  Zn
  P5       1.0000 0.85350  0.61280  0.72630  Biso   1.000  P
  P6       1.0000 0.02520  0.25320  0.89280  Biso   1.000  P
  O21      1.0000 0.94170  0.18290  0.87630  Biso   1.000  O
  O22      1.0000 0.91300  0.99480  0.73990  Biso   1.000  O
  O23      1.0000 0.75050  0.61330  0.68890  Biso   1.000  O
  O24      1.0000 0.11100  0.22120  0.83750  Biso   1.000  O
  O25      1.0000 0.99190  0.86500  0.83510  Biso   1.000  O
  O26      1.0000 0.91570  0.64960  0.64690  Biso   1.000  O
  O27      1.0000 0.05130  0.25380  0.99560  Biso   1.000  O
  O28      1.0000 0.86120  0.68030  0.81070  Biso   1.000  O
  O29      1.0000 0.99640  0.35790  0.86410  Biso   1.000  O
  O30      1.0000 0.88010  0.50660  0.74950  Biso   1.000  O
  Zn7      1.0000 0.37840  0.63030  0.76580  Biso   1.000  Zn
  Zn8      1.0000 0.52590  0.23010  0.62580  Biso   1.000  Zn
  P7       1.0000 0.35350  0.11280  0.72630  Biso   1.000  P
  P8       1.0000 0.52520  0.75320  0.89280  Biso   1.000  P
  O31      1.0000 0.44170  0.68290  0.87630  Biso   1.000  O
  O32      1.0000 0.41300  0.49480  0.73990  Biso   1.000  O
  O33      1.0000 0.25050  0.11330  0.68890  Biso   1.000  O
  O34      1.0000 0.61100  0.72120  0.83750  Biso   1.000  O
  O35      1.0000 0.49190  0.36500  0.83510  Biso   1.000  O
  O36      1.0000 0.41570  0.14960  0.64690  Biso   1.000  O
  O37      1.0000 0.55130  0.75380  0.99560  Biso   1.000  O
  O38      1.0000 0.36120  0.18030  0.81070  Biso   1.000  O
  O39      1.0000 0.49640  0.85790  0.86410  Biso   1.000  O
  O40      1.0000 0.38010  0.00660  0.74950  Biso   1.000  O
  Zn9      1.0000 0.87840  0.86970  0.26580  Biso   1.000  Zn
  Zn10     1.0000 0.02590  0.26990  0.12580  Biso   1.000  Zn
  P9       1.0000 0.85350  0.38720  0.22630  Biso   1.000  P
  P10      1.0000 0.02520  0.74680  0.39280  Biso   1.000  P
  O41      1.0000 0.94170  0.81710  0.37630  Biso   1.000  O
  O42      1.0000 0.91300  0.00520  0.23990  Biso   1.000  O
  O43      1.0000 0.75050  0.38670  0.18890  Biso   1.000  O
  O44      1.0000 0.11100  0.77880  0.33750  Biso   1.000  O
  O45      1.0000 0.99190  0.13500  0.33510  Biso   1.000  O
  O46      1.0000 0.91570  0.35040  0.14690  Biso   1.000  O
  O47      1.0000 0.05130  0.74620  0.49560  Biso   1.000  O
  O48      1.0000 0.86120  0.31970  0.31070  Biso   1.000  O
  O49      1.0000 0.99640  0.64210  0.36410  Biso   1.000  O
  O50      1.0000 0.88010  0.49340  0.24950  Biso   1.000  O
  Zn11     1.0000 0.37840  0.36970  0.26580  Biso   1.000  Zn
  Zn12     1.0000 0.52590  0.76990  0.12580  Biso   1.000  Zn
  P11      1.0000 0.35350  0.88720  0.22630  Biso   1.000  P
  P12      1.0000 0.52520  0.24680  0.39280  Biso   1.000  P
  O51      1.0000 0.44170  0.31710  0.37630  Biso   1.000  O
  O52      1.0000 0.41300  0.50520  0.23990  Biso   1.000  O
  O53      1.0000 0.25050  0.88670  0.18890  Biso   1.000  O
  O54      1.0000 0.61100  0.27880  0.33750  Biso   1.000  O
  O55      1.0000 0.49190  0.63500  0.33510  Biso   1.000  O
  O56      1.0000 0.41570  0.85040  0.14690  Biso   1.000  O
  O57      1.0000 0.55130  0.24620  0.49560  Biso   1.000  O
  O58      1.0000 0.36120  0.81970  0.31070  Biso   1.000  O
  O59      1.0000 0.49640  0.14210  0.36410  Biso   1.000  O
  O60      1.0000 0.38010  0.99340  0.24950  Biso   1.000  O
  Zn13     1.0000 0.12160  0.86970  0.23420  Biso   1.000  Zn
  Zn14     1.0000 0.97410  0.26990  0.37420  Biso   1.000  Zn
  P13      1.0000 0.14650  0.38720  0.27370  Biso   1.000  P
  P14      1.0000 0.97480  0.74680  0.10720  Biso   1.000  P
  O61      1.0000 0.05830  0.81710  0.12370  Biso   1.000  O
  O62      1.0000 0.08700  0.00520  0.26010  Biso   1.000  O
  O63      1.0000 0.24950  0.38670  0.31110  Biso   1.000  O
  O64      1.0000 0.88900  0.77880  0.16250  Biso   1.000  O
  O65      1.0000 0.00810  0.13500  0.16490  Biso   1.000  O
  O66      1.0000 0.08430  0.35040  0.35310  Biso   1.000  O
  O67      1.0000 0.94870  0.74620  0.00440  Biso   1.000  O
  O68      1.0000 0.13880  0.31970  0.18930  Biso   1.000  O
  O69      1.0000 0.00360  0.64210  0.13590  Biso   1.000  O
  O70      1.0000 0.11990  0.49340  0.25050  Biso   1.000  O
  Zn15     1.0000 0.62160  0.36970  0.23420  Biso   1.000  Zn
  Zn16     1.0000 0.47410  0.76990  0.37420  Biso   1.000  Zn
  P15      1.0000 0.64650  0.88720  0.27370  Biso   1.000  P
  P16      1.0000 0.47480  0.24680  0.10720  Biso   1.000  P
  O71      1.0000 0.55830  0.31710  0.12370  Biso   1.000  O
  O72      1.0000 0.58700  0.50520  0.26010  Biso   1.000  O
  O73      1.0000 0.74950  0.88670  0.31110  Biso   1.000  O
  O74      1.0000 0.38900  0.27880  0.16250  Biso   1.000  O
  O75      1.0000 0.50810  0.63500  0.16490  Biso   1.000  O
  O76      1.0000 0.58430  0.85040  0.35310  Biso   1.000  O
  O77      1.0000 0.44870  0.24620  0.00440  Biso   1.000  O
  O78      1.0000 0.63880  0.81970  0.18930  Biso   1.000  O
  O79      1.0000 0.50360  0.14210  0.13590  Biso   1.000  O
  O80      1.0000 0.61990  0.99340  0.25050  Biso   1.000  O
  Zn17     1.0000 0.00000  0.43410  0.75000  Biso   1.000  Zn
  P17      1.0000 0.00000  0.93040  0.75000  Biso   1.000  P
  Zn18     1.0000 0.50000  0.93410  0.75000  Biso   1.000  Zn
  P18      1.0000 0.50000  0.43040  0.75000  Biso   1.000  P
  Zn19     1.0000 0.00000  0.56590  0.25000  Biso   1.000  Zn
  P19      1.0000 0.00000  0.06960  0.25000  Biso   1.000  P
  Zn20     1.0000 0.50000  0.06590  0.25000  Biso   1.000  Zn
  P20      1.0000 0.50000  0.56960  0.25000  Biso   1.000  P
