data_QESYOD_clean
_audit_creation_date              2014-07-02
_audit_creation_method            'Materials Studio'
_symmetry_space_group_name_H-M    'P1'
_symmetry_Int_Tables_number       1
_symmetry_cell_setting            triclinic
loop_
_symmetry_equiv_pos_as_xyz
  x,y,z
_cell_length_a                    16.3784
_cell_length_b                    16.3784
_cell_length_c                    16.3784
_cell_angle_alpha                 105.4390
_cell_angle_beta                  105.4390
_cell_angle_gamma                 105.4390
loop_
_atom_site_label
_atom_site_type_symbol
_atom_site_fract_x
_atom_site_fract_y
_atom_site_fract_z
_atom_site_U_iso_or_equiv
_atom_site_adp_type
_atom_site_occupancy
Cu1    Cu    0.56912   0.25054   0.93296   0.01267  Uiso   1.00
Cu2    Cu    0.74947   0.43087   0.06707   0.01267  Uiso   1.00
Cu3    Cu    0.93296   0.56912   0.25054   0.01267  Uiso   1.00
Cu4    Cu    0.06707   0.74947   0.43087   0.01267  Uiso   1.00
Cu5    Cu    0.25054   0.93296   0.56912   0.01267  Uiso   1.00
Cu6    Cu    0.43087   0.06707   0.74947   0.01267  Uiso   1.00
Cu7    Cu    0.43088   0.74946   0.06704   0.01267  Uiso   1.00
Cu8    Cu    0.25053   0.56913   0.93293   0.01267  Uiso   1.00
Cu9    Cu    0.06704   0.43088   0.74946   0.01267  Uiso   1.00
Cu10   Cu    0.93293   0.25053   0.56913   0.01267  Uiso   1.00
Cu11   Cu    0.74946   0.06704   0.43088   0.01267  Uiso   1.00
Cu12   Cu    0.56913   0.93293   0.25053   0.01267  Uiso   1.00
H1     H     0.47240   0.90700   0.75060   0.01267  Uiso   1.00
H2     H     0.38320   0.86610   0.76610   0.01267  Uiso   1.00
H3     H     0.61680   0.23310   0.13390   0.01267  Uiso   1.00
H4     H     0.52810   0.24960   0.09330   0.01267  Uiso   1.00
H5     H     0.60400   0.80000   0.86010   0.01267  Uiso   1.00
H6     H     0.61160   0.90150   0.89950   0.01267  Uiso   1.00
H7     H     0.60370   0.85990   0.79930   0.01267  Uiso   1.00
H8     H     0.45480   0.74260   0.68240   0.01267  Uiso   1.00
H9     H     0.37120   0.71100   0.71090   0.01267  Uiso   1.00
H10    H     0.45400   0.68190   0.74180   0.01267  Uiso   1.00
H11    H     0.39310   0.28890   0.01800   0.01267  Uiso   1.00
H12    H     0.39990   0.24270   0.92540   0.01267  Uiso   1.00
H13    H     0.75740   0.60030   0.07460   0.01267  Uiso   1.00
H14    H     0.71060   0.60720   0.98220   0.01267  Uiso   1.00
H15    H     0.29850   0.23470   0.78550   0.01267  Uiso   1.00
H16    H     0.33260   0.34020   0.81150   0.01267  Uiso   1.00
H17    H     0.22910   0.28470   0.78030   0.01267  Uiso   1.00
H18    H     0.23350   0.23440   0.97770   0.01267  Uiso   1.00
H19    H     0.22720   0.16650   0.88690   0.01267  Uiso   1.00
H20    H     0.16620   0.22530   0.88520   0.01267  Uiso   1.00
H21    H     0.75060   0.47240   0.90700   0.01267  Uiso   1.00
H22    H     0.76610   0.38320   0.86610   0.01267  Uiso   1.00
H23    H     0.13390   0.61680   0.23310   0.01267  Uiso   1.00
H24    H     0.09330   0.52810   0.24960   0.01267  Uiso   1.00
H25    H     0.86010   0.60400   0.80000   0.01267  Uiso   1.00
H26    H     0.89950   0.61160   0.90150   0.01267  Uiso   1.00
H27    H     0.79930   0.60370   0.85990   0.01267  Uiso   1.00
H28    H     0.68240   0.45480   0.74260   0.01267  Uiso   1.00
H29    H     0.71090   0.37120   0.71100   0.01267  Uiso   1.00
H30    H     0.74180   0.45400   0.68190   0.01267  Uiso   1.00
H31    H     0.01800   0.39310   0.28890   0.01267  Uiso   1.00
H32    H     0.92540   0.39990   0.24270   0.01267  Uiso   1.00
H33    H     0.07460   0.75740   0.60030   0.01267  Uiso   1.00
H34    H     0.98220   0.71060   0.60720   0.01267  Uiso   1.00
H35    H     0.78550   0.29850   0.23470   0.01267  Uiso   1.00
H36    H     0.81150   0.33260   0.34020   0.01267  Uiso   1.00
H37    H     0.78030   0.22910   0.28470   0.01267  Uiso   1.00
H38    H     0.97770   0.23350   0.23440   0.01267  Uiso   1.00
H39    H     0.88690   0.22720   0.16650   0.01267  Uiso   1.00
H40    H     0.88520   0.16620   0.22530   0.01267  Uiso   1.00
H41    H     0.90700   0.75060   0.47240   0.01267  Uiso   1.00
H42    H     0.86610   0.76610   0.38320   0.01267  Uiso   1.00
H43    H     0.23310   0.13390   0.61680   0.01267  Uiso   1.00
H44    H     0.24960   0.09330   0.52810   0.01267  Uiso   1.00
H45    H     0.80000   0.86010   0.60400   0.01267  Uiso   1.00
H46    H     0.90150   0.89950   0.61160   0.01267  Uiso   1.00
H47    H     0.85990   0.79930   0.60370   0.01267  Uiso   1.00
H48    H     0.74260   0.68240   0.45480   0.01267  Uiso   1.00
H49    H     0.71100   0.71090   0.37120   0.01267  Uiso   1.00
H50    H     0.68190   0.74180   0.45400   0.01267  Uiso   1.00
H51    H     0.28890   0.01800   0.39310   0.01267  Uiso   1.00
H52    H     0.24270   0.92540   0.39990   0.01267  Uiso   1.00
H53    H     0.60030   0.07460   0.75740   0.01267  Uiso   1.00
H54    H     0.60720   0.98220   0.71060   0.01267  Uiso   1.00
H55    H     0.23470   0.78550   0.29850   0.01267  Uiso   1.00
H56    H     0.34020   0.81150   0.33260   0.01267  Uiso   1.00
H57    H     0.28470   0.78030   0.22910   0.01267  Uiso   1.00
H58    H     0.23440   0.97770   0.23350   0.01267  Uiso   1.00
H59    H     0.16650   0.88690   0.22720   0.01267  Uiso   1.00
H60    H     0.22530   0.88520   0.16620   0.01267  Uiso   1.00
H61    H     0.52760   0.09300   0.24940   0.01267  Uiso   1.00
H62    H     0.61680   0.13390   0.23390   0.01267  Uiso   1.00
H63    H     0.38320   0.76690   0.86610   0.01267  Uiso   1.00
H64    H     0.47190   0.75040   0.90670   0.01267  Uiso   1.00
H65    H     0.39600   0.20000   0.13990   0.01267  Uiso   1.00
H66    H     0.38840   0.09850   0.10050   0.01267  Uiso   1.00
H67    H     0.39630   0.14010   0.20070   0.01267  Uiso   1.00
H68    H     0.54520   0.25740   0.31760   0.01267  Uiso   1.00
H69    H     0.62880   0.28900   0.28910   0.01267  Uiso   1.00
H70    H     0.54600   0.31810   0.25820   0.01267  Uiso   1.00
H71    H     0.60690   0.71110   0.98200   0.01267  Uiso   1.00
H72    H     0.60010   0.75730   0.07460   0.01267  Uiso   1.00
H73    H     0.24260   0.39970   0.92540   0.01267  Uiso   1.00
H74    H     0.28940   0.39280   0.01780   0.01267  Uiso   1.00
H75    H     0.70150   0.76530   0.21450   0.01267  Uiso   1.00
H76    H     0.66740   0.65980   0.18850   0.01267  Uiso   1.00
H77    H     0.77090   0.71530   0.21970   0.01267  Uiso   1.00
H78    H     0.76650   0.76560   0.02230   0.01267  Uiso   1.00
H79    H     0.77280   0.83350   0.11310   0.01267  Uiso   1.00
H80    H     0.83380   0.77470   0.11480   0.01267  Uiso   1.00
H81    H     0.24940   0.52760   0.09300   0.01267  Uiso   1.00
H82    H     0.23390   0.61680   0.13390   0.01267  Uiso   1.00
H83    H     0.86610   0.38320   0.76690   0.01267  Uiso   1.00
H84    H     0.90670   0.47190   0.75040   0.01267  Uiso   1.00
H85    H     0.13990   0.39600   0.20000   0.01267  Uiso   1.00
H86    H     0.10050   0.38840   0.09850   0.01267  Uiso   1.00
H87    H     0.20070   0.39630   0.14010   0.01267  Uiso   1.00
H88    H     0.31760   0.54520   0.25740   0.01267  Uiso   1.00
H89    H     0.28910   0.62880   0.28900   0.01267  Uiso   1.00
H90    H     0.25820   0.54600   0.31810   0.01267  Uiso   1.00
H91    H     0.98200   0.60690   0.71110   0.01267  Uiso   1.00
H92    H     0.07460   0.60010   0.75730   0.01267  Uiso   1.00
H93    H     0.92540   0.24260   0.39970   0.01267  Uiso   1.00
H94    H     0.01780   0.28940   0.39280   0.01267  Uiso   1.00
H95    H     0.21450   0.70150   0.76530   0.01267  Uiso   1.00
H96    H     0.18850   0.66740   0.65980   0.01267  Uiso   1.00
H97    H     0.21970   0.77090   0.71530   0.01267  Uiso   1.00
H98    H     0.02230   0.76650   0.76560   0.01267  Uiso   1.00
H99    H     0.11310   0.77280   0.83350   0.01267  Uiso   1.00
H100   H     0.11480   0.83380   0.77470   0.01267  Uiso   1.00
H101   H     0.09300   0.24940   0.52760   0.01267  Uiso   1.00
H102   H     0.13390   0.23390   0.61680   0.01267  Uiso   1.00
H103   H     0.76690   0.86610   0.38320   0.01267  Uiso   1.00
H104   H     0.75040   0.90670   0.47190   0.01267  Uiso   1.00
H105   H     0.20000   0.13990   0.39600   0.01267  Uiso   1.00
H106   H     0.09850   0.10050   0.38840   0.01267  Uiso   1.00
H107   H     0.14010   0.20070   0.39630   0.01267  Uiso   1.00
H108   H     0.25740   0.31760   0.54520   0.01267  Uiso   1.00
H109   H     0.28900   0.28910   0.62880   0.01267  Uiso   1.00
H110   H     0.31810   0.25820   0.54600   0.01267  Uiso   1.00
H111   H     0.71110   0.98200   0.60690   0.01267  Uiso   1.00
H112   H     0.75730   0.07460   0.60010   0.01267  Uiso   1.00
H113   H     0.39970   0.92540   0.24260   0.01267  Uiso   1.00
H114   H     0.39280   0.01780   0.28940   0.01267  Uiso   1.00
H115   H     0.76530   0.21450   0.70150   0.01267  Uiso   1.00
H116   H     0.65980   0.18850   0.66740   0.01267  Uiso   1.00
H117   H     0.71530   0.21970   0.77090   0.01267  Uiso   1.00
H118   H     0.76560   0.02230   0.76650   0.01267  Uiso   1.00
H119   H     0.83350   0.11310   0.77280   0.01267  Uiso   1.00
H120   H     0.77470   0.11480   0.83380   0.01267  Uiso   1.00
C1     C     0.52345   0.12309   0.02757   0.01267  Uiso   1.00
C2     C     0.51190   0.03816   0.03819   0.01267  Uiso   1.00
C3     C     0.47667   0.97291   0.87719   0.01267  Uiso   1.00
C4     C     0.44836   0.89000   0.79365   0.01267  Uiso   1.00
C5     C     0.48097   0.81574   0.81589   0.01267  Uiso   1.00
C6     C     0.55159   0.20608   0.10997   0.01267  Uiso   1.00
C7     C     0.58458   0.84680   0.84652   0.01267  Uiso   1.00
C8     C     0.43624   0.73004   0.73002   0.01267  Uiso   1.00
C9     C     0.62261   0.52704   0.01904   0.01267  Uiso   1.00
C10    C     0.53793   0.53766   0.00889   0.01267  Uiso   1.00
C11    C     0.47311   0.37733   0.98120   0.01267  Uiso   1.00
C12    C     0.39333   0.29561   0.96150   0.01267  Uiso   1.00
C13    C     0.30042   0.30086   0.91200   0.01267  Uiso   1.00
C14    C     0.70441   0.60693   0.03882   0.01267  Uiso   1.00
C15    C     0.28898   0.28902   0.81360   0.01267  Uiso   1.00
C16    C     0.22494   0.22486   0.91510   0.01267  Uiso   1.00
C17    C     0.02757   0.52345   0.12309   0.01267  Uiso   1.00
C18    C     0.03819   0.51190   0.03816   0.01267  Uiso   1.00
C19    C     0.87719   0.47667   0.97291   0.01267  Uiso   1.00
C20    C     0.79365   0.44836   0.89000   0.01267  Uiso   1.00
C21    C     0.81589   0.48097   0.81574   0.01267  Uiso   1.00
C22    C     0.10997   0.55159   0.20608   0.01267  Uiso   1.00
C23    C     0.84652   0.58458   0.84680   0.01267  Uiso   1.00
C24    C     0.73002   0.43624   0.73004   0.01267  Uiso   1.00
C25    C     0.01904   0.62261   0.52704   0.01267  Uiso   1.00
C26    C     0.00889   0.53793   0.53766   0.01267  Uiso   1.00
C27    C     0.98120   0.47311   0.37733   0.01267  Uiso   1.00
C28    C     0.96150   0.39333   0.29561   0.01267  Uiso   1.00
C29    C     0.91200   0.30042   0.30086   0.01267  Uiso   1.00
C30    C     0.03882   0.70441   0.60693   0.01267  Uiso   1.00
C31    C     0.81360   0.28898   0.28902   0.01267  Uiso   1.00
C32    C     0.91510   0.22494   0.22486   0.01267  Uiso   1.00
C33    C     0.12309   0.02757   0.52345   0.01267  Uiso   1.00
C34    C     0.03816   0.03819   0.51190   0.01267  Uiso   1.00
C35    C     0.97291   0.87719   0.47667   0.01267  Uiso   1.00
C36    C     0.89000   0.79365   0.44836   0.01267  Uiso   1.00
C37    C     0.81574   0.81589   0.48097   0.01267  Uiso   1.00
C38    C     0.20608   0.10997   0.55159   0.01267  Uiso   1.00
C39    C     0.84680   0.84652   0.58458   0.01267  Uiso   1.00
C40    C     0.73004   0.73002   0.43624   0.01267  Uiso   1.00
C41    C     0.52704   0.01904   0.62261   0.01267  Uiso   1.00
C42    C     0.53766   0.00889   0.53793   0.01267  Uiso   1.00
C43    C     0.37733   0.98120   0.47311   0.01267  Uiso   1.00
C44    C     0.29561   0.96150   0.39333   0.01267  Uiso   1.00
C45    C     0.30086   0.91200   0.30042   0.01267  Uiso   1.00
C46    C     0.60693   0.03882   0.70441   0.01267  Uiso   1.00
C47    C     0.28902   0.81360   0.28898   0.01267  Uiso   1.00
C48    C     0.22486   0.91510   0.22494   0.01267  Uiso   1.00
C49    C     0.47655   0.87691   0.97243   0.01267  Uiso   1.00
C50    C     0.48810   0.96184   0.96181   0.01267  Uiso   1.00
C51    C     0.52333   0.02709   0.12281   0.01267  Uiso   1.00
C52    C     0.55164   0.11000   0.20635   0.01267  Uiso   1.00
C53    C     0.51903   0.18426   0.18411   0.01267  Uiso   1.00
C54    C     0.44841   0.79392   0.89003   0.01267  Uiso   1.00
C55    C     0.41542   0.15320   0.15348   0.01267  Uiso   1.00
C56    C     0.56376   0.26996   0.26998   0.01267  Uiso   1.00
C57    C     0.37739   0.47296   0.98096   0.01267  Uiso   1.00
C58    C     0.46207   0.46234   0.99111   0.01267  Uiso   1.00
C59    C     0.52689   0.62267   0.01880   0.01267  Uiso   1.00
C60    C     0.60667   0.70439   0.03850   0.01267  Uiso   1.00
C61    C     0.69958   0.69914   0.08800   0.01267  Uiso   1.00
C62    C     0.29559   0.39307   0.96118   0.01267  Uiso   1.00
C63    C     0.71102   0.71098   0.18640   0.01267  Uiso   1.00
C64    C     0.77506   0.77514   0.08490   0.01267  Uiso   1.00
C65    C     0.97243   0.47655   0.87691   0.01267  Uiso   1.00
C66    C     0.96181   0.48810   0.96184   0.01267  Uiso   1.00
C67    C     0.12281   0.52333   0.02709   0.01267  Uiso   1.00
C68    C     0.20635   0.55164   0.11000   0.01267  Uiso   1.00
C69    C     0.18411   0.51903   0.18426   0.01267  Uiso   1.00
C70    C     0.89003   0.44841   0.79392   0.01267  Uiso   1.00
C71    C     0.15348   0.41542   0.15320   0.01267  Uiso   1.00
C72    C     0.26998   0.56376   0.26996   0.01267  Uiso   1.00
C73    C     0.98096   0.37739   0.47296   0.01267  Uiso   1.00
C74    C     0.99111   0.46207   0.46234   0.01267  Uiso   1.00
C75    C     0.01880   0.52689   0.62267   0.01267  Uiso   1.00
C76    C     0.03850   0.60667   0.70439   0.01267  Uiso   1.00
C77    C     0.08800   0.69958   0.69914   0.01267  Uiso   1.00
C78    C     0.96118   0.29559   0.39307   0.01267  Uiso   1.00
C79    C     0.18640   0.71102   0.71098   0.01267  Uiso   1.00
C80    C     0.08490   0.77506   0.77514   0.01267  Uiso   1.00
C81    C     0.87691   0.97243   0.47655   0.01267  Uiso   1.00
C82    C     0.96184   0.96181   0.48810   0.01267  Uiso   1.00
C83    C     0.02709   0.12281   0.52333   0.01267  Uiso   1.00
C84    C     0.11000   0.20635   0.55164   0.01267  Uiso   1.00
C85    C     0.18426   0.18411   0.51903   0.01267  Uiso   1.00
C86    C     0.79392   0.89003   0.44841   0.01267  Uiso   1.00
C87    C     0.15320   0.15348   0.41542   0.01267  Uiso   1.00
C88    C     0.26996   0.26998   0.56376   0.01267  Uiso   1.00
C89    C     0.47296   0.98096   0.37739   0.01267  Uiso   1.00
C90    C     0.46234   0.99111   0.46207   0.01267  Uiso   1.00
C91    C     0.62267   0.01880   0.52689   0.01267  Uiso   1.00
C92    C     0.70439   0.03850   0.60667   0.01267  Uiso   1.00
C93    C     0.69914   0.08800   0.69958   0.01267  Uiso   1.00
C94    C     0.39307   0.96118   0.29559   0.01267  Uiso   1.00
C95    C     0.71098   0.18640   0.71102   0.01267  Uiso   1.00
C96    C     0.77514   0.08490   0.77506   0.01267  Uiso   1.00
I1     I     0.73861   0.26139   0.99999   0.01267  Uiso   1.00
I2     I     0.50001   0.23807   0.76197   0.01267  Uiso   1.00
I3     I     0.99999   0.73861   0.26139   0.01267  Uiso   1.00
I4     I     0.76197   0.50001   0.23807   0.01267  Uiso   1.00
I5     I     0.26139   0.99999   0.73861   0.01267  Uiso   1.00
I6     I     0.23807   0.76197   0.50001   0.01267  Uiso   1.00
I7     I     0.26139   0.73861   0.00001   0.01267  Uiso   1.00
I8     I     0.49999   0.76193   0.23803   0.01267  Uiso   1.00
I9     I     0.00001   0.26139   0.73861   0.01267  Uiso   1.00
I10    I     0.23803   0.49999   0.76193   0.01267  Uiso   1.00
I11    I     0.73861   0.00001   0.26139   0.01267  Uiso   1.00
I12    I     0.76193   0.23803   0.49999   0.01267  Uiso   1.00
N1     N     0.51267   0.12970   0.94678   0.01267  Uiso   1.00
N2     N     0.48762   0.05359   0.87061   0.01267  Uiso   1.00
N3     N     0.62939   0.44701   0.01180   0.01267  Uiso   1.00
N4     N     0.55302   0.37064   0.98805   0.01267  Uiso   1.00
N5     N     0.94678   0.51267   0.12970   0.01267  Uiso   1.00
N6     N     0.87061   0.48762   0.05359   0.01267  Uiso   1.00
N7     N     0.01180   0.62939   0.44701   0.01267  Uiso   1.00
N8     N     0.98805   0.55302   0.37064   0.01267  Uiso   1.00
N9     N     0.12970   0.94678   0.51267   0.01267  Uiso   1.00
N10    N     0.05359   0.87061   0.48762   0.01267  Uiso   1.00
N11    N     0.44701   0.01180   0.62939   0.01267  Uiso   1.00
N12    N     0.37064   0.98805   0.55302   0.01267  Uiso   1.00
N13    N     0.48733   0.87030   0.05322   0.01267  Uiso   1.00
N14    N     0.51238   0.94641   0.12939   0.01267  Uiso   1.00
N15    N     0.37061   0.55299   0.98820   0.01267  Uiso   1.00
N16    N     0.44698   0.62936   0.01195   0.01267  Uiso   1.00
N17    N     0.05322   0.48733   0.87030   0.01267  Uiso   1.00
N18    N     0.12939   0.51238   0.94641   0.01267  Uiso   1.00
N19    N     0.98820   0.37061   0.55299   0.01267  Uiso   1.00
N20    N     0.01195   0.44698   0.62936   0.01267  Uiso   1.00
N21    N     0.87030   0.05322   0.48733   0.01267  Uiso   1.00
N22    N     0.94641   0.12939   0.51238   0.01267  Uiso   1.00
N23    N     0.55299   0.98820   0.37061   0.01267  Uiso   1.00
N24    N     0.62936   0.01195   0.44698   0.01267  Uiso   1.00
