data_QETCUO_clean
_audit_creation_date              2014-07-02
_audit_creation_method            'Materials Studio'
_symmetry_space_group_name_H-M    'P1'
_symmetry_Int_Tables_number       1
_symmetry_cell_setting            triclinic
loop_
_symmetry_equiv_pos_as_xyz
  x,y,z
_cell_length_a                    9.9380
_cell_length_b                    11.7130
_cell_length_c                    13.4980
_cell_angle_alpha                 66.8800
_cell_angle_beta                  86.9400
_cell_angle_gamma                 76.4500
loop_
_atom_site_label
_atom_site_type_symbol
_atom_site_fract_x
_atom_site_fract_y
_atom_site_fract_z
_atom_site_U_iso_or_equiv
_atom_site_adp_type
_atom_site_occupancy
Gd1    Gd    0.23641   0.52617   0.00482   0.01267  Uiso   1.00
Gd2    Gd    0.76359   0.47383   0.99518   0.01267  Uiso   1.00
H1     H     0.05520   0.23480   0.26550   0.01267  Uiso   1.00
H2     H     0.01160   0.12220   0.44150   0.01267  Uiso   1.00
H3     H     0.43790   0.00890   0.31930   0.01267  Uiso   1.00
H4     H     0.71800   0.70220   0.52420   0.01267  Uiso   1.00
H5     H     0.68610   0.60040   0.70490   0.01267  Uiso   1.00
H6     H     0.30350   0.82620   0.65780   0.01267  Uiso   1.00
H7     H     0.23980   0.56880   0.72640   0.01267  Uiso   1.00
H8     H     0.30780   0.59790   0.55480   0.01267  Uiso   1.00
H9     H     0.90880   0.46620   0.66140   0.01267  Uiso   1.00
H10    H     0.94480   0.76520   0.73450   0.01267  Uiso   1.00
H11    H     0.98840   0.87780   0.55850   0.01267  Uiso   1.00
H12    H     0.56210   0.99110   0.68070   0.01267  Uiso   1.00
H13    H     0.28200   0.29780   0.47580   0.01267  Uiso   1.00
H14    H     0.31390   0.39960   0.29510   0.01267  Uiso   1.00
H15    H     0.69650   0.17380   0.34220   0.01267  Uiso   1.00
H16    H     0.76020   0.43120   0.27360   0.01267  Uiso   1.00
H17    H     0.69220   0.40210   0.44520   0.01267  Uiso   1.00
H18    H     0.09120   0.53380   0.33860   0.01267  Uiso   1.00
C1     C     0.28890   0.20870   0.15876   0.01267  Uiso   1.00
C2     C     0.25250   0.13480   0.27255   0.01267  Uiso   1.00
C3     C     0.12360   0.16780   0.31040   0.01267  Uiso   1.00
C4     C     0.09850   0.09910   0.41640   0.01267  Uiso   1.00
C5     C     0.31570   0.96910   0.44740   0.01267  Uiso   1.00
C6     C     0.35010   0.03350   0.34251   0.01267  Uiso   1.00
C7     C     0.41830   0.85960   0.52490   0.01267  Uiso   1.00
C8     C     0.63400   0.72820   0.55170   0.01267  Uiso   1.00
C9     C     0.61560   0.66530   0.66060   0.01267  Uiso   1.00
C10    C     0.48980   0.70140   0.70161   0.01267  Uiso   1.00
C11    C     0.38920   0.80010   0.63257   0.01267  Uiso   1.00
C12    C     0.46510   0.63270   0.81908   0.01267  Uiso   1.00
C13    C     0.01320   0.49580   0.82367   0.01267  Uiso   1.00
C14    C     0.06590   0.51320   0.71344   0.01267  Uiso   1.00
C15    C     0.18670   0.55350   0.68030   0.01267  Uiso   1.00
C16    C     0.22650   0.57050   0.57680   0.01267  Uiso   1.00
C17    C     0.03900   0.51130   0.53940   0.01267  Uiso   1.00
C18    C     0.99100   0.49260   0.64150   0.01267  Uiso   1.00
C19    C     0.71110   0.79130   0.84124   0.01267  Uiso   1.00
C20    C     0.74750   0.86520   0.72745   0.01267  Uiso   1.00
C21    C     0.87640   0.83220   0.68960   0.01267  Uiso   1.00
C22    C     0.90150   0.90090   0.58360   0.01267  Uiso   1.00
C23    C     0.68430   0.03090   0.55260   0.01267  Uiso   1.00
C24    C     0.64990   0.96650   0.65749   0.01267  Uiso   1.00
C25    C     0.58170   0.14040   0.47510   0.01267  Uiso   1.00
C26    C     0.36600   0.27180   0.44830   0.01267  Uiso   1.00
C27    C     0.38440   0.33470   0.33940   0.01267  Uiso   1.00
C28    C     0.51020   0.29860   0.29839   0.01267  Uiso   1.00
C29    C     0.61080   0.19990   0.36743   0.01267  Uiso   1.00
C30    C     0.53490   0.36730   0.18092   0.01267  Uiso   1.00
C31    C     0.98680   0.50420   0.17633   0.01267  Uiso   1.00
C32    C     0.93410   0.48680   0.28656   0.01267  Uiso   1.00
C33    C     0.81330   0.44650   0.31970   0.01267  Uiso   1.00
C34    C     0.77350   0.42950   0.42320   0.01267  Uiso   1.00
C35    C     0.96100   0.48870   0.46060   0.01267  Uiso   1.00
C36    C     0.00900   0.50740   0.35850   0.01267  Uiso   1.00
N1     N     0.19140   0.00130   0.48510   0.01267  Uiso   1.00
N2     N     0.53920   0.82320   0.48430   0.01267  Uiso   1.00
N3     N     0.15620   0.55030   0.50650   0.01267  Uiso   1.00
N4     N     0.80860   0.99870   0.51490   0.01267  Uiso   1.00
N5     N     0.46080   0.17680   0.51570   0.01267  Uiso   1.00
N6     N     0.84380   0.44970   0.49350   0.01267  Uiso   1.00
O1     O     0.39650   0.16411   0.12352   0.01267  Uiso   1.00
O2     O     0.20441   0.31425   0.10700   0.01267  Uiso   1.00
O3     O     0.34383   0.64912   0.84964   0.01267  Uiso   1.00
O4     O     0.56839   0.55877   0.87834   0.01267  Uiso   1.00
O5     O     0.08885   0.50624   0.88935   0.01267  Uiso   1.00
O6     O     0.89562   0.47307   0.84225   0.01267  Uiso   1.00
O7     O     0.60350   0.83589   0.87648   0.01267  Uiso   1.00
O8     O     0.79559   0.68575   0.89300   0.01267  Uiso   1.00
O9     O     0.65617   0.35088   0.15036   0.01267  Uiso   1.00
O10    O     0.43161   0.44123   0.12166   0.01267  Uiso   1.00
O11    O     0.91115   0.49376   0.11065   0.01267  Uiso   1.00
O12    O     0.10438   0.52693   0.15775   0.01267  Uiso   1.00
