data_image0
_cell_length_a       9.074
_cell_length_b       9.23
_cell_length_c       9.309
_cell_angle_alpha    76.446
_cell_angle_beta     87.343
_cell_angle_gamma    89.388

_symmetry_space_group_name_H-M    "P 1"
_symmetry_int_tables_number       1

loop_
  _symmetry_equiv_pos_as_xyz
  'x, y, z'

loop_
  _atom_site_label
  _atom_site_occupancy
  _atom_site_fract_x
  _atom_site_fract_y
  _atom_site_fract_z
  _atom_site_thermal_displace_type
  _atom_site_B_iso_or_equiv
  _atom_site_type_symbol
  P1       1.0000 0.18744  0.38185  0.90258  Biso   1.000  P
  P2       1.0000 0.61755  0.37170  0.67634  Biso   1.000  P
  P3       1.0000 0.64606  0.16819  0.14566  Biso   1.000  P
  Al1      1.0000 0.83934  0.37467  0.92586  Biso   1.000  Al
  Al2      1.0000 0.43433  0.13220  0.91193  Biso   1.000  Al
  Al3      1.0000 0.61903  0.39099  0.34189  Biso   1.000  Al
  F1       1.0000 0.39419  0.98639  0.08364  Biso   1.000  F
  O1       1.0000 0.50263  0.25482  0.73720  Biso   1.000  O
  O2       1.0000 0.65206  0.99914  0.18779  Biso   1.000  O
  O3       1.0000 0.26206  0.23280  0.92873  Biso   1.000  O
  O4       1.0000 0.53321  0.23326  0.03311  Biso   1.000  O
  O5       1.0000 0.61790  0.22370  0.28875  Biso   1.000  O
  O6       1.0000 0.75284  0.35730  0.76943  Biso   1.000  O
  O7       1.0000 0.02464  0.36180  0.87730  Biso   1.000  O
  O8       1.0000 0.67540  0.35510  0.52280  Biso   1.000  O
  O9       1.0000 0.19800  0.45250  0.03565  Biso   1.000  O
  O10      1.0000 0.79995  0.23040  0.08065  Biso   1.000  O
  O11      1.0000 0.55445  0.52850  0.66190  Biso   1.000  O
  O12      1.0000 0.25030  0.49010  0.76322  Biso   1.000  O
  P4       1.0000 0.81256  0.61815  0.09742  Biso   1.000  P
  P5       1.0000 0.38245  0.62830  0.32366  Biso   1.000  P
  P6       1.0000 0.35394  0.83181  0.85434  Biso   1.000  P
  Al4      1.0000 0.16066  0.62533  0.07414  Biso   1.000  Al
  Al5      1.0000 0.56567  0.86780  0.08807  Biso   1.000  Al
  Al6      1.0000 0.38097  0.60901  0.65811  Biso   1.000  Al
  F2       1.0000 0.60581  0.01361  0.91636  Biso   1.000  F
  O13      1.0000 0.49737  0.74518  0.26280  Biso   1.000  O
  O14      1.0000 0.34794  0.00086  0.81221  Biso   1.000  O
  O15      1.0000 0.73794  0.76720  0.07127  Biso   1.000  O
  O16      1.0000 0.46679  0.76674  0.96689  Biso   1.000  O
  O17      1.0000 0.38210  0.77630  0.71125  Biso   1.000  O
  O18      1.0000 0.24716  0.64270  0.23057  Biso   1.000  O
  O19      1.0000 0.97536  0.63820  0.12270  Biso   1.000  O
  O20      1.0000 0.32460  0.64490  0.47720  Biso   1.000  O
  O21      1.0000 0.80200  0.54750  0.96435  Biso   1.000  O
  O22      1.0000 0.20005  0.76960  0.91935  Biso   1.000  O
  O23      1.0000 0.44555  0.47150  0.33810  Biso   1.000  O
  O24      1.0000 0.74970  0.50990  0.23678  Biso   1.000  O
