data_image0
_cell_length_a       14.328
_cell_length_b       14.328
_cell_length_c       10.0966
_cell_angle_alpha    90
_cell_angle_beta     90
_cell_angle_gamma    120

_symmetry_space_group_name_H-M    "P 1"
_symmetry_int_tables_number       1

loop_
  _symmetry_equiv_pos_as_xyz
  'x, y, z'

loop_
  _atom_site_label
  _atom_site_occupancy
  _atom_site_fract_x
  _atom_site_fract_y
  _atom_site_fract_z
  _atom_site_thermal_displace_type
  _atom_site_B_iso_or_equiv
  _atom_site_type_symbol
  Eu1      1.0000 0.58407  0.14347  0.61308  Biso   1.000  Eu
  S1       1.0000 0.33717  0.14357  0.57498  Biso   1.000  S
  S2       1.0000 0.52440  0.00489  0.36328  Biso   1.000  S
  O1       1.0000 0.57412  0.12260  0.36710  Biso   1.000  O
  O2       1.0000 0.41705  0.95305  0.30030  Biso   1.000  O
  O3       1.0000 0.51624  0.96889  0.50150  Biso   1.000  O
  O4       1.0000 0.58764  0.97063  0.28120  Biso   1.000  O
  O5       1.0000 0.24741  0.09469  0.47920  Biso   1.000  O
  O6       1.0000 0.40360  0.25905  0.54530  Biso   1.000  O
  O7       1.0000 0.40363  0.09230  0.55650  Biso   1.000  O
  O8       1.0000 0.29497  0.12490  0.70960  Biso   1.000  O
  O9       1.0000 0.72241  0.44457  0.76640  Biso   1.000  O
  Eu2      1.0000 0.85653  0.44060  0.61308  Biso   1.000  Eu
  S3       1.0000 0.85643  0.19360  0.57498  Biso   1.000  S
  S4       1.0000 0.99511  0.51951  0.36328  Biso   1.000  S
  O10      1.0000 0.87740  0.45152  0.36710  Biso   1.000  O
  O11      1.0000 0.04695  0.46400  0.30030  Biso   1.000  O
  O12      1.0000 0.03111  0.54735  0.50150  Biso   1.000  O
  O13      1.0000 0.02937  0.61701  0.28120  Biso   1.000  O
  O14      1.0000 0.90531  0.15272  0.47920  Biso   1.000  O
  O15      1.0000 0.74095  0.14455  0.54530  Biso   1.000  O
  O16      1.0000 0.90770  0.31133  0.55650  Biso   1.000  O
  O17      1.0000 0.87510  0.17007  0.70960  Biso   1.000  O
  O18      1.0000 0.55543  0.27784  0.76640  Biso   1.000  O
  Eu3      1.0000 0.55940  0.41593  0.61308  Biso   1.000  Eu
  S5       1.0000 0.80640  0.66283  0.57498  Biso   1.000  S
  S6       1.0000 0.48049  0.47560  0.36328  Biso   1.000  S
  O19      1.0000 0.54848  0.42588  0.36710  Biso   1.000  O
  O20      1.0000 0.53600  0.58295  0.30030  Biso   1.000  O
  O21      1.0000 0.45265  0.48376  0.50150  Biso   1.000  O
  O22      1.0000 0.38299  0.41236  0.28120  Biso   1.000  O
  O23      1.0000 0.84728  0.75259  0.47920  Biso   1.000  O
  O24      1.0000 0.85545  0.59640  0.54530  Biso   1.000  O
  O25      1.0000 0.68867  0.59637  0.55650  Biso   1.000  O
  O26      1.0000 0.82993  0.70503  0.70960  Biso   1.000  O
  O27      1.0000 0.72216  0.27759  0.76640  Biso   1.000  O
  Eu4      1.0000 0.14347  0.58407  0.11308  Biso   1.000  Eu
  S7       1.0000 0.14357  0.33717  0.07498  Biso   1.000  S
  S8       1.0000 0.00489  0.52440  0.86328  Biso   1.000  S
  O28      1.0000 0.12260  0.57412  0.86710  Biso   1.000  O
  O29      1.0000 0.95305  0.41705  0.80030  Biso   1.000  O
  O30      1.0000 0.96889  0.51624  0.00150  Biso   1.000  O
  O31      1.0000 0.97063  0.58764  0.78120  Biso   1.000  O
  O32      1.0000 0.09469  0.24741  0.97920  Biso   1.000  O
  O33      1.0000 0.25905  0.40360  0.04530  Biso   1.000  O
  O34      1.0000 0.09230  0.40363  0.05650  Biso   1.000  O
  O35      1.0000 0.12490  0.29497  0.20960  Biso   1.000  O
  O36      1.0000 0.44457  0.72241  0.26640  Biso   1.000  O
  Eu5      1.0000 0.44060  0.85653  0.11308  Biso   1.000  Eu
  S9       1.0000 0.19360  0.85643  0.07498  Biso   1.000  S
  S10      1.0000 0.51951  0.99511  0.86328  Biso   1.000  S
  O37      1.0000 0.45152  0.87740  0.86710  Biso   1.000  O
  O38      1.0000 0.46400  0.04695  0.80030  Biso   1.000  O
  O39      1.0000 0.54735  0.03111  0.00150  Biso   1.000  O
  O40      1.0000 0.61701  0.02937  0.78120  Biso   1.000  O
  O41      1.0000 0.15272  0.90531  0.97920  Biso   1.000  O
  O42      1.0000 0.14455  0.74095  0.04530  Biso   1.000  O
  O43      1.0000 0.31133  0.90770  0.05650  Biso   1.000  O
  O44      1.0000 0.17007  0.87510  0.20960  Biso   1.000  O
  O45      1.0000 0.27784  0.55543  0.26640  Biso   1.000  O
  Eu6      1.0000 0.41593  0.55940  0.11308  Biso   1.000  Eu
  S11      1.0000 0.66283  0.80640  0.07498  Biso   1.000  S
  S12      1.0000 0.47560  0.48049  0.86328  Biso   1.000  S
  O46      1.0000 0.42588  0.54848  0.86710  Biso   1.000  O
  O47      1.0000 0.58295  0.53600  0.80030  Biso   1.000  O
  O48      1.0000 0.48376  0.45265  0.00150  Biso   1.000  O
  O49      1.0000 0.41236  0.38299  0.78120  Biso   1.000  O
  O50      1.0000 0.75259  0.84728  0.97920  Biso   1.000  O
  O51      1.0000 0.59640  0.85545  0.04530  Biso   1.000  O
  O52      1.0000 0.59637  0.68867  0.05650  Biso   1.000  O
  O53      1.0000 0.70503  0.82993  0.20960  Biso   1.000  O
  O54      1.0000 0.27759  0.72216  0.26640  Biso   1.000  O
  S13      1.0000 0.66667  0.33333  0.82408  Biso   1.000  S
  O55      1.0000 0.66667  0.33333  0.96570  Biso   1.000  O
  O56      1.0000 0.66667  0.33333  0.52840  Biso   1.000  O
  S14      1.0000 0.33333  0.66667  0.32408  Biso   1.000  S
  O57      1.0000 0.33333  0.66667  0.46570  Biso   1.000  O
  O58      1.0000 0.33333  0.66667  0.02840  Biso   1.000  O
