data_image0
_cell_length_a       14.2698
_cell_length_b       14.2698
_cell_length_c       10.066
_cell_angle_alpha    90
_cell_angle_beta     90
_cell_angle_gamma    120

_symmetry_space_group_name_H-M    "P 1"
_symmetry_int_tables_number       1

loop_
  _symmetry_equiv_pos_as_xyz
  'x, y, z'

loop_
  _atom_site_label
  _atom_site_occupancy
  _atom_site_fract_x
  _atom_site_fract_y
  _atom_site_fract_z
  _atom_site_thermal_displace_type
  _atom_site_B_iso_or_equiv
  _atom_site_type_symbol
  Tb1      1.0000 0.44103  0.85659  0.21953  Biso   1.000  Tb
  S1       1.0000 0.66197  0.80623  0.25639  Biso   1.000  S
  S2       1.0000 0.51994  0.99534  0.46868  Biso   1.000  S
  O1       1.0000 0.70390  0.82920  0.12100  Biso   1.000  O
  O2       1.0000 0.59330  0.68840  0.27610  Biso   1.000  O
  O3       1.0000 0.59650  0.85720  0.28580  Biso   1.000  O
  O4       1.0000 0.75260  0.84660  0.35080  Biso   1.000  O
  O5       1.0000 0.54680  0.03030  0.32980  Biso   1.000  O
  O6       1.0000 0.61870  0.02960  0.55070  Biso   1.000  O
  O7       1.0000 0.45180  0.87650  0.46570  Biso   1.000  O
  O8       1.0000 0.46500  0.04780  0.53320  Biso   1.000  O
  O9       1.0000 0.44500  0.72400  0.06830  Biso   1.000  O
  Tb2      1.0000 0.14341  0.58444  0.21953  Biso   1.000  Tb
  S3       1.0000 0.19377  0.85574  0.25639  Biso   1.000  S
  S4       1.0000 0.00466  0.52460  0.46868  Biso   1.000  S
  O10      1.0000 0.17080  0.87470  0.12100  Biso   1.000  O
  O11      1.0000 0.31160  0.90490  0.27610  Biso   1.000  O
  O12      1.0000 0.14280  0.73930  0.28580  Biso   1.000  O
  O13      1.0000 0.15340  0.90600  0.35080  Biso   1.000  O
  O14      1.0000 0.96970  0.51650  0.32980  Biso   1.000  O
  O15      1.0000 0.97040  0.58910  0.55070  Biso   1.000  O
  O16      1.0000 0.12350  0.57530  0.46570  Biso   1.000  O
  O17      1.0000 0.95220  0.41720  0.53320  Biso   1.000  O
  O18      1.0000 0.27600  0.72100  0.06830  Biso   1.000  O
  Tb3      1.0000 0.41556  0.55897  0.21953  Biso   1.000  Tb
  S5       1.0000 0.14426  0.33803  0.25639  Biso   1.000  S
  S6       1.0000 0.47540  0.48006  0.46868  Biso   1.000  S
  O19      1.0000 0.12530  0.29610  0.12100  Biso   1.000  O
  O20      1.0000 0.09510  0.40670  0.27610  Biso   1.000  O
  O21      1.0000 0.26070  0.40350  0.28580  Biso   1.000  O
  O22      1.0000 0.09400  0.24740  0.35080  Biso   1.000  O
  O23      1.0000 0.48350  0.45320  0.32980  Biso   1.000  O
  O24      1.0000 0.41090  0.38130  0.55070  Biso   1.000  O
  O25      1.0000 0.42470  0.54820  0.46570  Biso   1.000  O
  O26      1.0000 0.58280  0.53500  0.53320  Biso   1.000  O
  O27      1.0000 0.27900  0.55500  0.06830  Biso   1.000  O
  Tb4      1.0000 0.85659  0.44103  0.71953  Biso   1.000  Tb
  S7       1.0000 0.80623  0.66197  0.75639  Biso   1.000  S
  S8       1.0000 0.99534  0.51994  0.96868  Biso   1.000  S
  O28      1.0000 0.82920  0.70390  0.62100  Biso   1.000  O
  O29      1.0000 0.68840  0.59330  0.77610  Biso   1.000  O
  O30      1.0000 0.85720  0.59650  0.78580  Biso   1.000  O
  O31      1.0000 0.84660  0.75260  0.85080  Biso   1.000  O
  O32      1.0000 0.03030  0.54680  0.82980  Biso   1.000  O
  O33      1.0000 0.02960  0.61870  0.05070  Biso   1.000  O
  O34      1.0000 0.87650  0.45180  0.96570  Biso   1.000  O
  O35      1.0000 0.04780  0.46500  0.03320  Biso   1.000  O
  O36      1.0000 0.72400  0.44500  0.56830  Biso   1.000  O
  Tb5      1.0000 0.58444  0.14341  0.71953  Biso   1.000  Tb
  S9       1.0000 0.85574  0.19377  0.75639  Biso   1.000  S
  S10      1.0000 0.52460  0.00466  0.96868  Biso   1.000  S
  O37      1.0000 0.87470  0.17080  0.62100  Biso   1.000  O
  O38      1.0000 0.90490  0.31160  0.77610  Biso   1.000  O
  O39      1.0000 0.73930  0.14280  0.78580  Biso   1.000  O
  O40      1.0000 0.90600  0.15340  0.85080  Biso   1.000  O
  O41      1.0000 0.51650  0.96970  0.82980  Biso   1.000  O
  O42      1.0000 0.58910  0.97040  0.05070  Biso   1.000  O
  O43      1.0000 0.57530  0.12350  0.96570  Biso   1.000  O
  O44      1.0000 0.41720  0.95220  0.03320  Biso   1.000  O
  O45      1.0000 0.72100  0.27600  0.56830  Biso   1.000  O
  Tb6      1.0000 0.55897  0.41556  0.71953  Biso   1.000  Tb
  S11      1.0000 0.33803  0.14426  0.75639  Biso   1.000  S
  S12      1.0000 0.48006  0.47540  0.96868  Biso   1.000  S
  O46      1.0000 0.29610  0.12530  0.62100  Biso   1.000  O
  O47      1.0000 0.40670  0.09510  0.77610  Biso   1.000  O
  O48      1.0000 0.40350  0.26070  0.78580  Biso   1.000  O
  O49      1.0000 0.24740  0.09400  0.85080  Biso   1.000  O
  O50      1.0000 0.45320  0.48350  0.82980  Biso   1.000  O
  O51      1.0000 0.38130  0.41090  0.05070  Biso   1.000  O
  O52      1.0000 0.54820  0.42470  0.96570  Biso   1.000  O
  O53      1.0000 0.53500  0.58280  0.03320  Biso   1.000  O
  O54      1.0000 0.55500  0.27900  0.56830  Biso   1.000  O
  S13      1.0000 0.33333  0.66667  0.00955  Biso   1.000  S
  O55      1.0000 0.33333  0.66667  0.86930  Biso   1.000  O
  O56      1.0000 0.33333  0.66667  0.30470  Biso   1.000  O
  S14      1.0000 0.66667  0.33333  0.50955  Biso   1.000  S
  O57      1.0000 0.66667  0.33333  0.36930  Biso   1.000  O
  O58      1.0000 0.66667  0.33333  0.80470  Biso   1.000  O
