data_QEZZIF_clean
_audit_creation_date              2014-07-02
_audit_creation_method            'Materials Studio'
_symmetry_space_group_name_H-M    'P1'
_symmetry_Int_Tables_number       1
_symmetry_cell_setting            triclinic
loop_
_symmetry_equiv_pos_as_xyz
  x,y,z
_cell_length_a                    11.4190
_cell_length_b                    20.2930
_cell_length_c                    20.2930
_cell_angle_alpha                 75.4377
_cell_angle_beta                  73.6590
_cell_angle_gamma                 73.6590
loop_
_atom_site_label
_atom_site_type_symbol
_atom_site_fract_x
_atom_site_fract_y
_atom_site_fract_z
_atom_site_U_iso_or_equiv
_atom_site_adp_type
_atom_site_occupancy
Cu1    Cu    0.84803   0.61952   0.11656   0.01267  Uiso   1.00
Cu2    Cu    0.41589   0.11656   0.61952   0.01267  Uiso   1.00
Cu3    Cu    0.65197   0.38344   0.88048   0.01267  Uiso   1.00
Cu4    Cu    0.08411   0.88048   0.38344   0.01267  Uiso   1.00
Cu5    Cu    0.15197   0.38048   0.88344   0.01267  Uiso   1.00
Cu6    Cu    0.58411   0.88344   0.38048   0.01267  Uiso   1.00
Cu7    Cu    0.34803   0.61656   0.11952   0.01267  Uiso   1.00
Cu8    Cu    0.91589   0.11952   0.61656   0.01267  Uiso   1.00
Cu9    Cu    0.11350   0.88650   0.88650   0.01267  Uiso   1.00
Cu10   Cu    0.38650   0.61350   0.61350   0.01267  Uiso   1.00
Cu11   Cu    0.88650   0.11350   0.11350   0.01267  Uiso   1.00
Cu12   Cu    0.61350   0.38650   0.38650   0.01267  Uiso   1.00
H1     H     0.26880   0.49830   0.23950   0.01267  Uiso   1.00
H2     H     0.08860   0.45470   0.28830   0.01267  Uiso   1.00
H3     H     0.91600   0.50340   0.23960   0.01267  Uiso   1.00
H4     H     0.09790   0.63450   0.10270   0.01267  Uiso   1.00
H5     H     0.99340   0.23950   0.49830   0.01267  Uiso   1.00
H6     H     0.16840   0.28830   0.45470   0.01267  Uiso   1.00
H7     H     0.34100   0.23960   0.50340   0.01267  Uiso   1.00
H8     H     0.16490   0.10270   0.63450   0.01267  Uiso   1.00
H9     H     0.23120   0.26050   0.00170   0.01267  Uiso   1.00
H10    H     0.41140   0.21170   0.04530   0.01267  Uiso   1.00
H11    H     0.58400   0.26040   0.99660   0.01267  Uiso   1.00
H12    H     0.40210   0.39730   0.86550   0.01267  Uiso   1.00
H13    H     0.50660   0.00170   0.26050   0.01267  Uiso   1.00
H14    H     0.33160   0.04530   0.21170   0.01267  Uiso   1.00
H15    H     0.15900   0.99660   0.26040   0.01267  Uiso   1.00
H16    H     0.33510   0.86550   0.39730   0.01267  Uiso   1.00
H17    H     0.73120   0.50170   0.76050   0.01267  Uiso   1.00
H18    H     0.91140   0.54530   0.71170   0.01267  Uiso   1.00
H19    H     0.08400   0.49660   0.76040   0.01267  Uiso   1.00
H20    H     0.90210   0.36550   0.89730   0.01267  Uiso   1.00
H21    H     0.00660   0.76050   0.50170   0.01267  Uiso   1.00
H22    H     0.83160   0.71170   0.54530   0.01267  Uiso   1.00
H23    H     0.65900   0.76040   0.49660   0.01267  Uiso   1.00
H24    H     0.83510   0.89730   0.36550   0.01267  Uiso   1.00
H25    H     0.76880   0.73950   0.99830   0.01267  Uiso   1.00
H26    H     0.58860   0.78830   0.95470   0.01267  Uiso   1.00
H27    H     0.41600   0.73960   0.00340   0.01267  Uiso   1.00
H28    H     0.59790   0.60270   0.13450   0.01267  Uiso   1.00
H29    H     0.49340   0.99830   0.73950   0.01267  Uiso   1.00
H30    H     0.66840   0.95470   0.78830   0.01267  Uiso   1.00
H31    H     0.84100   0.00340   0.73960   0.01267  Uiso   1.00
H32    H     0.66490   0.13450   0.60270   0.01267  Uiso   1.00
W1     W     0.93649   0.84182   0.15818   0.01267  Uiso   1.00
W2     W     0.06351   0.15818   0.84182   0.01267  Uiso   1.00
W3     W     0.56351   0.34182   0.65818   0.01267  Uiso   1.00
W4     W     0.43649   0.65818   0.34182   0.01267  Uiso   1.00
W5     W     0.75000   0.38029   0.11971   0.01267  Uiso   1.00
W6     W     0.75000   0.11971   0.38029   0.01267  Uiso   1.00
W7     W     0.25000   0.61971   0.88029   0.01267  Uiso   1.00
W8     W     0.25000   0.88029   0.61971   0.01267  Uiso   1.00
C1     C     0.89270   0.75881   0.12819   0.01267  Uiso   1.00
C2     C     0.11892   0.77300   0.13556   0.01267  Uiso   1.00
C3     C     0.01271   0.86478   0.04720   0.01267  Uiso   1.00
C4     C     0.79827   0.47638   0.11728   0.01267  Uiso   1.00
C5     C     0.08282   0.61642   0.96334   0.01267  Uiso   1.00
C6     C     0.17592   0.72794   0.88862   0.01267  Uiso   1.00
C7     C     0.59632   0.32934   0.15342   0.01267  Uiso   1.00
C8     C     0.19667   0.51822   0.22044   0.01267  Uiso   1.00
C9     C     0.09090   0.49219   0.24921   0.01267  Uiso   1.00
C10    C     0.98981   0.52092   0.22046   0.01267  Uiso   1.00
C11    C     0.09652   0.59651   0.14125   0.01267  Uiso   1.00
C12    C     0.22030   0.12819   0.75881   0.01267  Uiso   1.00
C13    C     0.97252   0.13556   0.77300   0.01267  Uiso   1.00
C14    C     0.07531   0.04720   0.86478   0.01267  Uiso   1.00
C15    C     0.60807   0.11728   0.47638   0.01267  Uiso   1.00
C16    C     0.33742   0.96334   0.61642   0.01267  Uiso   1.00
C17    C     0.20752   0.88862   0.72794   0.01267  Uiso   1.00
C18    C     0.92092   0.15342   0.32934   0.01267  Uiso   1.00
C19    C     0.06467   0.22044   0.51822   0.01267  Uiso   1.00
C20    C     0.16770   0.24921   0.49219   0.01267  Uiso   1.00
C21    C     0.26881   0.22046   0.52092   0.01267  Uiso   1.00
C22    C     0.16572   0.14125   0.59651   0.01267  Uiso   1.00
C23    C     0.60730   0.37181   0.74119   0.01267  Uiso   1.00
C24    C     0.38108   0.36444   0.72700   0.01267  Uiso   1.00
C25    C     0.48729   0.45280   0.63522   0.01267  Uiso   1.00
C26    C     0.70173   0.38272   0.02362   0.01267  Uiso   1.00
C27    C     0.41718   0.53666   0.88358   0.01267  Uiso   1.00
C28    C     0.32408   0.61138   0.77206   0.01267  Uiso   1.00
C29    C     0.90368   0.34658   0.17066   0.01267  Uiso   1.00
C30    C     0.30333   0.27956   0.98178   0.01267  Uiso   1.00
C31    C     0.40910   0.25079   0.00781   0.01267  Uiso   1.00
C32    C     0.51019   0.27954   0.97908   0.01267  Uiso   1.00
C33    C     0.40348   0.35875   0.90349   0.01267  Uiso   1.00
C34    C     0.27970   0.74119   0.37181   0.01267  Uiso   1.00
C35    C     0.52748   0.72700   0.36444   0.01267  Uiso   1.00
C36    C     0.42469   0.63522   0.45280   0.01267  Uiso   1.00
C37    C     0.89193   0.02362   0.38272   0.01267  Uiso   1.00
C38    C     0.16258   0.88358   0.53666   0.01267  Uiso   1.00
C39    C     0.29248   0.77206   0.61138   0.01267  Uiso   1.00
C40    C     0.57908   0.17066   0.34658   0.01267  Uiso   1.00
C41    C     0.43533   0.98178   0.27956   0.01267  Uiso   1.00
C42    C     0.33230   0.00781   0.25079   0.01267  Uiso   1.00
C43    C     0.23119   0.97908   0.27954   0.01267  Uiso   1.00
C44    C     0.33428   0.90349   0.35875   0.01267  Uiso   1.00
C45    C     0.10730   0.24119   0.87181   0.01267  Uiso   1.00
C46    C     0.88108   0.22700   0.86444   0.01267  Uiso   1.00
C47    C     0.98729   0.13522   0.95280   0.01267  Uiso   1.00
C48    C     0.20173   0.52362   0.88272   0.01267  Uiso   1.00
C49    C     0.91718   0.38358   0.03666   0.01267  Uiso   1.00
C50    C     0.82408   0.27206   0.11138   0.01267  Uiso   1.00
C51    C     0.40368   0.67066   0.84658   0.01267  Uiso   1.00
C52    C     0.80333   0.48178   0.77956   0.01267  Uiso   1.00
C53    C     0.90910   0.50781   0.75079   0.01267  Uiso   1.00
C54    C     0.01019   0.47908   0.77954   0.01267  Uiso   1.00
C55    C     0.90348   0.40349   0.85875   0.01267  Uiso   1.00
C56    C     0.77970   0.87181   0.24119   0.01267  Uiso   1.00
C57    C     0.02748   0.86444   0.22700   0.01267  Uiso   1.00
C58    C     0.92469   0.95280   0.13522   0.01267  Uiso   1.00
C59    C     0.39193   0.88272   0.52362   0.01267  Uiso   1.00
C60    C     0.66258   0.03666   0.38358   0.01267  Uiso   1.00
C61    C     0.79248   0.11138   0.27206   0.01267  Uiso   1.00
C62    C     0.07908   0.84658   0.67066   0.01267  Uiso   1.00
C63    C     0.93533   0.77956   0.48178   0.01267  Uiso   1.00
C64    C     0.83230   0.75079   0.50781   0.01267  Uiso   1.00
C65    C     0.73119   0.77954   0.47908   0.01267  Uiso   1.00
C66    C     0.83428   0.85875   0.40349   0.01267  Uiso   1.00
C67    C     0.39270   0.62819   0.25881   0.01267  Uiso   1.00
C68    C     0.61892   0.63556   0.27300   0.01267  Uiso   1.00
C69    C     0.51271   0.54720   0.36478   0.01267  Uiso   1.00
C70    C     0.29827   0.61728   0.97638   0.01267  Uiso   1.00
C71    C     0.58282   0.46334   0.11642   0.01267  Uiso   1.00
C72    C     0.67592   0.38862   0.22794   0.01267  Uiso   1.00
C73    C     0.09632   0.65342   0.82934   0.01267  Uiso   1.00
C74    C     0.69667   0.72044   0.01822   0.01267  Uiso   1.00
C75    C     0.59090   0.74921   0.99219   0.01267  Uiso   1.00
C76    C     0.48981   0.72046   0.02092   0.01267  Uiso   1.00
C77    C     0.59652   0.64125   0.09651   0.01267  Uiso   1.00
C78    C     0.72030   0.25881   0.62819   0.01267  Uiso   1.00
C79    C     0.47252   0.27300   0.63556   0.01267  Uiso   1.00
C80    C     0.57531   0.36478   0.54720   0.01267  Uiso   1.00
C81    C     0.10807   0.97638   0.61728   0.01267  Uiso   1.00
C82    C     0.83742   0.11642   0.46334   0.01267  Uiso   1.00
C83    C     0.70752   0.22794   0.38862   0.01267  Uiso   1.00
C84    C     0.42092   0.82934   0.65342   0.01267  Uiso   1.00
C85    C     0.56467   0.01822   0.72044   0.01267  Uiso   1.00
C86    C     0.66770   0.99219   0.74921   0.01267  Uiso   1.00
C87    C     0.76881   0.02092   0.72046   0.01267  Uiso   1.00
C88    C     0.66572   0.09651   0.64125   0.01267  Uiso   1.00
C89    C     0.77620   0.88790   0.11210   0.01267  Uiso   1.00
C90    C     0.93650   0.75460   0.24540   0.01267  Uiso   1.00
C91    C     0.22380   0.11210   0.88790   0.01267  Uiso   1.00
C92    C     0.06350   0.24540   0.75460   0.01267  Uiso   1.00
C93    C     0.72380   0.38790   0.61210   0.01267  Uiso   1.00
C94    C     0.56350   0.25460   0.74540   0.01267  Uiso   1.00
C95    C     0.27620   0.61210   0.38790   0.01267  Uiso   1.00
C96    C     0.43650   0.74540   0.25460   0.01267  Uiso   1.00
N1     N     0.87231   0.71223   0.11555   0.01267  Uiso   1.00
N2     N     0.21030   0.73223   0.12237   0.01267  Uiso   1.00
N3     N     0.05034   0.87610   0.98822   0.01267  Uiso   1.00
N4     N     0.82104   0.52721   0.11851   0.01267  Uiso   1.00
N5     N     0.99509   0.61680   0.00742   0.01267  Uiso   1.00
N6     N     0.13997   0.78541   0.89265   0.01267  Uiso   1.00
N7     N     0.51394   0.30236   0.16876   0.01267  Uiso   1.00
N8     N     0.99276   0.57349   0.16559   0.01267  Uiso   1.00
N9     N     0.19921   0.57112   0.16606   0.01267  Uiso   1.00
N10    N     0.29991   0.11555   0.71223   0.01267  Uiso   1.00
N11    N     0.93510   0.12237   0.73223   0.01267  Uiso   1.00
N12    N     0.08534   0.98822   0.87610   0.01267  Uiso   1.00
N13    N     0.53324   0.11851   0.52721   0.01267  Uiso   1.00
N14    N     0.38069   0.00742   0.61680   0.01267  Uiso   1.00
N15    N     0.18197   0.89265   0.78541   0.01267  Uiso   1.00
N16    N     0.01494   0.16876   0.30236   0.01267  Uiso   1.00
N17    N     0.26816   0.16559   0.57349   0.01267  Uiso   1.00
N18    N     0.06361   0.16606   0.57112   0.01267  Uiso   1.00
N19    N     0.62769   0.38445   0.78777   0.01267  Uiso   1.00
N20    N     0.28970   0.37763   0.76777   0.01267  Uiso   1.00
N21    N     0.44966   0.51178   0.62390   0.01267  Uiso   1.00
N22    N     0.67896   0.38149   0.97279   0.01267  Uiso   1.00
N23    N     0.50491   0.49258   0.88320   0.01267  Uiso   1.00
N24    N     0.36003   0.60735   0.71459   0.01267  Uiso   1.00
N25    N     0.98606   0.33124   0.19764   0.01267  Uiso   1.00
N26    N     0.50724   0.33441   0.92651   0.01267  Uiso   1.00
N27    N     0.30079   0.33394   0.92888   0.01267  Uiso   1.00
N28    N     0.20009   0.78777   0.38445   0.01267  Uiso   1.00
N29    N     0.56490   0.76777   0.37763   0.01267  Uiso   1.00
N30    N     0.41466   0.62390   0.51178   0.01267  Uiso   1.00
N31    N     0.96676   0.97279   0.38149   0.01267  Uiso   1.00
N32    N     0.11931   0.88320   0.49258   0.01267  Uiso   1.00
N33    N     0.31803   0.71459   0.60735   0.01267  Uiso   1.00
N34    N     0.48506   0.19764   0.33124   0.01267  Uiso   1.00
N35    N     0.23184   0.92651   0.33441   0.01267  Uiso   1.00
N36    N     0.43639   0.92888   0.33394   0.01267  Uiso   1.00
N37    N     0.12769   0.28777   0.88445   0.01267  Uiso   1.00
N38    N     0.78970   0.26777   0.87763   0.01267  Uiso   1.00
N39    N     0.94966   0.12390   0.01178   0.01267  Uiso   1.00
N40    N     0.17896   0.47279   0.88149   0.01267  Uiso   1.00
N41    N     0.00491   0.38320   0.99258   0.01267  Uiso   1.00
N42    N     0.86003   0.21459   0.10735   0.01267  Uiso   1.00
N43    N     0.48606   0.69764   0.83124   0.01267  Uiso   1.00
N44    N     0.00724   0.42651   0.83441   0.01267  Uiso   1.00
N45    N     0.80079   0.42888   0.83394   0.01267  Uiso   1.00
N46    N     0.70009   0.88445   0.28777   0.01267  Uiso   1.00
N47    N     0.06490   0.87763   0.26777   0.01267  Uiso   1.00
N48    N     0.91466   0.01178   0.12390   0.01267  Uiso   1.00
N49    N     0.46676   0.88149   0.47279   0.01267  Uiso   1.00
N50    N     0.61931   0.99258   0.38320   0.01267  Uiso   1.00
N51    N     0.81803   0.10735   0.21459   0.01267  Uiso   1.00
N52    N     0.98506   0.83124   0.69764   0.01267  Uiso   1.00
N53    N     0.73184   0.83441   0.42651   0.01267  Uiso   1.00
N54    N     0.93639   0.83394   0.42888   0.01267  Uiso   1.00
N55    N     0.37231   0.61555   0.21223   0.01267  Uiso   1.00
N56    N     0.71030   0.62237   0.23223   0.01267  Uiso   1.00
N57    N     0.55034   0.48822   0.37610   0.01267  Uiso   1.00
N58    N     0.32104   0.61851   0.02721   0.01267  Uiso   1.00
N59    N     0.49509   0.50742   0.11680   0.01267  Uiso   1.00
N60    N     0.63997   0.39265   0.28541   0.01267  Uiso   1.00
N61    N     0.01394   0.66876   0.80236   0.01267  Uiso   1.00
N62    N     0.49276   0.66559   0.07349   0.01267  Uiso   1.00
N63    N     0.69921   0.66606   0.07112   0.01267  Uiso   1.00
N64    N     0.79991   0.21223   0.61555   0.01267  Uiso   1.00
N65    N     0.43510   0.23223   0.62237   0.01267  Uiso   1.00
N66    N     0.58534   0.37610   0.48822   0.01267  Uiso   1.00
N67    N     0.03324   0.02721   0.61851   0.01267  Uiso   1.00
N68    N     0.88069   0.11680   0.50742   0.01267  Uiso   1.00
N69    N     0.68197   0.28541   0.39265   0.01267  Uiso   1.00
N70    N     0.51494   0.80236   0.66876   0.01267  Uiso   1.00
N71    N     0.76816   0.07349   0.66559   0.01267  Uiso   1.00
N72    N     0.56361   0.07112   0.66606   0.01267  Uiso   1.00
N73    N     0.69250   0.91230   0.08770   0.01267  Uiso   1.00
N74    N     0.93420   0.70920   0.29080   0.01267  Uiso   1.00
N75    N     0.30750   0.08770   0.91230   0.01267  Uiso   1.00
N76    N     0.06580   0.29080   0.70920   0.01267  Uiso   1.00
N77    N     0.80750   0.41230   0.58770   0.01267  Uiso   1.00
N78    N     0.56580   0.20920   0.79080   0.01267  Uiso   1.00
N79    N     0.19250   0.58770   0.41230   0.01267  Uiso   1.00
N80    N     0.43420   0.79080   0.20920   0.01267  Uiso   1.00
