data_QIDDAI02_clean
_audit_creation_date              2014-07-02
_audit_creation_method            'Materials Studio'
_symmetry_space_group_name_H-M    'P1'
_symmetry_Int_Tables_number       1
_symmetry_cell_setting            triclinic
loop_
_symmetry_equiv_pos_as_xyz
  x,y,z
_cell_length_a                    13.0442
_cell_length_b                    13.0442
_cell_length_c                    16.7580
_cell_angle_alpha                 109.7570
_cell_angle_beta                  109.7570
_cell_angle_gamma                 93.3393
loop_
_atom_site_label
_atom_site_type_symbol
_atom_site_fract_x
_atom_site_fract_y
_atom_site_fract_z
_atom_site_U_iso_or_equiv
_atom_site_adp_type
_atom_site_occupancy
Cd1    Cd    0.12240   0.87760   0.25000   0.01267  Uiso   1.00
Cd2    Cd    0.87760   0.12240   0.75000   0.01267  Uiso   1.00
H1     H     0.34880   0.82520   0.21830   0.01267  Uiso   1.00
H2     H     0.04200   0.70380   0.03980   0.01267  Uiso   1.00
H3     H     0.41870   0.73390   0.10980   0.01267  Uiso   1.00
H4     H     0.10300   0.60480   0.92720   0.01267  Uiso   1.00
H5     H     0.32800   0.64760   0.90390   0.01267  Uiso   1.00
H6     H     0.24640   0.53620   0.88120   0.01267  Uiso   1.00
H7     H     0.21680   0.13960   0.38570   0.01267  Uiso   1.00
H8     H     0.95850   0.94530   0.36050   0.01267  Uiso   1.00
H9     H     0.17990   0.29050   0.48560   0.01267  Uiso   1.00
H10    H     0.91490   0.09070   0.45990   0.01267  Uiso   1.00
H11    H     0.07560   0.32600   0.61270   0.01267  Uiso   1.00
H12    H     0.94560   0.28020   0.55400   0.01267  Uiso   1.00
H13    H     0.17480   0.65120   0.28170   0.01267  Uiso   1.00
H14    H     0.29620   0.95800   0.46020   0.01267  Uiso   1.00
H15    H     0.26610   0.58130   0.39020   0.01267  Uiso   1.00
H16    H     0.39520   0.89700   0.57280   0.01267  Uiso   1.00
H17    H     0.35240   0.67200   0.59610   0.01267  Uiso   1.00
H18    H     0.46380   0.75360   0.61880   0.01267  Uiso   1.00
H19    H     0.86040   0.78320   0.11430   0.01267  Uiso   1.00
H20    H     0.05470   0.04150   0.13950   0.01267  Uiso   1.00
H21    H     0.70950   0.82010   0.01440   0.01267  Uiso   1.00
H22    H     0.90930   0.08510   0.04010   0.01267  Uiso   1.00
H23    H     0.67400   0.92440   0.88730   0.01267  Uiso   1.00
H24    H     0.71980   0.05440   0.94600   0.01267  Uiso   1.00
H25    H     0.65120   0.17480   0.78170   0.01267  Uiso   1.00
H26    H     0.95800   0.29620   0.96020   0.01267  Uiso   1.00
H27    H     0.58130   0.26610   0.89020   0.01267  Uiso   1.00
H28    H     0.89700   0.39520   0.07280   0.01267  Uiso   1.00
H29    H     0.67200   0.35240   0.09610   0.01267  Uiso   1.00
H30    H     0.75360   0.46380   0.11880   0.01267  Uiso   1.00
H31    H     0.78320   0.86040   0.61430   0.01267  Uiso   1.00
H32    H     0.04150   0.05470   0.63950   0.01267  Uiso   1.00
H33    H     0.82010   0.70950   0.51440   0.01267  Uiso   1.00
H34    H     0.08510   0.90930   0.54010   0.01267  Uiso   1.00
H35    H     0.92440   0.67400   0.38730   0.01267  Uiso   1.00
H36    H     0.05440   0.71980   0.44600   0.01267  Uiso   1.00
H37    H     0.82520   0.34880   0.71830   0.01267  Uiso   1.00
H38    H     0.70380   0.04200   0.53980   0.01267  Uiso   1.00
H39    H     0.73390   0.41870   0.60980   0.01267  Uiso   1.00
H40    H     0.60480   0.10300   0.42720   0.01267  Uiso   1.00
H41    H     0.64760   0.32800   0.40390   0.01267  Uiso   1.00
H42    H     0.53620   0.24640   0.38120   0.01267  Uiso   1.00
H43    H     0.13960   0.21680   0.88570   0.01267  Uiso   1.00
H44    H     0.94530   0.95850   0.86050   0.01267  Uiso   1.00
H45    H     0.29050   0.17990   0.98560   0.01267  Uiso   1.00
H46    H     0.09070   0.91490   0.95990   0.01267  Uiso   1.00
H47    H     0.32600   0.07560   0.11270   0.01267  Uiso   1.00
H48    H     0.28020   0.94560   0.05400   0.01267  Uiso   1.00
C1     C     0.29809   0.78063   0.15800   0.01267  Uiso   1.00
C2     C     0.11962   0.70948   0.05439   0.01267  Uiso   1.00
C3     C     0.34070   0.72572   0.09373   0.01267  Uiso   1.00
C4     C     0.15544   0.65054   0.98646   0.01267  Uiso   1.00
C5     C     0.26839   0.65847   0.00539   0.01267  Uiso   1.00
C6     C     0.30790   0.59610   0.93054   0.01267  Uiso   1.00
C7     C     0.40666   0.54614   0.96520   0.01267  Uiso   1.00
C8     C     0.39465   0.44241   0.97022   0.01267  Uiso   1.00
C9     C     0.48508   0.39790   0.00395   0.01267  Uiso   1.00
C10    C     0.15375   0.12909   0.40037   0.01267  Uiso   1.00
C11    C     0.00439   0.01673   0.38589   0.01267  Uiso   1.00
C12    C     0.13232   0.22002   0.46055   0.01267  Uiso   1.00
C13    C     0.97770   0.10342   0.44549   0.01267  Uiso   1.00
C14    C     0.04242   0.20822   0.48398   0.01267  Uiso   1.00
C15    C     0.01695   0.30465   0.55091   0.01267  Uiso   1.00
C16    C     0.00962   0.40538   0.52512   0.01267  Uiso   1.00
C17    C     0.91743   0.40983   0.45607   0.01267  Uiso   1.00
C18    C     0.90731   0.50051   0.43122   0.01267  Uiso   1.00
C19    C     0.21937   0.70191   0.34200   0.01267  Uiso   1.00
C20    C     0.29052   0.88038   0.44561   0.01267  Uiso   1.00
C21    C     0.27428   0.65930   0.40627   0.01267  Uiso   1.00
C22    C     0.34946   0.84456   0.51354   0.01267  Uiso   1.00
C23    C     0.34153   0.73161   0.49461   0.01267  Uiso   1.00
C24    C     0.40390   0.69210   0.56946   0.01267  Uiso   1.00
C25    C     0.45386   0.59334   0.53480   0.01267  Uiso   1.00
C26    C     0.55759   0.60535   0.52978   0.01267  Uiso   1.00
C27    C     0.60210   0.51492   0.49605   0.01267  Uiso   1.00
C28    C     0.87091   0.84625   0.09963   0.01267  Uiso   1.00
C29    C     0.98327   0.99561   0.11411   0.01267  Uiso   1.00
C30    C     0.77998   0.86768   0.03945   0.01267  Uiso   1.00
C31    C     0.89658   0.02230   0.05451   0.01267  Uiso   1.00
C32    C     0.79178   0.95758   0.01602   0.01267  Uiso   1.00
C33    C     0.69535   0.98305   0.94909   0.01267  Uiso   1.00
C34    C     0.59462   0.99038   0.97488   0.01267  Uiso   1.00
C35    C     0.59017   0.08257   0.04393   0.01267  Uiso   1.00
C36    C     0.49949   0.09269   0.06878   0.01267  Uiso   1.00
C37    C     0.70191   0.21937   0.84200   0.01267  Uiso   1.00
C38    C     0.88038   0.29052   0.94561   0.01267  Uiso   1.00
C39    C     0.65930   0.27428   0.90627   0.01267  Uiso   1.00
C40    C     0.84456   0.34946   0.01354   0.01267  Uiso   1.00
C41    C     0.73161   0.34153   0.99461   0.01267  Uiso   1.00
C42    C     0.69210   0.40390   0.06946   0.01267  Uiso   1.00
C43    C     0.59334   0.45386   0.03480   0.01267  Uiso   1.00
C44    C     0.60535   0.55759   0.02978   0.01267  Uiso   1.00
C45    C     0.51492   0.60210   0.99605   0.01267  Uiso   1.00
C46    C     0.84625   0.87091   0.59963   0.01267  Uiso   1.00
C47    C     0.99561   0.98327   0.61411   0.01267  Uiso   1.00
C48    C     0.86768   0.77998   0.53945   0.01267  Uiso   1.00
C49    C     0.02230   0.89658   0.55451   0.01267  Uiso   1.00
C50    C     0.95758   0.79178   0.51602   0.01267  Uiso   1.00
C51    C     0.98305   0.69535   0.44909   0.01267  Uiso   1.00
C52    C     0.99038   0.59462   0.47488   0.01267  Uiso   1.00
C53    C     0.08257   0.59017   0.54393   0.01267  Uiso   1.00
C54    C     0.09269   0.49949   0.56878   0.01267  Uiso   1.00
C55    C     0.78063   0.29809   0.65800   0.01267  Uiso   1.00
C56    C     0.70948   0.11962   0.55439   0.01267  Uiso   1.00
C57    C     0.72572   0.34070   0.59373   0.01267  Uiso   1.00
C58    C     0.65054   0.15544   0.48646   0.01267  Uiso   1.00
C59    C     0.65847   0.26839   0.50539   0.01267  Uiso   1.00
C60    C     0.59610   0.30790   0.43054   0.01267  Uiso   1.00
C61    C     0.54614   0.40666   0.46520   0.01267  Uiso   1.00
C62    C     0.44241   0.39465   0.47022   0.01267  Uiso   1.00
C63    C     0.39790   0.48508   0.50395   0.01267  Uiso   1.00
C64    C     0.12909   0.15375   0.90037   0.01267  Uiso   1.00
C65    C     0.01673   0.00439   0.88589   0.01267  Uiso   1.00
C66    C     0.22002   0.13232   0.96055   0.01267  Uiso   1.00
C67    C     0.10342   0.97770   0.94549   0.01267  Uiso   1.00
C68    C     0.20822   0.04242   0.98398   0.01267  Uiso   1.00
C69    C     0.30465   0.01695   0.05091   0.01267  Uiso   1.00
C70    C     0.40538   0.00962   0.02512   0.01267  Uiso   1.00
C71    C     0.40983   0.91743   0.95607   0.01267  Uiso   1.00
C72    C     0.50051   0.90731   0.93122   0.01267  Uiso   1.00
N1     N     0.18923   0.77441   0.13988   0.01267  Uiso   1.00
N2     N     0.09116   0.02804   0.36214   0.01267  Uiso   1.00
N3     N     0.22559   0.81077   0.36012   0.01267  Uiso   1.00
N4     N     0.97196   0.90884   0.13786   0.01267  Uiso   1.00
N5     N     0.81077   0.22559   0.86012   0.01267  Uiso   1.00
N6     N     0.90884   0.97196   0.63786   0.01267  Uiso   1.00
N7     N     0.77441   0.18923   0.63988   0.01267  Uiso   1.00
N8     N     0.02804   0.09116   0.86214   0.01267  Uiso   1.00
F1     F     0.29202   0.38314   0.94120   0.01267  Uiso   1.00
F2     F     0.46757   0.29687   0.00723   0.01267  Uiso   1.00
F3     F     0.83324   0.32020   0.40940   0.01267  Uiso   1.00
F4     F     0.81398   0.49534   0.36202   0.01267  Uiso   1.00
F5     F     0.61686   0.70798   0.55880   0.01267  Uiso   1.00
F6     F     0.70313   0.53243   0.49277   0.01267  Uiso   1.00
F7     F     0.67980   0.16676   0.09060   0.01267  Uiso   1.00
F8     F     0.50466   0.18602   0.13798   0.01267  Uiso   1.00
F9     F     0.70798   0.61686   0.05880   0.01267  Uiso   1.00
F10    F     0.53243   0.70313   0.99277   0.01267  Uiso   1.00
F11    F     0.16676   0.67980   0.59060   0.01267  Uiso   1.00
F12    F     0.18602   0.50466   0.63798   0.01267  Uiso   1.00
F13    F     0.38314   0.29202   0.44120   0.01267  Uiso   1.00
F14    F     0.29687   0.46757   0.50723   0.01267  Uiso   1.00
F15    F     0.32020   0.83324   0.90940   0.01267  Uiso   1.00
F16    F     0.49534   0.81398   0.86202   0.01267  Uiso   1.00
