data_QIDDAI_clean_h
_audit_creation_date              2014-07-02
_audit_creation_method            'Materials Studio'
_symmetry_space_group_name_H-M    'P1'
_symmetry_Int_Tables_number       1
_symmetry_cell_setting            triclinic
loop_
_symmetry_equiv_pos_as_xyz
  x,y,z
_cell_length_a                    13.0455
_cell_length_b                    13.0455
_cell_length_c                    16.6850
_cell_angle_alpha                 109.4710
_cell_angle_beta                  109.4710
_cell_angle_gamma                 93.7056
loop_
_atom_site_label
_atom_site_type_symbol
_atom_site_fract_x
_atom_site_fract_y
_atom_site_fract_z
_atom_site_U_iso_or_equiv
_atom_site_adp_type
_atom_site_occupancy
Cd1    Cd    0.84799   0.60301   0.05980   0.01267  Uiso   1.00
Cd2    Cd    0.60301   0.84799   0.55980   0.01267  Uiso   1.00
C1     C     0.03360   0.51440   0.98100   0.01267  Uiso   1.00
C2     C     0.83350   0.43250   0.85700   0.01267  Uiso   1.00
C3     C     0.07090   0.45510   0.90800   0.01267  Uiso   1.00
C4     C     0.88020   0.37380   0.79400   0.01267  Uiso   1.00
C5     C     0.99810   0.38990   0.81400   0.01267  Uiso   1.00
C6     C     0.02530   0.31070   0.73200   0.01267  Uiso   1.00
C7     C     0.13880   0.27720   0.78500   0.01267  Uiso   1.00
C8     C     0.24760   0.33320   0.80800   0.01267  Uiso   1.00
C9     C     0.12130   0.16870   0.78200   0.01267  Uiso   1.00
C10    C     0.33310   0.28290   0.84500   0.01267  Uiso   1.00
C11    C     0.21830   0.12970   0.81600   0.01267  Uiso   1.00
C12    C     0.32450   0.18350   0.85500   0.01267  Uiso   1.00
C13    C     0.41030   0.11770   0.87800   0.01267  Uiso   1.00
C14    C     0.45640   0.06960   0.80600   0.01267  Uiso   1.00
C15    C     0.57200   0.07400   0.82800   0.01267  Uiso   1.00
C16    C     0.38530   0.00270   0.72400   0.01267  Uiso   1.00
C17    C     0.59770   0.01030   0.74900   0.01267  Uiso   1.00
C18    C     0.42550   0.94250   0.65400   0.01267  Uiso   1.00
C19    C     0.87450   0.85350   0.20800   0.01267  Uiso   1.00
C20    C     0.72700   0.72700   0.19400   0.01267  Uiso   1.00
C21    C     0.85600   0.94200   0.26300   0.01267  Uiso   1.00
C22    C     0.70260   0.82140   0.25800   0.01267  Uiso   1.00
C23    C     0.76400   0.92600   0.29200   0.01267  Uiso   1.00
C24    C     0.72830   0.02370   0.35800   0.01267  Uiso   1.00
C25    C     0.73130   0.12870   0.33100   0.01267  Uiso   1.00
C26    C     0.81350   0.22050   0.37500   0.01267  Uiso   1.00
C27    C     0.64100   0.13700   0.26300   0.01267  Uiso   1.00
C28    C     0.80660   0.31540   0.35100   0.01267  Uiso   1.00
C29    C     0.62640   0.22160   0.23900   0.01267  Uiso   1.00
C30    C     0.71230   0.32170   0.27900   0.01267  Uiso   1.00
C31    C     0.69420   0.41580   0.24600   0.01267  Uiso   1.00
C32    C     0.68190   0.51210   0.32200   0.01267  Uiso   1.00
C33    C     0.75290   0.61510   0.36600   0.01267  Uiso   1.00
C34    C     0.58230   0.49770   0.33800   0.01267  Uiso   1.00
C35    C     0.72650   0.70550   0.42900   0.01267  Uiso   1.00
C36    C     0.55910   0.59690   0.40600   0.01267  Uiso   1.00
C37    C     0.51440   0.03360   0.48100   0.01267  Uiso   1.00
C38    C     0.43250   0.83350   0.35700   0.01267  Uiso   1.00
C39    C     0.45510   0.07090   0.40800   0.01267  Uiso   1.00
C40    C     0.37380   0.88020   0.29400   0.01267  Uiso   1.00
C41    C     0.38990   0.99810   0.31400   0.01267  Uiso   1.00
C42    C     0.31070   0.02530   0.23200   0.01267  Uiso   1.00
C43    C     0.27720   0.13880   0.28500   0.01267  Uiso   1.00
C44    C     0.33320   0.24760   0.30800   0.01267  Uiso   1.00
C45    C     0.16870   0.12130   0.28200   0.01267  Uiso   1.00
C46    C     0.28290   0.33310   0.34500   0.01267  Uiso   1.00
C47    C     0.12970   0.21830   0.31600   0.01267  Uiso   1.00
C48    C     0.18350   0.32450   0.35500   0.01267  Uiso   1.00
C49    C     0.11770   0.41030   0.37800   0.01267  Uiso   1.00
C50    C     0.06960   0.45640   0.30600   0.01267  Uiso   1.00
C51    C     0.07400   0.57200   0.32800   0.01267  Uiso   1.00
C52    C     0.00270   0.38530   0.22400   0.01267  Uiso   1.00
C53    C     0.01030   0.59770   0.24900   0.01267  Uiso   1.00
C54    C     0.94250   0.42550   0.15400   0.01267  Uiso   1.00
C55    C     0.85350   0.87450   0.70800   0.01267  Uiso   1.00
C56    C     0.72700   0.72700   0.69400   0.01267  Uiso   1.00
C57    C     0.94200   0.85600   0.76300   0.01267  Uiso   1.00
C58    C     0.82140   0.70260   0.75800   0.01267  Uiso   1.00
C59    C     0.92600   0.76400   0.79200   0.01267  Uiso   1.00
C60    C     0.02370   0.72830   0.85800   0.01267  Uiso   1.00
C61    C     0.12870   0.73130   0.83100   0.01267  Uiso   1.00
C62    C     0.22050   0.81350   0.87500   0.01267  Uiso   1.00
C63    C     0.13700   0.64100   0.76300   0.01267  Uiso   1.00
C64    C     0.31540   0.80660   0.85100   0.01267  Uiso   1.00
C65    C     0.22160   0.62640   0.73900   0.01267  Uiso   1.00
C66    C     0.32170   0.71230   0.77900   0.01267  Uiso   1.00
C67    C     0.41580   0.69420   0.74600   0.01267  Uiso   1.00
C68    C     0.51210   0.68190   0.82200   0.01267  Uiso   1.00
C69    C     0.61510   0.75290   0.86600   0.01267  Uiso   1.00
C70    C     0.49770   0.58230   0.83800   0.01267  Uiso   1.00
C71    C     0.70550   0.72650   0.92900   0.01267  Uiso   1.00
C72    C     0.59690   0.55910   0.90600   0.01267  Uiso   1.00
N1     N     0.92470   0.50510   0.95100   0.01267  Uiso   1.00
N2     N     0.81640   0.74960   0.17400   0.01267  Uiso   1.00
N3     N     0.54190   0.95630   0.67200   0.01267  Uiso   1.00
N4     N     0.63290   0.69310   0.44800   0.01267  Uiso   1.00
N5     N     0.50510   0.92470   0.45100   0.01267  Uiso   1.00
N6     N     0.74960   0.81640   0.67400   0.01267  Uiso   1.00
N7     N     0.95630   0.54190   0.17200   0.01267  Uiso   1.00
N8     N     0.69310   0.63290   0.94800   0.01267  Uiso   1.00
F1     F     0.26060   0.43000   0.80720   0.01267  Uiso   1.00
F2     F     0.01490   0.11070   0.75370   0.01267  Uiso   1.00
F3     F     0.43380   0.34440   0.87350   0.01267  Uiso   1.00
F4     F     0.19070   0.02050   0.82000   0.01267  Uiso   1.00
F5     F     0.91460   0.23580   0.45310   0.01267  Uiso   1.00
F6     F     0.55870   0.04430   0.21950   0.01267  Uiso   1.00
F7     F     0.89200   0.40480   0.39930   0.01267  Uiso   1.00
F8     F     0.54270   0.22750   0.17620   0.01267  Uiso   1.00
F9     F     0.43000   0.26060   0.30720   0.01267  Uiso   1.00
F10    F     0.11070   0.01490   0.25370   0.01267  Uiso   1.00
F11    F     0.34440   0.43380   0.37350   0.01267  Uiso   1.00
F12    F     0.02050   0.19070   0.32000   0.01267  Uiso   1.00
F13    F     0.23580   0.91460   0.95310   0.01267  Uiso   1.00
F14    F     0.04430   0.55870   0.71950   0.01267  Uiso   1.00
F15    F     0.40480   0.89200   0.89930   0.01267  Uiso   1.00
F16    F     0.22750   0.54270   0.67620   0.01267  Uiso   1.00
H1     H     0.09662   0.56138   0.05379   0.01267  Uiso   1.00
H2     H     0.73960   0.42227   0.83500   0.01267  Uiso   1.00
H3     H     0.16324   0.45827   0.92329   0.01267  Uiso   1.00
H4     H     0.82402   0.31035   0.72369   0.01267  Uiso   1.00
H5     H     0.63320   0.12364   0.90101   0.01267  Uiso   1.00
H6     H     0.29238   0.99228   0.70825   0.01267  Uiso   1.00
H7     H     0.68760   0.00745   0.75694   0.01267  Uiso   1.00
H8     H     0.36424   0.88345   0.58377   0.01267  Uiso   1.00
H9     H     0.94623   0.86048   0.18431   0.01267  Uiso   1.00
H10    H     0.67208   0.64132   0.16449   0.01267  Uiso   1.00
H11    H     0.91044   0.02641   0.28601   0.01267  Uiso   1.00
H12    H     0.63091   0.80828   0.28044   0.01267  Uiso   1.00
H13    H     0.83177   0.62801   0.35228   0.01267  Uiso   1.00
H14    H     0.52236   0.41417   0.30071   0.01267  Uiso   1.00
H15    H     0.78415   0.79034   0.46469   0.01267  Uiso   1.00
H16    H     0.48003   0.58828   0.42025   0.01267  Uiso   1.00
H17    H     0.56138   0.09662   0.55379   0.01267  Uiso   1.00
H18    H     0.42227   0.73960   0.33500   0.01267  Uiso   1.00
H19    H     0.45827   0.16324   0.42329   0.01267  Uiso   1.00
H20    H     0.31035   0.82402   0.22369   0.01267  Uiso   1.00
H21    H     0.12364   0.63320   0.40101   0.01267  Uiso   1.00
H22    H     0.99228   0.29238   0.20825   0.01267  Uiso   1.00
H23    H     0.00745   0.68760   0.25694   0.01267  Uiso   1.00
H24    H     0.88345   0.36424   0.08377   0.01267  Uiso   1.00
H25    H     0.86048   0.94623   0.68431   0.01267  Uiso   1.00
H26    H     0.64132   0.67208   0.66449   0.01267  Uiso   1.00
H27    H     0.02641   0.91044   0.78601   0.01267  Uiso   1.00
H28    H     0.80828   0.63091   0.78044   0.01267  Uiso   1.00
H29    H     0.62801   0.83177   0.85228   0.01267  Uiso   1.00
H30    H     0.41417   0.52236   0.80071   0.01267  Uiso   1.00
H31    H     0.79034   0.78415   0.96469   0.01267  Uiso   1.00
H32    H     0.58828   0.48003   0.92025   0.01267  Uiso   1.00
H33    H     0.04036   0.35719   0.68871   0.01267  Uiso   1.00
H34    H     0.95395   0.23629   0.68820   0.01267  Uiso   1.00
H35    H     0.13720   0.31831   0.85641   0.01267  Uiso   1.00
H36    H     0.32437   0.21971   0.92729   0.01267  Uiso   1.00
H37    H     0.37308   0.04711   0.89200   0.01267  Uiso   1.00
H38    H     0.48343   0.17250   0.94283   0.01267  Uiso   1.00
H39    H     0.78782   0.04701   0.43199   0.01267  Uiso   1.00
H40    H     0.64053   0.99483   0.35155   0.01267  Uiso   1.00
H41    H     0.77117   0.08917   0.27993   0.01267  Uiso   1.00
H42    H     0.75047   0.28284   0.22650   0.01267  Uiso   1.00
H43    H     0.61549   0.38879   0.18154   0.01267  Uiso   1.00
H44    H     0.76840   0.44098   0.23027   0.01267  Uiso   1.00
H45    H     0.23404   0.95635   0.18883   0.01267  Uiso   1.00
H46    H     0.35783   0.03685   0.18808   0.01267  Uiso   1.00
H47    H     0.31831   0.13720   0.35641   0.01267  Uiso   1.00
H48    H     0.21971   0.32437   0.42729   0.01267  Uiso   1.00
H49    H     0.17298   0.48147   0.44413   0.01267  Uiso   1.00
H50    H     0.04504   0.37368   0.39005   0.01267  Uiso   1.00
H51    H     0.99449   0.64067   0.85167   0.01267  Uiso   1.00
H52    H     0.04744   0.78794   0.93201   0.01267  Uiso   1.00
H53    H     0.08917   0.77117   0.77993   0.01267  Uiso   1.00
H54    H     0.28284   0.75047   0.72650   0.01267  Uiso   1.00
H55    H     0.44187   0.76856   0.73081   0.01267  Uiso   1.00
H56    H     0.38809   0.61587   0.68117   0.01267  Uiso   1.00
