data_QIDDAI01_clean_h
_audit_creation_date              2014-07-02
_audit_creation_method            'Materials Studio'
_symmetry_space_group_name_H-M    'P1'
_symmetry_Int_Tables_number       1
_symmetry_cell_setting            triclinic
loop_
_symmetry_equiv_pos_as_xyz
  x,y,z
_cell_length_a                    13.0455
_cell_length_b                    13.0455
_cell_length_c                    16.6850
_cell_angle_alpha                 109.4710
_cell_angle_beta                  109.4710
_cell_angle_gamma                 93.7056
loop_
_atom_site_label
_atom_site_type_symbol
_atom_site_fract_x
_atom_site_fract_y
_atom_site_fract_z
_atom_site_U_iso_or_equiv
_atom_site_adp_type
_atom_site_occupancy
Cd1    Cd    0.12249   0.87751   0.75000   0.01267  Uiso   1.00
Cd2    Cd    0.87751   0.12249   0.25000   0.01267  Uiso   1.00
C1     C     0.30405   0.78595   0.66350   0.01267  Uiso   1.00
C2     C     0.11790   0.71110   0.55400   0.01267  Uiso   1.00
C3     C     0.34280   0.72620   0.59200   0.01267  Uiso   1.00
C4     C     0.15410   0.64990   0.48300   0.01267  Uiso   1.00
C5     C     0.27085   0.66015   0.50400   0.01267  Uiso   1.00
C6     C     0.30750   0.59650   0.42700   0.01267  Uiso   1.00
C7     C     0.40715   0.54685   0.46500   0.01267  Uiso   1.00
C8     C     0.51465   0.60175   0.49600   0.01267  Uiso   1.00
C9     C     0.60590   0.55710   0.53150   0.01267  Uiso   1.00
C10    C     0.15770   0.12830   0.90100   0.01267  Uiso   1.00
C11    C     0.00025   0.01075   0.88250   0.01267  Uiso   1.00
C12    C     0.13685   0.22215   0.96250   0.01267  Uiso   1.00
C13    C     0.97485   0.10315   0.94600   0.01267  Uiso   1.00
C14    C     0.04105   0.20695   0.98500   0.01267  Uiso   1.00
C15    C     0.01705   0.30395   0.05600   0.01267  Uiso   1.00
C16    C     0.00950   0.40350   0.02600   0.01267  Uiso   1.00
C17    C     0.09355   0.49945   0.06800   0.01267  Uiso   1.00
C18    C     0.08280   0.58920   0.04400   0.01267  Uiso   1.00
C19    C     0.21405   0.69595   0.83650   0.01267  Uiso   1.00
C20    C     0.28890   0.88210   0.94600   0.01267  Uiso   1.00
C21    C     0.27380   0.65720   0.90800   0.01267  Uiso   1.00
C22    C     0.35010   0.84590   0.01700   0.01267  Uiso   1.00
C23    C     0.33985   0.72915   0.99600   0.01267  Uiso   1.00
C24    C     0.40350   0.69250   0.07300   0.01267  Uiso   1.00
C25    C     0.45315   0.59285   0.03500   0.01267  Uiso   1.00
C26    C     0.39825   0.48535   0.00400   0.01267  Uiso   1.00
C27    C     0.44290   0.39410   0.96850   0.01267  Uiso   1.00
C28    C     0.87170   0.84230   0.59900   0.01267  Uiso   1.00
C29    C     0.98925   0.99975   0.61750   0.01267  Uiso   1.00
C30    C     0.77785   0.86315   0.53750   0.01267  Uiso   1.00
C31    C     0.89685   0.02515   0.55400   0.01267  Uiso   1.00
C32    C     0.79305   0.95895   0.51500   0.01267  Uiso   1.00
C33    C     0.69605   0.98295   0.44400   0.01267  Uiso   1.00
C34    C     0.59650   0.99050   0.47400   0.01267  Uiso   1.00
C35    C     0.50055   0.90645   0.43200   0.01267  Uiso   1.00
C36    C     0.41080   0.91720   0.45600   0.01267  Uiso   1.00
C37    C     0.69595   0.21405   0.33650   0.01267  Uiso   1.00
C38    C     0.88210   0.28890   0.44600   0.01267  Uiso   1.00
C39    C     0.65720   0.27380   0.40800   0.01267  Uiso   1.00
C40    C     0.84590   0.35010   0.51700   0.01267  Uiso   1.00
C41    C     0.72915   0.33985   0.49600   0.01267  Uiso   1.00
C42    C     0.69250   0.40350   0.57300   0.01267  Uiso   1.00
C43    C     0.59285   0.45315   0.53500   0.01267  Uiso   1.00
C44    C     0.48535   0.39825   0.50400   0.01267  Uiso   1.00
C45    C     0.39410   0.44290   0.46850   0.01267  Uiso   1.00
C46    C     0.84230   0.87170   0.09900   0.01267  Uiso   1.00
C47    C     0.99975   0.98925   0.11750   0.01267  Uiso   1.00
C48    C     0.86315   0.77785   0.03750   0.01267  Uiso   1.00
C49    C     0.02515   0.89685   0.05400   0.01267  Uiso   1.00
C50    C     0.95895   0.79305   0.01500   0.01267  Uiso   1.00
C51    C     0.98295   0.69605   0.94400   0.01267  Uiso   1.00
C52    C     0.99050   0.59650   0.97400   0.01267  Uiso   1.00
C53    C     0.90645   0.50055   0.93200   0.01267  Uiso   1.00
C54    C     0.91720   0.41080   0.95600   0.01267  Uiso   1.00
C55    C     0.78595   0.30405   0.16350   0.01267  Uiso   1.00
C56    C     0.71110   0.11790   0.05400   0.01267  Uiso   1.00
C57    C     0.72620   0.34280   0.09200   0.01267  Uiso   1.00
C58    C     0.64990   0.15410   0.98300   0.01267  Uiso   1.00
C59    C     0.66015   0.27085   0.00400   0.01267  Uiso   1.00
C60    C     0.59650   0.30750   0.92700   0.01267  Uiso   1.00
C61    C     0.54685   0.40715   0.96500   0.01267  Uiso   1.00
C62    C     0.60175   0.51465   0.99600   0.01267  Uiso   1.00
C63    C     0.55710   0.60590   0.03150   0.01267  Uiso   1.00
C64    C     0.12830   0.15770   0.40100   0.01267  Uiso   1.00
C65    C     0.01075   0.00025   0.38250   0.01267  Uiso   1.00
C66    C     0.22215   0.13685   0.46250   0.01267  Uiso   1.00
C67    C     0.10315   0.97485   0.44600   0.01267  Uiso   1.00
C68    C     0.20695   0.04105   0.48500   0.01267  Uiso   1.00
C69    C     0.30395   0.01705   0.55600   0.01267  Uiso   1.00
C70    C     0.40350   0.00950   0.52600   0.01267  Uiso   1.00
C71    C     0.49945   0.09355   0.56800   0.01267  Uiso   1.00
C72    C     0.58920   0.08280   0.54400   0.01267  Uiso   1.00
N1     N     0.19140   0.77440   0.63950   0.01267  Uiso   1.00
N2     N     0.09175   0.02825   0.86300   0.01267  Uiso   1.00
N3     N     0.22560   0.80860   0.86050   0.01267  Uiso   1.00
N4     N     0.97175   0.90825   0.63700   0.01267  Uiso   1.00
N5     N     0.80860   0.22560   0.36050   0.01267  Uiso   1.00
N6     N     0.90825   0.97175   0.13700   0.01267  Uiso   1.00
N7     N     0.77440   0.19140   0.13950   0.01267  Uiso   1.00
N8     N     0.02825   0.09175   0.36300   0.01267  Uiso   1.00
F1     F     0.53495   0.70475   0.49360   0.01267  Uiso   1.00
F2     F     0.70945   0.61685   0.55990   0.01267  Uiso   1.00
F3     F     0.18595   0.50415   0.13845   0.01267  Uiso   1.00
F4     F     0.16665   0.68025   0.08990   0.01267  Uiso   1.00
F5     F     0.29525   0.46505   0.00640   0.01267  Uiso   1.00
F6     F     0.38315   0.29055   0.94010   0.01267  Uiso   1.00
F7     F     0.49585   0.81405   0.36155   0.01267  Uiso   1.00
F8     F     0.31975   0.83335   0.41010   0.01267  Uiso   1.00
F9     F     0.46505   0.29525   0.50640   0.01267  Uiso   1.00
F10    F     0.29055   0.38315   0.44010   0.01267  Uiso   1.00
F11    F     0.81405   0.49585   0.86155   0.01267  Uiso   1.00
F12    F     0.83335   0.31975   0.91010   0.01267  Uiso   1.00
F13    F     0.70475   0.53495   0.99360   0.01267  Uiso   1.00
F14    F     0.61685   0.70945   0.05990   0.01267  Uiso   1.00
F15    F     0.50415   0.18595   0.63845   0.01267  Uiso   1.00
F16    F     0.68025   0.16665   0.58990   0.01267  Uiso   1.00
H1     H     0.36642   0.83904   0.73524   0.01267  Uiso   1.00
H2     H     0.02555   0.70714   0.53911   0.01267  Uiso   1.00
H3     H     0.43552   0.73293   0.60763   0.01267  Uiso   1.00
H4     H     0.09050   0.59510   0.41230   0.01267  Uiso   1.00
H5     H     0.33180   0.65527   0.39595   0.01267  Uiso   1.00
H6     H     0.23631   0.52688   0.37171   0.01267  Uiso   1.00
H7     H     0.40636   0.58566   0.53690   0.01267  Uiso   1.00
H8     H     0.23336   0.13656   0.88219   0.01267  Uiso   1.00
H9     H     0.94394   0.92540   0.84996   0.01267  Uiso   1.00
H10    H     0.19511   0.30600   0.99228   0.01267  Uiso   1.00
H11    H     0.89930   0.08988   0.96391   0.01267  Uiso   1.00
H12    H     0.08683   0.32915   0.12609   0.01267  Uiso   1.00
H13    H     0.93515   0.27634   0.06056   0.01267  Uiso   1.00
H14    H     0.04852   0.36428   0.97421   0.01267  Uiso   1.00
H15    H     0.16096   0.63358   0.76476   0.01267  Uiso   1.00
H16    H     0.29286   0.97445   0.96089   0.01267  Uiso   1.00
H17    H     0.26707   0.56448   0.89237   0.01267  Uiso   1.00
H18    H     0.40490   0.90950   0.08770   0.01267  Uiso   1.00
H19    H     0.34473   0.66820   0.10405   0.01267  Uiso   1.00
H20    H     0.47312   0.76369   0.12829   0.01267  Uiso   1.00
H21    H     0.41434   0.59364   0.96310   0.01267  Uiso   1.00
H22    H     0.86344   0.76664   0.61781   0.01267  Uiso   1.00
H23    H     0.07460   0.05606   0.65004   0.01267  Uiso   1.00
H24    H     0.69400   0.80489   0.50772   0.01267  Uiso   1.00
H25    H     0.91012   0.10070   0.53609   0.01267  Uiso   1.00
H26    H     0.67085   0.91317   0.37391   0.01267  Uiso   1.00
H27    H     0.72366   0.06485   0.43944   0.01267  Uiso   1.00
H28    H     0.63572   0.95148   0.52579   0.01267  Uiso   1.00
H29    H     0.63358   0.16096   0.26476   0.01267  Uiso   1.00
H30    H     0.97445   0.29286   0.46089   0.01267  Uiso   1.00
H31    H     0.56448   0.26707   0.39237   0.01267  Uiso   1.00
H32    H     0.90950   0.40490   0.58770   0.01267  Uiso   1.00
H33    H     0.76664   0.86344   0.11781   0.01267  Uiso   1.00
H34    H     0.05606   0.07460   0.15004   0.01267  Uiso   1.00
H35    H     0.80489   0.69400   0.00772   0.01267  Uiso   1.00
H36    H     0.10070   0.91012   0.03609   0.01267  Uiso   1.00
H37    H     0.83904   0.36642   0.23524   0.01267  Uiso   1.00
H38    H     0.70714   0.02555   0.03911   0.01267  Uiso   1.00
H39    H     0.73293   0.43552   0.10763   0.01267  Uiso   1.00
H40    H     0.59510   0.09050   0.91230   0.01267  Uiso   1.00
H41    H     0.52699   0.23622   0.87169   0.01267  Uiso   1.00
H42    H     0.65524   0.33195   0.89598   0.01267  Uiso   1.00
H43    H     0.58566   0.40636   0.03690   0.01267  Uiso   1.00
H44    H     0.13656   0.23336   0.38219   0.01267  Uiso   1.00
H45    H     0.92540   0.94394   0.34996   0.01267  Uiso   1.00
H46    H     0.30600   0.19511   0.49228   0.01267  Uiso   1.00
H47    H     0.08988   0.89930   0.46391   0.01267  Uiso   1.00
H48    H     0.27628   0.93519   0.56058   0.01267  Uiso   1.00
H49    H     0.32923   0.08684   0.62609   0.01267  Uiso   1.00
H50    H     0.36428   0.04852   0.47421   0.01267  Uiso   1.00
H51    H     0.76378   0.47301   0.62831   0.01267  Uiso   1.00
H52    H     0.66805   0.34476   0.60402   0.01267  Uiso   1.00
H53    H     0.59364   0.41434   0.46310   0.01267  Uiso   1.00
