data_image0
_cell_length_a       13.821
_cell_length_b       32.91
_cell_length_c       14.903
_cell_angle_alpha    90
_cell_angle_beta     112.939
_cell_angle_gamma    90

_symmetry_space_group_name_H-M    "P 1"
_symmetry_int_tables_number       1

loop_
  _symmetry_equiv_pos_as_xyz
  'x, y, z'

loop_
  _atom_site_label
  _atom_site_occupancy
  _atom_site_fract_x
  _atom_site_fract_y
  _atom_site_fract_z
  _atom_site_thermal_displace_type
  _atom_site_B_iso_or_equiv
  _atom_site_type_symbol
  C1       1.0000 0.13490  0.88684  0.36350  Biso   1.000  C
  H1       1.0000 0.17120  0.88130  0.42940  Biso   1.000  H
  C2       1.0000 0.12540  0.85622  0.29820  Biso   1.000  C
  H2       1.0000 0.15430  0.83080  0.32010  Biso   1.000  H
  C3       1.0000 0.07240  0.86341  0.19930  Biso   1.000  C
  C4       1.0000 0.02950  0.90152  0.17220  Biso   1.000  C
  H3       1.0000 0.99170  0.90760  0.10680  Biso   1.000  H
  C5       1.0000 0.04310  0.93065  0.24310  Biso   1.000  C
  H4       1.0000 0.01430  0.95630  0.22320  Biso   1.000  H
  C6       1.0000 0.06550  0.83124  0.12570  Biso   1.000  C
  C7       1.0000 0.15540  0.80887  0.13850  Biso   1.000  C
  H5       1.0000 0.21640  0.81350  0.19330  Biso   1.000  H
  C8       1.0000 0.15570  0.77969  0.07090  Biso   1.000  C
  C9       1.0000 0.06200  0.77276  0.98990  Biso   1.000  C
  H6       1.0000 0.05980  0.75340  0.94380  Biso   1.000  H
  C10      1.0000 0.97310  0.79472  0.97860  Biso   1.000  C
  C11      1.0000 0.97250  0.82440  0.04390  Biso   1.000  C
  H7       1.0000 0.91220  0.83940  0.03390  Biso   1.000  H
  C12      1.0000 0.25490  0.75747  0.08420  Biso   1.000  C
  C13      1.0000 0.33900  0.75516  0.17380  Biso   1.000  C
  H8       1.0000 0.33280  0.76620  0.22880  Biso   1.000  H
  C14      1.0000 0.43200  0.73650  0.18190  Biso   1.000  C
  H9       1.0000 0.48680  0.73560  0.24300  Biso   1.000  H
  C15      1.0000 0.36540  0.72108  0.02100  Biso   1.000  C
  H10      1.0000 0.37340  0.70910  0.96770  Biso   1.000  H
  C16      1.0000 0.26890  0.73923  0.00640  Biso   1.000  C
  H11      1.0000 0.21460  0.73900  0.94500  Biso   1.000  H
  C17      1.0000 0.81440  0.81094  0.83790  Biso   1.000  C
  C18      1.0000 0.85110  0.84570  0.81020  Biso   1.000  C
  H12      1.0000 0.92240  0.85190  0.83700  Biso   1.000  H
  C19      1.0000 0.78010  0.87160  0.74120  Biso   1.000  C
  C20      1.0000 0.67200  0.86200  0.70400  Biso   1.000  C
  H13      1.0000 0.62430  0.87950  0.65940  Biso   1.000  H
  C21      1.0000 0.63540  0.82719  0.73250  Biso   1.000  C
  C22      1.0000 0.70750  0.80063  0.79980  Biso   1.000  C
  H14      1.0000 0.68470  0.77670  0.81870  Biso   1.000  H
  C23      1.0000 0.81560  0.90874  0.70630  Biso   1.000  C
  C24      1.0000 0.91780  0.91413  0.71270  Biso   1.000  C
  H15      1.0000 0.96860  0.89470  0.74400  Biso   1.000  H
  C25      1.0000 0.94480  0.94824  0.67290  Biso   1.000  C
  H16      1.0000 0.01390  0.95100  0.67840  Biso   1.000  H
  C26      1.0000 0.77670  0.97312  0.62280  Biso   1.000  C
  H17      1.0000 0.72790  0.99330  0.59270  Biso   1.000  H
  C27      1.0000 0.51970  0.81936  0.69670  Biso   1.000  C
  C28      1.0000 0.47390  0.78186  0.66440  Biso   1.000  C
  H18      1.0000 0.51490  0.75980  0.66220  Biso   1.000  H
  C29      1.0000 0.36540  0.77755  0.63510  Biso   1.000  C
  H19      1.0000 0.33590  0.75230  0.61230  Biso   1.000  H
  C30      1.0000 0.34630  0.84365  0.66770  Biso   1.000  C
  H20      1.0000 0.30380  0.86530  0.66960  Biso   1.000  H
  C31      1.0000 0.45260  0.85079  0.69580  Biso   1.000  C
  H21      1.0000 0.47920  0.87680  0.71420  Biso   1.000  H
  C32      1.0000 0.28060  0.95198  0.62850  Biso   1.000  C
  C33      1.0000 0.38400  0.95183  0.71710  Biso   1.000  C
  C34      1.0000 0.47330  0.96813  0.70980  Biso   1.000  C
  H22      1.0000 0.46950  0.97820  0.65030  Biso   1.000  H
  C35      1.0000 0.56900  0.96963  0.79080  Biso   1.000  C
  H23      1.0000 0.62750  0.98140  0.78510  Biso   1.000  H
  C36      1.0000 0.57700  0.95357  0.87940  Biso   1.000  C
  C37      1.0000 0.48740  0.93626  0.88540  Biso   1.000  C
  H24      1.0000 0.49190  0.92470  0.94390  Biso   1.000  H
  C38      1.0000 0.39180  0.93583  0.80600  Biso   1.000  C
  H25      1.0000 0.33280  0.92480  0.81240  Biso   1.000  H
  C39      1.0000 0.67980  0.95451  0.97360  Biso   1.000  C
  C40      1.0000 0.66680  0.98915  0.03820  Biso   1.000  C
  C41      1.0000 0.77910  0.96447  0.95260  Biso   1.000  C
  C42      1.0000 0.69780  0.91290  0.02500  Biso   1.000  C
  C43      1.0000 0.72880  0.90828  0.12570  Biso   1.000  C
  H26      1.0000 0.74770  0.93090  0.16620  Biso   1.000  H
  C44      1.0000 0.73140  0.86989  0.16530  Biso   1.000  C
  H27      1.0000 0.75200  0.86700  0.23230  Biso   1.000  H
  C45      1.0000 0.70370  0.83585  0.10620  Biso   1.000  C
  C46      1.0000 0.68000  0.84023  0.00750  Biso   1.000  C
  H28      1.0000 0.66600  0.81730  0.96790  Biso   1.000  H
  C47      1.0000 0.67690  0.87795  0.96730  Biso   1.000  C
  H29      1.0000 0.66070  0.88030  0.90080  Biso   1.000  H
  C48      1.0000 0.69300  0.79515  0.14810  Biso   1.000  C
  Cd1      1.0000 0.10376  0.96889  0.46706  Biso   1.000  Cd
  Cd2      1.0000 0.62151  0.70067  0.12565  Biso   1.000  Cd
  F1       1.0000 0.63400  0.02344  0.98730  Biso   1.000  F
  F2       1.0000 0.75610  0.99828  0.11460  Biso   1.000  F
  F3       1.0000 0.59500  0.97931  0.07410  Biso   1.000  F
  F4       1.0000 0.77930  0.00179  0.91890  Biso   1.000  F
  F5       1.0000 0.86770  0.96111  0.03340  Biso   1.000  F
  F6       1.0000 0.78840  0.93854  0.88790  Biso   1.000  F
  N1       1.0000 0.09510  0.92419  0.33820  Biso   1.000  N
  N2       1.0000 0.44710  0.71985  0.10720  Biso   1.000  N
  N3       1.0000 0.87560  0.97733  0.62690  Biso   1.000  N
  N4       1.0000 0.30090  0.80760  0.63800  Biso   1.000  N
  O1       1.0000 0.28070  0.96710  0.55180  Biso   1.000  O
  O2       1.0000 0.19990  0.93861  0.63490  Biso   1.000  O
  O3       1.0000 0.64050  0.76810  0.08890  Biso   1.000  O
  O4       1.0000 0.73680  0.79085  0.23770  Biso   1.000  O
  O5       1.0000 0.87970  0.78244  0.90130  Biso   1.000  O
  C49      1.0000 0.74580  0.94047  0.66100  Biso   1.000  C
  H30      1.0000 0.67710  0.93920  0.65700  Biso   1.000  H
  C50      1.0000 0.36510  0.38684  0.13650  Biso   1.000  C
  H31      1.0000 0.32880  0.38130  0.07060  Biso   1.000  H
  C51      1.0000 0.37460  0.35622  0.20180  Biso   1.000  C
  H32      1.0000 0.34570  0.33080  0.17990  Biso   1.000  H
  C52      1.0000 0.42760  0.36341  0.30070  Biso   1.000  C
  C53      1.0000 0.47050  0.40152  0.32780  Biso   1.000  C
  H33      1.0000 0.50830  0.40760  0.39320  Biso   1.000  H
  C54      1.0000 0.45690  0.43065  0.25690  Biso   1.000  C
  H34      1.0000 0.48570  0.45630  0.27680  Biso   1.000  H
  C55      1.0000 0.43450  0.33124  0.37430  Biso   1.000  C
  C56      1.0000 0.34460  0.30887  0.36150  Biso   1.000  C
  H35      1.0000 0.28360  0.31350  0.30670  Biso   1.000  H
  C57      1.0000 0.34430  0.27969  0.42910  Biso   1.000  C
  C58      1.0000 0.43800  0.27276  0.51010  Biso   1.000  C
  H36      1.0000 0.44020  0.25340  0.55620  Biso   1.000  H
  C59      1.0000 0.52690  0.29472  0.52140  Biso   1.000  C
  C60      1.0000 0.52750  0.32440  0.45610  Biso   1.000  C
  H37      1.0000 0.58780  0.33940  0.46610  Biso   1.000  H
  C61      1.0000 0.24510  0.25747  0.41580  Biso   1.000  C
  C62      1.0000 0.16100  0.25516  0.32620  Biso   1.000  C
  H38      1.0000 0.16720  0.26620  0.27120  Biso   1.000  H
  C63      1.0000 0.06800  0.23650  0.31810  Biso   1.000  C
  H39      1.0000 0.01320  0.23560  0.25700  Biso   1.000  H
  C64      1.0000 0.13460  0.22108  0.47900  Biso   1.000  C
  H40      1.0000 0.12660  0.20910  0.53230  Biso   1.000  H
  C65      1.0000 0.23110  0.23923  0.49360  Biso   1.000  C
  H41      1.0000 0.28540  0.23900  0.55500  Biso   1.000  H
  C66      1.0000 0.68560  0.31094  0.66210  Biso   1.000  C
  C67      1.0000 0.64890  0.34570  0.68980  Biso   1.000  C
  H42      1.0000 0.57760  0.35190  0.66300  Biso   1.000  H
  C68      1.0000 0.71990  0.37160  0.75880  Biso   1.000  C
  C69      1.0000 0.82800  0.36200  0.79600  Biso   1.000  C
  H43      1.0000 0.87570  0.37950  0.84060  Biso   1.000  H
  C70      1.0000 0.86460  0.32719  0.76750  Biso   1.000  C
  C71      1.0000 0.79250  0.30063  0.70020  Biso   1.000  C
  H44      1.0000 0.81530  0.27670  0.68130  Biso   1.000  H
  C72      1.0000 0.68440  0.40874  0.79370  Biso   1.000  C
  C73      1.0000 0.58220  0.41413  0.78730  Biso   1.000  C
  H45      1.0000 0.53140  0.39470  0.75600  Biso   1.000  H
  C74      1.0000 0.55520  0.44824  0.82710  Biso   1.000  C
  H46      1.0000 0.48610  0.45100  0.82160  Biso   1.000  H
  C75      1.0000 0.72330  0.47312  0.87720  Biso   1.000  C
  H47      1.0000 0.77210  0.49330  0.90730  Biso   1.000  H
  C76      1.0000 0.98030  0.31936  0.80330  Biso   1.000  C
  C77      1.0000 0.02610  0.28186  0.83560  Biso   1.000  C
  H48      1.0000 0.98510  0.25980  0.83780  Biso   1.000  H
  C78      1.0000 0.13460  0.27755  0.86490  Biso   1.000  C
  H49      1.0000 0.16410  0.25230  0.88770  Biso   1.000  H
  C79      1.0000 0.15370  0.34365  0.83230  Biso   1.000  C
  H50      1.0000 0.19620  0.36530  0.83040  Biso   1.000  H
  C80      1.0000 0.04740  0.35079  0.80420  Biso   1.000  C
  H51      1.0000 0.02080  0.37680  0.78580  Biso   1.000  H
  C81      1.0000 0.21940  0.45198  0.87150  Biso   1.000  C
  C82      1.0000 0.11600  0.45183  0.78290  Biso   1.000  C
  C83      1.0000 0.02670  0.46813  0.79020  Biso   1.000  C
  H52      1.0000 0.03050  0.47820  0.84970  Biso   1.000  H
  C84      1.0000 0.93100  0.46963  0.70920  Biso   1.000  C
  H53      1.0000 0.87250  0.48140  0.71490  Biso   1.000  H
  C85      1.0000 0.92300  0.45357  0.62060  Biso   1.000  C
  C86      1.0000 0.01260  0.43626  0.61460  Biso   1.000  C
  H54      1.0000 0.00810  0.42470  0.55610  Biso   1.000  H
  C87      1.0000 0.10820  0.43583  0.69400  Biso   1.000  C
  H55      1.0000 0.16720  0.42480  0.68760  Biso   1.000  H
  C88      1.0000 0.82020  0.45451  0.52640  Biso   1.000  C
  C89      1.0000 0.83320  0.48915  0.46180  Biso   1.000  C
  C90      1.0000 0.72090  0.46447  0.54740  Biso   1.000  C
  C91      1.0000 0.80220  0.41290  0.47500  Biso   1.000  C
  C92      1.0000 0.77120  0.40828  0.37430  Biso   1.000  C
  H56      1.0000 0.75230  0.43090  0.33380  Biso   1.000  H
  C93      1.0000 0.76860  0.36989  0.33470  Biso   1.000  C
  H57      1.0000 0.74800  0.36700  0.26770  Biso   1.000  H
  C94      1.0000 0.79630  0.33585  0.39380  Biso   1.000  C
  C95      1.0000 0.82000  0.34023  0.49250  Biso   1.000  C
  H58      1.0000 0.83400  0.31730  0.53210  Biso   1.000  H
  C96      1.0000 0.82310  0.37795  0.53270  Biso   1.000  C
  H59      1.0000 0.83930  0.38030  0.59920  Biso   1.000  H
  C97      1.0000 0.80700  0.29515  0.35190  Biso   1.000  C
  Cd3      1.0000 0.39624  0.46889  0.03294  Biso   1.000  Cd
  Cd4      1.0000 0.87849  0.20067  0.37435  Biso   1.000  Cd
  F7       1.0000 0.86600  0.52344  0.51270  Biso   1.000  F
  F8       1.0000 0.74390  0.49828  0.38540  Biso   1.000  F
  F9       1.0000 0.90500  0.47931  0.42590  Biso   1.000  F
  F10      1.0000 0.72070  0.50179  0.58110  Biso   1.000  F
  F11      1.0000 0.63230  0.46111  0.46660  Biso   1.000  F
  F12      1.0000 0.71160  0.43854  0.61210  Biso   1.000  F
  N5       1.0000 0.40490  0.42419  0.16180  Biso   1.000  N
  N6       1.0000 0.05290  0.21985  0.39280  Biso   1.000  N
  N7       1.0000 0.62440  0.47733  0.87310  Biso   1.000  N
  N8       1.0000 0.19910  0.30760  0.86200  Biso   1.000  N
  O6       1.0000 0.21930  0.46710  0.94820  Biso   1.000  O
  O7       1.0000 0.30010  0.43861  0.86510  Biso   1.000  O
  O8       1.0000 0.85950  0.26810  0.41110  Biso   1.000  O
  O9       1.0000 0.76320  0.29085  0.26230  Biso   1.000  O
  O10      1.0000 0.62030  0.28244  0.59870  Biso   1.000  O
  C98      1.0000 0.75420  0.44047  0.83900  Biso   1.000  C
  H60      1.0000 0.82290  0.43920  0.84300  Biso   1.000  H
  C99      1.0000 0.86510  0.11316  0.63650  Biso   1.000  C
  H61      1.0000 0.82880  0.11870  0.57060  Biso   1.000  H
  C100     1.0000 0.87460  0.14378  0.70180  Biso   1.000  C
  H62      1.0000 0.84570  0.16920  0.67990  Biso   1.000  H
  C101     1.0000 0.92760  0.13659  0.80070  Biso   1.000  C
  C102     1.0000 0.97050  0.09848  0.82780  Biso   1.000  C
  H63      1.0000 0.00830  0.09240  0.89320  Biso   1.000  H
  C103     1.0000 0.95690  0.06935  0.75690  Biso   1.000  C
  H64      1.0000 0.98570  0.04370  0.77680  Biso   1.000  H
  C104     1.0000 0.93450  0.16876  0.87430  Biso   1.000  C
  C105     1.0000 0.84460  0.19113  0.86150  Biso   1.000  C
  H65      1.0000 0.78360  0.18650  0.80670  Biso   1.000  H
  C106     1.0000 0.84430  0.22031  0.92910  Biso   1.000  C
  C107     1.0000 0.93800  0.22724  0.01010  Biso   1.000  C
  H66      1.0000 0.94020  0.24660  0.05620  Biso   1.000  H
  C108     1.0000 0.02690  0.20528  0.02140  Biso   1.000  C
  C109     1.0000 0.02750  0.17560  0.95610  Biso   1.000  C
  H67      1.0000 0.08780  0.16060  0.96610  Biso   1.000  H
  C110     1.0000 0.74510  0.24253  0.91580  Biso   1.000  C
  C111     1.0000 0.66100  0.24484  0.82620  Biso   1.000  C
  H68      1.0000 0.66720  0.23380  0.77120  Biso   1.000  H
  C112     1.0000 0.56800  0.26350  0.81810  Biso   1.000  C
  H69      1.0000 0.51320  0.26440  0.75700  Biso   1.000  H
  C113     1.0000 0.63460  0.27892  0.97900  Biso   1.000  C
  H70      1.0000 0.62660  0.29090  0.03230  Biso   1.000  H
  C114     1.0000 0.73110  0.26077  0.99360  Biso   1.000  C
  H71      1.0000 0.78540  0.26100  0.05500  Biso   1.000  H
  C115     1.0000 0.18560  0.18906  0.16210  Biso   1.000  C
  C116     1.0000 0.14890  0.15430  0.18980  Biso   1.000  C
  H72      1.0000 0.07760  0.14810  0.16300  Biso   1.000  H
  C117     1.0000 0.21990  0.12840  0.25880  Biso   1.000  C
  C118     1.0000 0.32800  0.13800  0.29600  Biso   1.000  C
  H73      1.0000 0.37570  0.12050  0.34060  Biso   1.000  H
  C119     1.0000 0.36460  0.17281  0.26750  Biso   1.000  C
  C120     1.0000 0.29250  0.19937  0.20020  Biso   1.000  C
  H74      1.0000 0.31530  0.22330  0.18130  Biso   1.000  H
  C121     1.0000 0.18440  0.09126  0.29370  Biso   1.000  C
  C122     1.0000 0.08220  0.08587  0.28730  Biso   1.000  C
  H75      1.0000 0.03140  0.10530  0.25600  Biso   1.000  H
  C123     1.0000 0.05520  0.05176  0.32710  Biso   1.000  C
  H76      1.0000 0.98610  0.04900  0.32160  Biso   1.000  H
  C124     1.0000 0.22330  0.02688  0.37720  Biso   1.000  C
  H77      1.0000 0.27210  0.00670  0.40730  Biso   1.000  H
  C125     1.0000 0.48030  0.18064  0.30330  Biso   1.000  C
  C126     1.0000 0.52610  0.21814  0.33560  Biso   1.000  C
  H78      1.0000 0.48510  0.24020  0.33780  Biso   1.000  H
  C127     1.0000 0.63460  0.22245  0.36490  Biso   1.000  C
  H79      1.0000 0.66410  0.24770  0.38770  Biso   1.000  H
  C128     1.0000 0.65370  0.15635  0.33230  Biso   1.000  C
  H80      1.0000 0.69620  0.13470  0.33040  Biso   1.000  H
  C129     1.0000 0.54740  0.14921  0.30420  Biso   1.000  C
  H81      1.0000 0.52080  0.12320  0.28580  Biso   1.000  H
  C130     1.0000 0.71940  0.04802  0.37150  Biso   1.000  C
  C131     1.0000 0.61600  0.04817  0.28290  Biso   1.000  C
  C132     1.0000 0.52670  0.03187  0.29020  Biso   1.000  C
  H82      1.0000 0.53050  0.02180  0.34970  Biso   1.000  H
  C133     1.0000 0.43100  0.03037  0.20920  Biso   1.000  C
  H83      1.0000 0.37250  0.01860  0.21490  Biso   1.000  H
  C134     1.0000 0.42300  0.04643  0.12060  Biso   1.000  C
  C135     1.0000 0.51260  0.06374  0.11460  Biso   1.000  C
  H84      1.0000 0.50810  0.07530  0.05610  Biso   1.000  H
  C136     1.0000 0.60820  0.06417  0.19400  Biso   1.000  C
  H85      1.0000 0.66720  0.07520  0.18760  Biso   1.000  H
  C137     1.0000 0.32020  0.04549  0.02640  Biso   1.000  C
  C138     1.0000 0.33320  0.01085  0.96180  Biso   1.000  C
  C139     1.0000 0.22090  0.03553  0.04740  Biso   1.000  C
  C140     1.0000 0.30220  0.08710  0.97500  Biso   1.000  C
  C141     1.0000 0.27120  0.09172  0.87430  Biso   1.000  C
  H86      1.0000 0.25230  0.06910  0.83380  Biso   1.000  H
  C142     1.0000 0.26860  0.13011  0.83470  Biso   1.000  C
  H87      1.0000 0.24800  0.13300  0.76770  Biso   1.000  H
  C143     1.0000 0.29630  0.16415  0.89380  Biso   1.000  C
  C144     1.0000 0.32000  0.15977  0.99250  Biso   1.000  C
  H88      1.0000 0.33400  0.18270  0.03210  Biso   1.000  H
  C145     1.0000 0.32310  0.12205  0.03270  Biso   1.000  C
  H89      1.0000 0.33930  0.11970  0.09920  Biso   1.000  H
  C146     1.0000 0.30700  0.20485  0.85190  Biso   1.000  C
  Cd5      1.0000 0.89624  0.03111  0.53294  Biso   1.000  Cd
  Cd6      1.0000 0.37849  0.29933  0.87435  Biso   1.000  Cd
  F13      1.0000 0.36600  0.97656  0.01270  Biso   1.000  F
  F14      1.0000 0.24390  0.00172  0.88540  Biso   1.000  F
  F15      1.0000 0.40500  0.02069  0.92590  Biso   1.000  F
  F16      1.0000 0.22070  0.99821  0.08110  Biso   1.000  F
  F17      1.0000 0.13230  0.03889  0.96660  Biso   1.000  F
  F18      1.0000 0.21160  0.06146  0.11210  Biso   1.000  F
  N9       1.0000 0.90490  0.07581  0.66180  Biso   1.000  N
  N10      1.0000 0.55290  0.28015  0.89280  Biso   1.000  N
  N11      1.0000 0.12440  0.02267  0.37310  Biso   1.000  N
  N12      1.0000 0.69910  0.19240  0.36200  Biso   1.000  N
  O11      1.0000 0.71930  0.03290  0.44820  Biso   1.000  O
  O12      1.0000 0.80010  0.06139  0.36510  Biso   1.000  O
  O13      1.0000 0.35950  0.23190  0.91110  Biso   1.000  O
  O14      1.0000 0.26320  0.20915  0.76230  Biso   1.000  O
  O15      1.0000 0.12030  0.21756  0.09870  Biso   1.000  O
  C147     1.0000 0.25420  0.05953  0.33900  Biso   1.000  C
  H90      1.0000 0.32290  0.06080  0.34300  Biso   1.000  H
  C148     1.0000 0.63490  0.61316  0.86350  Biso   1.000  C
  H91      1.0000 0.67120  0.61870  0.92940  Biso   1.000  H
  C149     1.0000 0.62540  0.64378  0.79820  Biso   1.000  C
  H92      1.0000 0.65430  0.66920  0.82010  Biso   1.000  H
  C150     1.0000 0.57240  0.63659  0.69930  Biso   1.000  C
  C151     1.0000 0.52950  0.59848  0.67220  Biso   1.000  C
  H93      1.0000 0.49170  0.59240  0.60680  Biso   1.000  H
  C152     1.0000 0.54310  0.56935  0.74310  Biso   1.000  C
  H94      1.0000 0.51430  0.54370  0.72320  Biso   1.000  H
  C153     1.0000 0.56550  0.66876  0.62570  Biso   1.000  C
  C154     1.0000 0.65540  0.69113  0.63850  Biso   1.000  C
  H95      1.0000 0.71640  0.68650  0.69330  Biso   1.000  H
  C155     1.0000 0.65570  0.72031  0.57090  Biso   1.000  C
  C156     1.0000 0.56200  0.72724  0.48990  Biso   1.000  C
  H96      1.0000 0.55980  0.74660  0.44380  Biso   1.000  H
  C157     1.0000 0.47310  0.70528  0.47860  Biso   1.000  C
  C158     1.0000 0.47250  0.67560  0.54390  Biso   1.000  C
  H97      1.0000 0.41220  0.66060  0.53390  Biso   1.000  H
  C159     1.0000 0.75490  0.74253  0.58420  Biso   1.000  C
  C160     1.0000 0.83900  0.74484  0.67380  Biso   1.000  C
  H98      1.0000 0.83280  0.73380  0.72880  Biso   1.000  H
  C161     1.0000 0.93200  0.76350  0.68190  Biso   1.000  C
  H99      1.0000 0.98680  0.76440  0.74300  Biso   1.000  H
  C162     1.0000 0.86540  0.77892  0.52100  Biso   1.000  C
  H100     1.0000 0.87340  0.79090  0.46770  Biso   1.000  H
  C163     1.0000 0.76890  0.76077  0.50640  Biso   1.000  C
  H101     1.0000 0.71460  0.76100  0.44500  Biso   1.000  H
  C164     1.0000 0.31440  0.68906  0.33790  Biso   1.000  C
  C165     1.0000 0.35110  0.65430  0.31020  Biso   1.000  C
  H102     1.0000 0.42240  0.64810  0.33700  Biso   1.000  H
  C166     1.0000 0.28010  0.62840  0.24120  Biso   1.000  C
  C167     1.0000 0.17200  0.63800  0.20400  Biso   1.000  C
  H103     1.0000 0.12430  0.62050  0.15940  Biso   1.000  H
  C168     1.0000 0.13540  0.67281  0.23250  Biso   1.000  C
  C169     1.0000 0.20750  0.69937  0.29980  Biso   1.000  C
  H104     1.0000 0.18470  0.72330  0.31870  Biso   1.000  H
  C170     1.0000 0.31560  0.59126  0.20630  Biso   1.000  C
  C171     1.0000 0.41780  0.58587  0.21270  Biso   1.000  C
  H105     1.0000 0.46860  0.60530  0.24400  Biso   1.000  H
  C172     1.0000 0.44480  0.55176  0.17290  Biso   1.000  C
  H106     1.0000 0.51390  0.54900  0.17840  Biso   1.000  H
  C173     1.0000 0.27670  0.52688  0.12280  Biso   1.000  C
  H107     1.0000 0.22790  0.50670  0.09270  Biso   1.000  H
  C174     1.0000 0.01970  0.68064  0.19670  Biso   1.000  C
  C175     1.0000 0.97390  0.71814  0.16440  Biso   1.000  C
  H108     1.0000 0.01490  0.74020  0.16220  Biso   1.000  H
  C176     1.0000 0.86540  0.72245  0.13510  Biso   1.000  C
  H109     1.0000 0.83590  0.74770  0.11230  Biso   1.000  H
  C177     1.0000 0.84630  0.65635  0.16770  Biso   1.000  C
  H110     1.0000 0.80380  0.63470  0.16960  Biso   1.000  H
  C178     1.0000 0.95260  0.64921  0.19580  Biso   1.000  C
  H111     1.0000 0.97920  0.62320  0.21420  Biso   1.000  H
  C179     1.0000 0.78060  0.54802  0.12850  Biso   1.000  C
  C180     1.0000 0.88400  0.54817  0.21710  Biso   1.000  C
  C181     1.0000 0.97330  0.53187  0.20980  Biso   1.000  C
  H112     1.0000 0.96950  0.52180  0.15030  Biso   1.000  H
  C182     1.0000 0.06900  0.53037  0.29080  Biso   1.000  C
  H113     1.0000 0.12750  0.51860  0.28510  Biso   1.000  H
  C183     1.0000 0.07700  0.54643  0.37940  Biso   1.000  C
  C184     1.0000 0.98740  0.56374  0.38540  Biso   1.000  C
  H114     1.0000 0.99190  0.57530  0.44390  Biso   1.000  H
  C185     1.0000 0.89180  0.56417  0.30600  Biso   1.000  C
  H115     1.0000 0.83280  0.57520  0.31240  Biso   1.000  H
  C186     1.0000 0.17980  0.54549  0.47360  Biso   1.000  C
  C187     1.0000 0.16680  0.51085  0.53820  Biso   1.000  C
  C188     1.0000 0.27910  0.53553  0.45260  Biso   1.000  C
  C189     1.0000 0.19780  0.58710  0.52500  Biso   1.000  C
  C190     1.0000 0.22880  0.59172  0.62570  Biso   1.000  C
  H116     1.0000 0.24770  0.56910  0.66620  Biso   1.000  H
  C191     1.0000 0.23140  0.63011  0.66530  Biso   1.000  C
  H117     1.0000 0.25200  0.63300  0.73230  Biso   1.000  H
  C192     1.0000 0.20370  0.66415  0.60620  Biso   1.000  C
  C193     1.0000 0.18000  0.65977  0.50750  Biso   1.000  C
  H118     1.0000 0.16600  0.68270  0.46790  Biso   1.000  H
  C194     1.0000 0.17690  0.62205  0.46730  Biso   1.000  C
  H119     1.0000 0.16070  0.61970  0.40080  Biso   1.000  H
  C195     1.0000 0.19300  0.70485  0.64810  Biso   1.000  C
  Cd7      1.0000 0.60376  0.53111  0.96706  Biso   1.000  Cd
  Cd8      1.0000 0.12151  0.79933  0.62565  Biso   1.000  Cd
  F19      1.0000 0.13400  0.47656  0.48730  Biso   1.000  F
  F20      1.0000 0.25610  0.50172  0.61460  Biso   1.000  F
  F21      1.0000 0.09500  0.52069  0.57410  Biso   1.000  F
  F22      1.0000 0.27930  0.49821  0.41890  Biso   1.000  F
  F23      1.0000 0.36770  0.53889  0.53340  Biso   1.000  F
  F24      1.0000 0.28840  0.56146  0.38790  Biso   1.000  F
  N13      1.0000 0.59510  0.57581  0.83820  Biso   1.000  N
  N14      1.0000 0.94710  0.78015  0.60720  Biso   1.000  N
  N15      1.0000 0.37560  0.52267  0.12690  Biso   1.000  N
  N16      1.0000 0.80090  0.69240  0.13800  Biso   1.000  N
  O16      1.0000 0.78070  0.53290  0.05180  Biso   1.000  O
  O17      1.0000 0.69990  0.56139  0.13490  Biso   1.000  O
  O18      1.0000 0.14050  0.73190  0.58890  Biso   1.000  O
  O19      1.0000 0.23680  0.70915  0.73770  Biso   1.000  O
  O20      1.0000 0.37970  0.71756  0.40130  Biso   1.000  O
  C196     1.0000 0.24580  0.55953  0.16100  Biso   1.000  C
  H120     1.0000 0.17710  0.56080  0.15700  Biso   1.000  H
