data_image0
_cell_length_a       12.88
_cell_length_b       16.861
_cell_length_c       17.325
_cell_angle_alpha    75.74
_cell_angle_beta     73.26
_cell_angle_gamma    68.59

_symmetry_space_group_name_H-M    "P 1"
_symmetry_int_tables_number       1

loop_
  _symmetry_equiv_pos_as_xyz
  'x, y, z'

loop_
  _atom_site_label
  _atom_site_occupancy
  _atom_site_fract_x
  _atom_site_fract_y
  _atom_site_fract_z
  _atom_site_thermal_displace_type
  _atom_site_B_iso_or_equiv
  _atom_site_type_symbol
  Zn1      1.0000 0.53051  0.68192  0.95001  Biso   1.000  Zn
  Zn2      1.0000 0.64905  0.55494  0.82225  Biso   1.000  Zn
  Zn3      1.0000 0.38429  0.62491  0.86133  Biso   1.000  Zn
  N1       1.0000 0.74640  0.61060  0.84550  Biso   1.000  N
  N2       1.0000 0.70210  0.65570  0.90820  Biso   1.000  N
  O1       1.0000 0.51390  0.59072  0.90819  Biso   1.000  O
  O2       1.0000 0.57780  0.53550  0.08254  Biso   1.000  O
  O3       1.0000 0.49340  0.67990  0.06800  Biso   1.000  O
  O4       1.0000 0.43500  0.61650  0.74210  Biso   1.000  O
  O5       1.0000 0.62450  0.58770  0.71100  Biso   1.000  O
  O6       1.0000 0.42800  0.79650  0.91590  Biso   1.000  O
  O7       1.0000 0.34080  0.75670  0.84500  Biso   1.000  O
  O8       1.0000 0.71800  0.43070  0.82610  Biso   1.000  O
  O9       1.0000 0.67230  0.40390  0.96368  Biso   1.000  O
  C1       1.0000 0.53820  0.60520  0.11030  Biso   1.000  C
  C2       1.0000 0.53200  0.60720  0.60509  Biso   1.000  C
  C3       1.0000 0.43080  0.62450  0.58112  Biso   1.000  C
  H1       1.0000 0.36010  0.63540  0.62010  Biso   1.000  H
  C4       1.0000 0.43290  0.62590  0.50014  Biso   1.000  C
  H2       1.0000 0.36370  0.63770  0.48380  Biso   1.000  H
  C5       1.0000 0.53630  0.60990  0.44312  Biso   1.000  C
  C6       1.0000 0.63750  0.59270  0.46709  Biso   1.000  C
  H3       1.0000 0.70810  0.58180  0.42810  Biso   1.000  H
  C7       1.0000 0.63540  0.59130  0.54808  Biso   1.000  C
  H4       1.0000 0.70450  0.57950  0.56450  Biso   1.000  H
  C8       1.0000 0.81700  0.29533  0.89237  Biso   1.000  C
  C9       1.0000 0.86850  0.26620  0.81780  Biso   1.000  C
  H5       1.0000 0.84460  0.30010  0.76960  Biso   1.000  H
  C10      1.0000 0.95490  0.18730  0.81370  Biso   1.000  C
  H6       1.0000 0.99000  0.16740  0.76270  Biso   1.000  H
  C11      1.0000 0.98980  0.13760  0.88417  Biso   1.000  C
  C12      1.0000 0.93830  0.16677  0.95874  Biso   1.000  C
  H7       1.0000 0.96220  0.13280  0.00690  Biso   1.000  H
  C13      1.0000 0.85190  0.24560  0.96284  Biso   1.000  C
  H8       1.0000 0.81670  0.26560  0.01380  Biso   1.000  H
  C14      1.0000 0.00369  0.63200  0.87805  Biso   1.000  C
  C15      1.0000 0.06620  0.66900  0.80832  Biso   1.000  C
  H9       1.0000 0.03390  0.69610  0.76190  Biso   1.000  H
  C16      1.0000 0.17590  0.66640  0.80656  Biso   1.000  C
  H10      1.0000 0.21860  0.69170  0.75890  Biso   1.000  H
  N3       1.0000 0.22321  0.62678  0.87453  Biso   1.000  N
  C17      1.0000 0.16070  0.58980  0.94425  Biso   1.000  C
  H11      1.0000 0.19300  0.56270  0.99070  Biso   1.000  H
  C18      1.0000 0.05100  0.59240  0.94602  Biso   1.000  C
  H12      1.0000 0.00830  0.56700  0.99370  Biso   1.000  H
  C19      1.0000 0.53920  0.60750  0.19574  Biso   1.000  C
  C20      1.0000 0.62910  0.55132  0.23093  Biso   1.000  C
  H13      1.0000 0.69110  0.51200  0.20030  Biso   1.000  H
  C21      1.0000 0.62840  0.55280  0.31097  Biso   1.000  C
  H14      1.0000 0.68990  0.51440  0.33500  Biso   1.000  H
  C22      1.0000 0.53770  0.61040  0.35581  Biso   1.000  C
  C23      1.0000 0.44770  0.66650  0.32061  Biso   1.000  C
  H15      1.0000 0.38570  0.70590  0.35130  Biso   1.000  H
  C24      1.0000 0.44850  0.66510  0.24058  Biso   1.000  C
  H16      1.0000 0.38700  0.70350  0.21650  Biso   1.000  H
  C25      1.0000 0.17990  0.91803  0.83030  Biso   1.000  C
  H17      1.0000 0.18320  0.87850  0.79820  Biso   1.000  H
  C26      1.0000 0.09200  0.99620  0.83280  Biso   1.000  C
  H18      1.0000 0.03520  0.01020  0.80240  Biso   1.000  H
  C27      1.0000 0.08720  0.05403  0.87980  Biso   1.000  C
  C28      1.0000 0.17030  0.03360  0.92420  Biso   1.000  C
  H19      1.0000 0.16700  0.07310  0.95630  Biso   1.000  H
  C29      1.0000 0.25820  0.95540  0.92180  Biso   1.000  C
  H20      1.0000 0.31490  0.94140  0.95220  Biso   1.000  H
  C30      1.0000 0.26300  0.89759  0.87480  Biso   1.000  C
  C31      1.0000 0.52890  0.60460  0.69250  Biso   1.000  C
  C32      1.0000 0.35190  0.80950  0.87850  Biso   1.000  C
  C33      1.0000 0.72950  0.38220  0.89610  Biso   1.000  C
  C34      1.0000 0.93540  0.54660  0.75760  Biso   1.000  C
  H21      1.0000 0.88810  0.53010  0.73300  Biso   1.000  H
  H22      1.0000 0.97500  0.58340  0.71620  Biso   1.000  H
  H23      1.0000 0.99180  0.49460  0.77870  Biso   1.000  H
  C35      1.0000 0.85940  0.59600  0.82760  Biso   1.000  C
  C36      1.0000 0.88700  0.63150  0.87910  Biso   1.000  C
  C37      1.0000 0.78130  0.66890  0.92990  Biso   1.000  C
  C38      1.0000 0.76270  0.71110  0.00270  Biso   1.000  C
  H24      1.0000 0.68070  0.73130  0.02720  Biso   1.000  H
  H25      1.0000 0.80310  0.66910  0.04310  Biso   1.000  H
  H26      1.0000 0.79210  0.76020  0.98470  Biso   1.000  H
  Zn4      1.0000 0.46949  0.31808  0.04999  Biso   1.000  Zn
  Zn5      1.0000 0.35095  0.44506  0.17775  Biso   1.000  Zn
  Zn6      1.0000 0.61571  0.37509  0.13867  Biso   1.000  Zn
  N4       1.0000 0.25360  0.38940  0.15450  Biso   1.000  N
  N5       1.0000 0.29790  0.34430  0.09180  Biso   1.000  N
  O10      1.0000 0.48610  0.40928  0.09181  Biso   1.000  O
  O11      1.0000 0.42220  0.46450  0.91746  Biso   1.000  O
  O12      1.0000 0.50660  0.32010  0.93200  Biso   1.000  O
  O13      1.0000 0.56500  0.38350  0.25790  Biso   1.000  O
  O14      1.0000 0.37550  0.41230  0.28900  Biso   1.000  O
  O15      1.0000 0.57200  0.20350  0.08410  Biso   1.000  O
  O16      1.0000 0.65920  0.24330  0.15500  Biso   1.000  O
  O17      1.0000 0.28200  0.56930  0.17390  Biso   1.000  O
  O18      1.0000 0.32770  0.59610  0.03632  Biso   1.000  O
  C39      1.0000 0.46180  0.39480  0.88970  Biso   1.000  C
  C40      1.0000 0.46800  0.39280  0.39491  Biso   1.000  C
  C41      1.0000 0.56920  0.37550  0.41888  Biso   1.000  C
  H27      1.0000 0.63990  0.36460  0.37990  Biso   1.000  H
  C42      1.0000 0.56710  0.37410  0.49986  Biso   1.000  C
  H28      1.0000 0.63630  0.36230  0.51620  Biso   1.000  H
  C43      1.0000 0.46370  0.39010  0.55688  Biso   1.000  C
  C44      1.0000 0.36250  0.40730  0.53291  Biso   1.000  C
  H29      1.0000 0.29190  0.41820  0.57190  Biso   1.000  H
  C45      1.0000 0.36460  0.40870  0.45192  Biso   1.000  C
  H30      1.0000 0.29550  0.42050  0.43550  Biso   1.000  H
  C46      1.0000 0.18300  0.70467  0.10763  Biso   1.000  C
  C47      1.0000 0.13150  0.73380  0.18220  Biso   1.000  C
  H31      1.0000 0.15540  0.69990  0.23040  Biso   1.000  H
  C48      1.0000 0.04510  0.81270  0.18630  Biso   1.000  C
  H32      1.0000 0.01000  0.83260  0.23730  Biso   1.000  H
  C49      1.0000 0.01020  0.86240  0.11583  Biso   1.000  C
  C50      1.0000 0.06170  0.83323  0.04126  Biso   1.000  C
  H33      1.0000 0.03780  0.86720  0.99310  Biso   1.000  H
  C51      1.0000 0.14810  0.75440  0.03716  Biso   1.000  C
  H34      1.0000 0.18330  0.73440  0.98620  Biso   1.000  H
  C52      1.0000 0.99631  0.36800  0.12195  Biso   1.000  C
  C53      1.0000 0.93380  0.33100  0.19168  Biso   1.000  C
  H35      1.0000 0.96610  0.30390  0.23810  Biso   1.000  H
  C54      1.0000 0.82410  0.33360  0.19344  Biso   1.000  C
  H36      1.0000 0.78140  0.30830  0.24110  Biso   1.000  H
  N6       1.0000 0.77679  0.37322  0.12547  Biso   1.000  N
  C55      1.0000 0.83930  0.41020  0.05575  Biso   1.000  C
  H37      1.0000 0.80700  0.43730  0.00930  Biso   1.000  H
  C56      1.0000 0.94900  0.40760  0.05398  Biso   1.000  C
  H38      1.0000 0.99170  0.43300  0.00630  Biso   1.000  H
  C57      1.0000 0.46080  0.39250  0.80426  Biso   1.000  C
  C58      1.0000 0.37090  0.44868  0.76907  Biso   1.000  C
  H39      1.0000 0.30890  0.48800  0.79970  Biso   1.000  H
  C59      1.0000 0.37160  0.44720  0.68903  Biso   1.000  C
  H40      1.0000 0.31010  0.48560  0.66500  Biso   1.000  H
  C60      1.0000 0.46230  0.38960  0.64419  Biso   1.000  C
  C61      1.0000 0.55230  0.33350  0.67939  Biso   1.000  C
  H41      1.0000 0.61430  0.29410  0.64870  Biso   1.000  H
  C62      1.0000 0.55150  0.33490  0.75942  Biso   1.000  C
  H42      1.0000 0.61300  0.29650  0.78350  Biso   1.000  H
  C63      1.0000 0.82010  0.08197  0.16970  Biso   1.000  C
  H43      1.0000 0.81680  0.12150  0.20180  Biso   1.000  H
  C64      1.0000 0.90800  0.00380  0.16720  Biso   1.000  C
  H44      1.0000 0.96480  0.98980  0.19760  Biso   1.000  H
  C65      1.0000 0.91280  0.94597  0.12020  Biso   1.000  C
  C66      1.0000 0.82970  0.96640  0.07580  Biso   1.000  C
  H45      1.0000 0.83300  0.92690  0.04370  Biso   1.000  H
  C67      1.0000 0.74180  0.04460  0.07820  Biso   1.000  C
  H46      1.0000 0.68510  0.05860  0.04780  Biso   1.000  H
  C68      1.0000 0.73700  0.10241  0.12520  Biso   1.000  C
  C69      1.0000 0.47110  0.39540  0.30750  Biso   1.000  C
  C70      1.0000 0.64810  0.19050  0.12150  Biso   1.000  C
  C71      1.0000 0.27050  0.61780  0.10390  Biso   1.000  C
  C72      1.0000 0.06460  0.45340  0.24240  Biso   1.000  C
  H47      1.0000 0.11190  0.46990  0.26700  Biso   1.000  H
  H48      1.0000 0.02500  0.41660  0.28380  Biso   1.000  H
  H49      1.0000 0.00820  0.50540  0.22130  Biso   1.000  H
  C73      1.0000 0.14060  0.40400  0.17240  Biso   1.000  C
  C74      1.0000 0.11300  0.36850  0.12090  Biso   1.000  C
  C75      1.0000 0.21870  0.33110  0.07010  Biso   1.000  C
  C76      1.0000 0.23730  0.28890  0.99730  Biso   1.000  C
  H50      1.0000 0.31930  0.26870  0.97280  Biso   1.000  H
  H51      1.0000 0.19690  0.33090  0.95690  Biso   1.000  H
  H52      1.0000 0.20790  0.23980  0.01530  Biso   1.000  H
