data_image0
_cell_length_a       13.9593
_cell_length_b       17.2
_cell_length_c       20.8587
_cell_angle_alpha    90
_cell_angle_beta     90
_cell_angle_gamma    90

_symmetry_space_group_name_H-M    "P 1"
_symmetry_int_tables_number       1

loop_
  _symmetry_equiv_pos_as_xyz
  'x, y, z'

loop_
  _atom_site_label
  _atom_site_occupancy
  _atom_site_fract_x
  _atom_site_fract_y
  _atom_site_fract_z
  _atom_site_thermal_displace_type
  _atom_site_B_iso_or_equiv
  _atom_site_type_symbol
  Mn1      1.0000 0.87745  0.19985  0.07420  Biso   1.000  Mn
  Mn2      1.0000 0.03190  0.19936  0.41941  Biso   1.000  Mn
  N1       1.0000 0.82729  0.20706  0.17488  Biso   1.000  N
  C1       1.0000 0.80677  0.20930  0.22777  Biso   1.000  C
  N2       1.0000 0.88555  0.21708  0.37784  Biso   1.000  N
  C2       1.0000 0.83721  0.21377  0.33362  Biso   1.000  C
  N3       1.0000 0.77403  0.20937  0.28671  Biso   1.000  N
  N4       1.0000 0.02418  0.18838  0.11650  Biso   1.000  N
  C3       1.0000 0.07300  0.18252  0.16052  Biso   1.000  C
  N5       1.0000 0.08927  0.19198  0.32035  Biso   1.000  N
  C4       1.0000 0.10683  0.18580  0.26658  Biso   1.000  C
  N6       1.0000 0.13544  0.17596  0.20716  Biso   1.000  N
  N7       1.0000 0.93033  0.20027  0.97271  Biso   1.000  N
  C5       1.0000 0.99158  0.23307  0.94823  Biso   1.000  C
  N8       1.0000 0.22218  0.28533  0.94748  Biso   1.000  N
  C6       1.0000 0.14234  0.27787  0.93452  Biso   1.000  C
  N9       1.0000 0.05370  0.27333  0.91573  Biso   1.000  N
  N10      1.0000 0.90293  0.32644  0.06925  Biso   1.000  N
  C7       1.0000 0.94659  0.38153  0.05827  Biso   1.000  C
  N11      1.0000 0.99142  0.57384  0.07603  Biso   1.000  N
  C8       1.0000 0.99096  0.50938  0.06246  Biso   1.000  C
  N12      1.0000 0.00284  0.43873  0.04198  Biso   1.000  N
  N13      1.0000 0.17626  0.18117  0.46171  Biso   1.000  N
  C9       1.0000 0.25870  0.18348  0.46038  Biso   1.000  C
  N14      1.0000 0.46328  0.28484  0.48224  Biso   1.000  N
  C10      1.0000 0.40628  0.23702  0.47185  Biso   1.000  C
  N15      1.0000 0.35218  0.17803  0.45721  Biso   1.000  N
  N16      1.0000 0.94005  0.82456  0.08281  Biso   1.000  N
  C11      1.0000 0.89518  0.87972  0.08842  Biso   1.000  C
  N17      1.0000 0.86413  0.07337  0.06968  Biso   1.000  N
  C12      1.0000 0.85591  0.00851  0.08109  Biso   1.000  C
  N18      1.0000 0.83540  0.93701  0.09688  Biso   1.000  N
  Mn3      1.0000 0.62255  0.80015  0.57420  Biso   1.000  Mn
  Mn4      1.0000 0.46810  0.80064  0.91941  Biso   1.000  Mn
  N19      1.0000 0.67271  0.79294  0.67488  Biso   1.000  N
  C13      1.0000 0.69323  0.79070  0.72777  Biso   1.000  C
  N20      1.0000 0.61445  0.78292  0.87784  Biso   1.000  N
  C14      1.0000 0.66279  0.78623  0.83362  Biso   1.000  C
  N21      1.0000 0.72597  0.79063  0.78671  Biso   1.000  N
  N22      1.0000 0.47582  0.81162  0.61650  Biso   1.000  N
  C15      1.0000 0.42700  0.81748  0.66052  Biso   1.000  C
  N23      1.0000 0.41073  0.80802  0.82035  Biso   1.000  N
  C16      1.0000 0.39317  0.81420  0.76658  Biso   1.000  C
  N24      1.0000 0.36456  0.82404  0.70716  Biso   1.000  N
  N25      1.0000 0.56967  0.79973  0.47271  Biso   1.000  N
  C17      1.0000 0.50842  0.76693  0.44823  Biso   1.000  C
  N26      1.0000 0.27782  0.71467  0.44748  Biso   1.000  N
  C18      1.0000 0.35766  0.72213  0.43452  Biso   1.000  C
  N27      1.0000 0.44630  0.72667  0.41573  Biso   1.000  N
  N28      1.0000 0.59707  0.67356  0.56925  Biso   1.000  N
  C19      1.0000 0.55341  0.61847  0.55827  Biso   1.000  C
  N29      1.0000 0.50858  0.42616  0.57603  Biso   1.000  N
  C20      1.0000 0.50904  0.49062  0.56246  Biso   1.000  C
  N30      1.0000 0.49716  0.56127  0.54198  Biso   1.000  N
  N31      1.0000 0.32374  0.81883  0.96171  Biso   1.000  N
  C21      1.0000 0.24130  0.81652  0.96038  Biso   1.000  C
  N32      1.0000 0.03672  0.71516  0.98224  Biso   1.000  N
  C22      1.0000 0.09372  0.76298  0.97185  Biso   1.000  C
  N33      1.0000 0.14782  0.82197  0.95721  Biso   1.000  N
  N34      1.0000 0.55995  0.17544  0.58281  Biso   1.000  N
  C23      1.0000 0.60482  0.12028  0.58842  Biso   1.000  C
  N35      1.0000 0.63587  0.92663  0.56968  Biso   1.000  N
  C24      1.0000 0.64409  0.99149  0.58109  Biso   1.000  C
  N36      1.0000 0.66460  0.06299  0.59688  Biso   1.000  N
  Mn5      1.0000 0.12255  0.69985  0.42580  Biso   1.000  Mn
  Mn6      1.0000 0.96810  0.69936  0.08059  Biso   1.000  Mn
  N37      1.0000 0.17271  0.70706  0.32512  Biso   1.000  N
  C25      1.0000 0.19323  0.70930  0.27223  Biso   1.000  C
  N38      1.0000 0.11445  0.71708  0.12216  Biso   1.000  N
  C26      1.0000 0.16279  0.71377  0.16638  Biso   1.000  C
  N39      1.0000 0.22597  0.70937  0.21329  Biso   1.000  N
  N40      1.0000 0.97582  0.68838  0.38350  Biso   1.000  N
  C27      1.0000 0.92700  0.68252  0.33948  Biso   1.000  C
  N41      1.0000 0.91073  0.69198  0.17965  Biso   1.000  N
  C28      1.0000 0.89317  0.68580  0.23342  Biso   1.000  C
  N42      1.0000 0.86456  0.67596  0.29284  Biso   1.000  N
  N43      1.0000 0.06967  0.70027  0.52729  Biso   1.000  N
  C29      1.0000 0.00842  0.73307  0.55177  Biso   1.000  C
  N44      1.0000 0.77782  0.78533  0.55252  Biso   1.000  N
  C30      1.0000 0.85766  0.77787  0.56548  Biso   1.000  C
  N45      1.0000 0.94630  0.77333  0.58427  Biso   1.000  N
  N46      1.0000 0.09707  0.82644  0.43075  Biso   1.000  N
  C31      1.0000 0.05341  0.88153  0.44173  Biso   1.000  C
  N47      1.0000 0.00858  0.07384  0.42397  Biso   1.000  N
  C32      1.0000 0.00904  0.00938  0.43754  Biso   1.000  C
  N48      1.0000 0.99716  0.93873  0.45802  Biso   1.000  N
  N49      1.0000 0.82374  0.68117  0.03829  Biso   1.000  N
  C33      1.0000 0.74130  0.68348  0.03962  Biso   1.000  C
  N50      1.0000 0.53672  0.78484  0.01776  Biso   1.000  N
  C34      1.0000 0.59372  0.73702  0.02815  Biso   1.000  C
  N51      1.0000 0.64782  0.67803  0.04279  Biso   1.000  N
  N52      1.0000 0.05995  0.32456  0.41719  Biso   1.000  N
  C35      1.0000 0.10482  0.37972  0.41158  Biso   1.000  C
  N53      1.0000 0.13587  0.57337  0.43032  Biso   1.000  N
  C36      1.0000 0.14409  0.50851  0.41891  Biso   1.000  C
  N54      1.0000 0.16460  0.43701  0.40312  Biso   1.000  N
  Mn7      1.0000 0.37745  0.30015  0.92580  Biso   1.000  Mn
  Mn8      1.0000 0.53190  0.30064  0.58059  Biso   1.000  Mn
  N55      1.0000 0.32729  0.29294  0.82512  Biso   1.000  N
  C37      1.0000 0.30677  0.29070  0.77223  Biso   1.000  C
  N56      1.0000 0.38555  0.28292  0.62216  Biso   1.000  N
  C38      1.0000 0.33721  0.28623  0.66638  Biso   1.000  C
  N57      1.0000 0.27403  0.29063  0.71329  Biso   1.000  N
  N58      1.0000 0.52418  0.31162  0.88350  Biso   1.000  N
  C39      1.0000 0.57300  0.31748  0.83948  Biso   1.000  C
  N59      1.0000 0.58927  0.30802  0.67965  Biso   1.000  N
  C40      1.0000 0.60683  0.31420  0.73342  Biso   1.000  C
  N60      1.0000 0.63544  0.32404  0.79284  Biso   1.000  N
  N61      1.0000 0.43033  0.29973  0.02729  Biso   1.000  N
  C41      1.0000 0.49158  0.26693  0.05177  Biso   1.000  C
  N62      1.0000 0.72218  0.21467  0.05252  Biso   1.000  N
  C42      1.0000 0.64234  0.22213  0.06548  Biso   1.000  C
  N63      1.0000 0.55370  0.22667  0.08427  Biso   1.000  N
  N64      1.0000 0.40293  0.17356  0.93075  Biso   1.000  N
  C43      1.0000 0.44659  0.11847  0.94173  Biso   1.000  C
  N65      1.0000 0.49142  0.92616  0.92397  Biso   1.000  N
  C44      1.0000 0.49096  0.99062  0.93754  Biso   1.000  C
  N66      1.0000 0.50284  0.06127  0.95802  Biso   1.000  N
  N67      1.0000 0.67626  0.31883  0.53829  Biso   1.000  N
  C45      1.0000 0.75870  0.31652  0.53962  Biso   1.000  C
  N68      1.0000 0.96328  0.21516  0.51776  Biso   1.000  N
  C46      1.0000 0.90628  0.26298  0.52815  Biso   1.000  C
  N69      1.0000 0.85218  0.32197  0.54279  Biso   1.000  N
  N70      1.0000 0.44005  0.67544  0.91719  Biso   1.000  N
  C47      1.0000 0.39518  0.62028  0.91158  Biso   1.000  C
  N71      1.0000 0.36413  0.42663  0.93032  Biso   1.000  N
  C48      1.0000 0.35591  0.49149  0.91891  Biso   1.000  C
  N72      1.0000 0.33540  0.56299  0.90312  Biso   1.000  N
