data_image0
_cell_length_a       8.926
_cell_length_b       12.767
_cell_length_c       9.196
_cell_angle_alpha    90
_cell_angle_beta     90
_cell_angle_gamma    90

_symmetry_space_group_name_H-M    "P 1"
_symmetry_int_tables_number       1

loop_
  _symmetry_equiv_pos_as_xyz
  'x, y, z'

loop_
  _atom_site_label
  _atom_site_occupancy
  _atom_site_fract_x
  _atom_site_fract_y
  _atom_site_fract_z
  _atom_site_thermal_displace_type
  _atom_site_B_iso_or_equiv
  _atom_site_type_symbol
  O1       1.0000 0.48275  0.66330  0.41954  Biso   1.000  O
  O2       1.0000 0.29850  0.45825  0.37482  Biso   1.000  O
  O3       1.0000 0.13485  0.45849  0.19299  Biso   1.000  O
  C1       1.0000 0.25485  0.48251  0.25112  Biso   1.000  C
  H1       1.0000 0.31980  0.52340  0.19600  Biso   1.000  H
  O4       1.0000 0.01725  0.33670  0.91954  Biso   1.000  O
  O5       1.0000 0.20150  0.54175  0.87482  Biso   1.000  O
  O6       1.0000 0.36515  0.54151  0.69299  Biso   1.000  O
  C2       1.0000 0.24515  0.51749  0.75112  Biso   1.000  C
  H2       1.0000 0.18020  0.47660  0.69600  Biso   1.000  H
  O7       1.0000 0.51725  0.16330  0.58046  Biso   1.000  O
  O8       1.0000 0.70150  0.95825  0.62518  Biso   1.000  O
  O9       1.0000 0.86515  0.95849  0.80701  Biso   1.000  O
  C3       1.0000 0.74515  0.98251  0.74888  Biso   1.000  C
  H3       1.0000 0.68020  0.02340  0.80400  Biso   1.000  H
  O10      1.0000 0.98275  0.83670  0.08046  Biso   1.000  O
  O11      1.0000 0.79850  0.04175  0.12518  Biso   1.000  O
  O12      1.0000 0.63485  0.04151  0.30701  Biso   1.000  O
  C4       1.0000 0.75485  0.01749  0.24888  Biso   1.000  C
  H4       1.0000 0.81980  0.97660  0.30400  Biso   1.000  H
  O13      1.0000 0.51725  0.33670  0.58046  Biso   1.000  O
  O14      1.0000 0.70150  0.54175  0.62518  Biso   1.000  O
  O15      1.0000 0.86515  0.54151  0.80701  Biso   1.000  O
  C5       1.0000 0.74515  0.51749  0.74888  Biso   1.000  C
  H5       1.0000 0.68020  0.47660  0.80400  Biso   1.000  H
  O16      1.0000 0.98275  0.66330  0.08046  Biso   1.000  O
  O17      1.0000 0.79850  0.45825  0.12518  Biso   1.000  O
  O18      1.0000 0.63485  0.45849  0.30701  Biso   1.000  O
  C6       1.0000 0.75485  0.48251  0.24888  Biso   1.000  C
  H6       1.0000 0.81980  0.52340  0.30400  Biso   1.000  H
  O19      1.0000 0.48275  0.83670  0.41954  Biso   1.000  O
  O20      1.0000 0.29850  0.04175  0.37482  Biso   1.000  O
  O21      1.0000 0.13485  0.04151  0.19299  Biso   1.000  O
  C7       1.0000 0.25485  0.01749  0.25112  Biso   1.000  C
  H7       1.0000 0.31980  0.97660  0.19600  Biso   1.000  H
  O22      1.0000 0.01725  0.16330  0.91954  Biso   1.000  O
  O23      1.0000 0.20150  0.95825  0.87482  Biso   1.000  O
  O24      1.0000 0.36515  0.95849  0.69299  Biso   1.000  O
  C8       1.0000 0.24515  0.98251  0.75112  Biso   1.000  C
  H8       1.0000 0.18020  0.02340  0.69600  Biso   1.000  H
  Mn1      1.0000 0.50000  0.50000  0.50000  Biso   1.000  Mn
  Mn2      1.0000 0.00000  0.50000  0.00000  Biso   1.000  Mn
  Mn3      1.0000 0.50000  0.00000  0.50000  Biso   1.000  Mn
  Mn4      1.0000 0.00000  0.00000  0.00000  Biso   1.000  Mn
  C9       1.0000 0.48830  0.75000  0.47540  Biso   1.000  C
  H9       1.0000 0.49830  0.75000  0.57610  Biso   1.000  H
  C10      1.0000 0.01170  0.25000  0.97540  Biso   1.000  C
  H10      1.0000 0.00170  0.25000  0.07610  Biso   1.000  H
  C11      1.0000 0.51170  0.25000  0.52460  Biso   1.000  C
  H11      1.0000 0.50170  0.25000  0.42390  Biso   1.000  H
  C12      1.0000 0.98830  0.75000  0.02460  Biso   1.000  C
  H12      1.0000 0.99830  0.75000  0.92390  Biso   1.000  H
