data_QIQVIX_clean
_audit_creation_date              2015-10-16
_audit_creation_method            'Materials Studio'
_symmetry_space_group_name_H-M    'P1'
_symmetry_Int_Tables_number       1
_symmetry_cell_setting            triclinic
loop_
_symmetry_equiv_pos_as_xyz
  x,y,z
_cell_length_a                    10.7990
_cell_length_b                    18.1608
_cell_length_c                    19.6826
_cell_angle_alpha                 82.7946
_cell_angle_beta                  74.0780
_cell_angle_gamma                 72.7035
loop_
_atom_site_label
_atom_site_type_symbol
_atom_site_fract_x
_atom_site_fract_y
_atom_site_fract_z
_atom_site_U_iso_or_equiv
_atom_site_adp_type
_atom_site_occupancy
Cd1    Cd    0.24915   0.75000   0.75000   0.01267  Uiso   1.00
Cd2    Cd    0.05702   0.63369   0.59855   0.01267  Uiso   1.00
Cd3    Cd    0.94298   0.36631   0.40145   0.01267  Uiso   1.00
Cd4    Cd    0.37926   0.93953   0.51668   0.01267  Uiso   1.00
Cd5    Cd    0.78926   0.86631   0.90145   0.01267  Uiso   1.00
Cd6    Cd    0.33547   0.56047   0.98332   0.01267  Uiso   1.00
Cd7    Cd    0.00000   0.50000   0.50000   0.01267  Uiso   1.00
Cd8    Cd    0.66453   0.43953   0.01668   0.01267  Uiso   1.00
Cd9    Cd    0.75085   0.25000   0.25000   0.01267  Uiso   1.00
Cd10   Cd    0.62074   0.06047   0.48332   0.01267  Uiso   1.00
Cd11   Cd    0.21074   0.13369   0.09855   0.01267  Uiso   1.00
Cd12   Cd    0.50000   0.00000   0.00000   0.01267  Uiso   1.00
H1     H     0.43540   0.38920   0.82220   0.01267  Uiso   1.00
H2     H     0.17120   0.85160   0.23560   0.01267  Uiso   1.00
H3     H     0.69040   0.58770   0.39450   0.01267  Uiso   1.00
H4     H     0.54420   0.94220   0.72300   0.01267  Uiso   1.00
H5     H     0.85320   0.88920   0.32220   0.01267  Uiso   1.00
H6     H     0.72890   0.15590   0.67370   0.01267  Uiso   1.00
H7     H     0.35730   0.20060   0.76800   0.01267  Uiso   1.00
H8     H     0.48710   0.12200   0.83760   0.01267  Uiso   1.00
H9     H     0.51290   0.87800   0.16240   0.01267  Uiso   1.00
H10    H     0.36070   0.82610   0.05630   0.01267  Uiso   1.00
H11    H     0.17250   0.97950   0.76390   0.01267  Uiso   1.00
H12    H     0.48760   0.59600   0.47480   0.01267  Uiso   1.00
H13    H     0.56460   0.61080   0.17780   0.01267  Uiso   1.00
H14    H     0.94670   0.37800   0.66240   0.01267  Uiso   1.00
H15    H     0.14680   0.11080   0.67780   0.01267  Uiso   1.00
H16    H     0.76570   0.24900   0.87060   0.01267  Uiso   1.00
H17    H     0.41590   0.52050   0.73610   0.01267  Uiso   1.00
H18    H     0.61630   0.51500   0.65460   0.01267  Uiso   1.00
H19    H     0.88230   0.92790   0.65370   0.01267  Uiso   1.00
H20    H     0.03610   0.42790   0.15370   0.01267  Uiso   1.00
H21    H     0.82740   0.08770   0.89450   0.01267  Uiso   1.00
H22    H     0.28590   0.98500   0.84540   0.01267  Uiso   1.00
H23    H     0.29060   0.44220   0.22300   0.01267  Uiso   1.00
H24    H     0.82750   0.02050   0.23610   0.01267  Uiso   1.00
H25    H     0.61470   0.74900   0.37060   0.01267  Uiso   1.00
H26    H     0.23430   0.75100   0.12940   0.01267  Uiso   1.00
H27    H     0.17410   0.70060   0.26800   0.01267  Uiso   1.00
H28    H     0.05330   0.62200   0.33760   0.01267  Uiso   1.00
H29    H     0.94150   0.65590   0.17370   0.01267  Uiso   1.00
H30    H     0.38370   0.48500   0.34540   0.01267  Uiso   1.00
H31    H     0.71410   0.01500   0.15460   0.01267  Uiso   1.00
H32    H     0.64270   0.79940   0.23200   0.01267  Uiso   1.00
H33    H     0.03230   0.25380   0.38800   0.01267  Uiso   1.00
H34    H     0.82880   0.14840   0.76440   0.01267  Uiso   1.00
H35    H     0.70940   0.55780   0.77700   0.01267  Uiso   1.00
H36    H     0.30960   0.41230   0.60550   0.01267  Uiso   1.00
H37    H     0.01110   0.21990   0.32950   0.01267  Uiso   1.00
H38    H     0.05850   0.34410   0.82630   0.01267  Uiso   1.00
H39    H     0.69200   0.68430   0.10310   0.01267  Uiso   1.00
H40    H     0.45580   0.05780   0.27700   0.01267  Uiso   1.00
H41    H     0.96390   0.57210   0.84630   0.01267  Uiso   1.00
H42    H     0.94160   0.09600   0.97480   0.01267  Uiso   1.00
H43    H     0.63930   0.17390   0.94370   0.01267  Uiso   1.00
H44    H     0.24160   0.35160   0.73560   0.01267  Uiso   1.00
H45    H     0.38530   0.25100   0.62940   0.01267  Uiso   1.00
H46    H     0.11770   0.07210   0.34630   0.01267  Uiso   1.00
H47    H     0.74310   0.67390   0.44370   0.01267  Uiso   1.00
H48    H     0.27110   0.84410   0.32630   0.01267  Uiso   1.00
H49    H     0.17260   0.91230   0.10550   0.01267  Uiso   1.00
H50    H     0.30800   0.31570   0.89690   0.01267  Uiso   1.00
H51    H     0.97940   0.81570   0.39690   0.01267  Uiso   1.00
H52    H     0.98890   0.78010   0.67050   0.01267  Uiso   1.00
H53    H     0.82590   0.29940   0.73200   0.01267  Uiso   1.00
H54    H     0.82590   0.75380   0.88800   0.01267  Uiso   1.00
H55    H     0.51240   0.40400   0.52520   0.01267  Uiso   1.00
H56    H     0.25690   0.32610   0.55630   0.01267  Uiso   1.00
H57    H     0.75840   0.64840   0.26440   0.01267  Uiso   1.00
H58    H     0.93950   0.71990   0.82950   0.01267  Uiso   1.00
H59    H     0.06050   0.28010   0.17050   0.01267  Uiso   1.00
H60    H     0.96770   0.74620   0.61200   0.01267  Uiso   1.00
H61    H     0.58410   0.47950   0.26390   0.01267  Uiso   1.00
H62    H     0.05840   0.90400   0.02520   0.01267  Uiso   1.00
H63    H     0.02060   0.18430   0.60310   0.01267  Uiso   1.00
H64    H     0.17410   0.24620   0.11200   0.01267  Uiso   1.00
C1     C     0.12927   0.26116   0.56950   0.01267  Uiso   1.00
C2     C     0.28036   0.54681   0.47067   0.01267  Uiso   1.00
C3     C     0.98839   0.07218   0.93244   0.01267  Uiso   1.00
C4     C     0.71707   0.82883   0.34103   0.01267  Uiso   1.00
C5     C     0.92001   0.06765   0.88413   0.01267  Uiso   1.00
C6     C     0.52786   0.89847   0.19941   0.01267  Uiso   1.00
C7     C     0.82894   0.84681   0.34791   0.01267  Uiso   1.00
C8     C     0.84769   0.38878   0.25544   0.01267  Uiso   1.00
C9     C     0.78030   0.10853   0.68767   0.01267  Uiso   1.00
C10    C     0.50643   0.99432   0.73182   0.01267  Uiso   1.00
C11    C     0.49301   0.42782   0.56756   0.01267  Uiso   1.00
C12    C     0.54520   0.49465   0.87115   0.01267  Uiso   1.00
C13    C     0.68702   0.76312   0.37644   0.01267  Uiso   1.00
C14    C     0.12548   0.00278   0.80646   0.01267  Uiso   1.00
C15    C     0.87404   0.45140   0.90572   0.01267  Uiso   1.00
C16    C     0.59738   0.21826   0.92058   0.01267  Uiso   1.00
C17    C     0.07999   0.93235   0.11587   0.01267  Uiso   1.00
C18    C     0.12596   0.54860   0.09428   0.01267  Uiso   1.00
C19    C     0.39975   0.30266   0.89244   0.01267  Uiso   1.00
C20    C     0.31298   0.23688   0.62356   0.01267  Uiso   1.00
C21    C     0.00726   0.54245   0.15343   0.01267  Uiso   1.00
C22    C     0.18602   0.39625   0.75771   0.01267  Uiso   1.00
C23    C     0.20314   0.95755   0.34657   0.01267  Uiso   1.00
C24    C     0.23622   0.28174   0.57942   0.01267  Uiso   1.00
C25    C     0.19362   0.00641   0.85515   0.01267  Uiso   1.00
C26    C     0.08304   0.96658   0.23474   0.01267  Uiso   1.00
C27    C     0.91866   0.52772   0.66676   0.01267  Uiso   1.00
C28    C     0.87059   0.46691   0.23151   0.01267  Uiso   1.00
C29    C     0.40262   0.78174   0.07942   0.01267  Uiso   1.00
C30    C     0.19830   0.64862   0.25858   0.01267  Uiso   1.00
C31    C     0.26743   0.49432   0.23182   0.01267  Uiso   1.00
C32    C     0.12941   0.53309   0.76849   0.01267  Uiso   1.00
C33    C     0.20216   0.04681   0.97067   0.01267  Uiso   1.00
C34    C     0.01161   0.92782   0.06756   0.01267  Uiso   1.00
C35    C     0.98012   0.47234   0.17602   0.01267  Uiso   1.00
C36    C     0.81398   0.60375   0.24229   0.01267  Uiso   1.00
C37    C     0.60025   0.69734   0.10756   0.01267  Uiso   1.00
C38    C     0.65885   0.53347   0.32003   0.01267  Uiso   1.00
C39    C     0.93099   0.96691   0.73151   0.01267  Uiso   1.00
C40    C     0.37584   0.19657   0.98455   0.01267  Uiso   1.00
C41    C     0.49357   0.00568   0.26818   0.01267  Uiso   1.00
C42    C     0.32658   0.73688   0.12356   0.01267  Uiso   1.00
C43    C     0.79784   0.95319   0.02933   0.01267  Uiso   1.00
C44    C     0.84008   0.47627   0.71197   0.01267  Uiso   1.00
C45    C     0.57085   0.95875   0.31135   0.01267  Uiso   1.00
C46    C     0.69237   0.37996   0.79790   0.01267  Uiso   1.00
C47    C     0.26884   0.95140   0.40572   0.01267  Uiso   1.00
C48    C     0.16002   0.89625   0.25771   0.01267  Uiso   1.00
C49    C     0.52832   0.02373   0.78803   0.01267  Uiso   1.00
C50    C     0.39450   0.14862   0.75858   0.01267  Uiso   1.00
C51    C     0.01235   0.96653   0.17997   0.01267  Uiso   1.00
C52    C     0.47214   0.10153   0.80059   0.01267  Uiso   1.00
C53    C     0.34095   0.54125   0.18865   0.01267  Uiso   1.00
C54    C     0.80638   0.99359   0.14485   0.01267  Uiso   1.00
C55    C     0.42915   0.04125   0.68865   0.01267  Uiso   1.00
C56    C     0.92350   0.60853   0.18767   0.01267  Uiso   1.00
C57    C     0.83998   0.10375   0.74229   0.01267  Uiso   1.00
C58    C     0.67342   0.26312   0.87644   0.01267  Uiso   1.00
C59    C     0.87402   0.95831   0.08145   0.01267  Uiso   1.00
C60    C     0.12848   0.02766   0.32398   0.01267  Uiso   1.00
C61    C     0.38686   0.02772   0.16676   0.01267  Uiso   1.00
C62    C     0.45480   0.50535   0.12885   0.01267  Uiso   1.00
C63    C     0.45993   0.23884   0.93050   0.01267  Uiso   1.00
C64    C     0.09485   0.19734   0.60756   0.01267  Uiso   1.00
C65    C     0.87073   0.73884   0.43050   0.01267  Uiso   1.00
C66    C     0.62416   0.80343   0.01545   0.01267  Uiso   1.00
C67    C     0.87426   0.39847   0.69941   0.01267  Uiso   1.00
C68    C     0.28293   0.17117   0.65897   0.01267  Uiso   1.00
C69    C     0.62821   0.56765   0.38413   0.01267  Uiso   1.00
C70    C     0.99274   0.45755   0.84657   0.01267  Uiso   1.00
C71    C     0.38693   0.67117   0.15897   0.01267  Uiso   1.00
C72    C     0.94304   0.69657   0.48455   0.01267  Uiso   1.00
C73    C     0.52366   0.65319   0.15209   0.01267  Uiso   1.00
C74    C     0.78436   0.53342   0.26526   0.01267  Uiso   1.00
C75    C     0.44482   0.50641   0.35515   0.01267  Uiso   1.00
C76    C     0.61314   0.97228   0.83324   0.01267  Uiso   1.00
C77    C     0.21564   0.46658   0.73474   0.01267  Uiso   1.00
C78    C     0.01988   0.52766   0.82398   0.01267  Uiso   1.00
C79    C     0.21970   0.89147   0.31233   0.01267  Uiso   1.00
C80    C     0.30763   0.62004   0.20210   0.01267  Uiso   1.00
C81    C     0.47168   0.97627   0.21197   0.01267  Uiso   1.00
C82    C     0.41378   0.54169   0.41855   0.01267  Uiso   1.00
C83    C     0.56528   0.50278   0.30646   0.01267  Uiso   1.00
C84    C     0.41100   0.00535   0.62885   0.01267  Uiso   1.00
C85    C     0.34115   0.46653   0.67997   0.01267  Uiso   1.00
C86    C     0.12598   0.04169   0.91855   0.01267  Uiso   1.00
C87    C     0.12574   0.60153   0.30059   0.01267  Uiso   1.00
C88    C     0.00809   0.88878   0.75544   0.01267  Uiso   1.00
C89    C     0.50699   0.57218   0.43244   0.01267  Uiso   1.00
C90    C     0.80170   0.35138   0.74142   0.01267  Uiso   1.00
C91    C     0.91696   0.03342   0.76526   0.01267  Uiso   1.00
C92    C     0.37179   0.43235   0.61587   0.01267  Uiso   1.00
C93    C     0.58622   0.45831   0.58145   0.01267  Uiso   1.00
C94    C     0.55518   0.49359   0.64485   0.01267  Uiso   1.00
C95    C     0.37023   0.12004   0.70210   0.01267  Uiso   1.00
C96    C     0.87452   0.99722   0.19354   0.01267  Uiso   1.00
C97    C     0.54007   0.76116   0.06950   0.01267  Uiso   1.00
C98    C     0.60550   0.85138   0.24142   0.01267  Uiso   1.00
C99    C     0.87152   0.97234   0.67602   0.01267  Uiso   1.00
C100   C     0.99191   0.11122   0.24456   0.01267  Uiso   1.00
C101   C     0.65905   0.45875   0.81135   0.01267  Uiso   1.00
C102   C     0.05696   0.30343   0.51545   0.01267  Uiso   1.00
C103   C     0.98765   0.03347   0.82003   0.01267  Uiso   1.00
C104   C     0.15231   0.61122   0.74456   0.01267  Uiso   1.00
C105   C     0.58900   0.99465   0.37115   0.01267  Uiso   1.00
C106   C     0.17106   0.15319   0.65209   0.01267  Uiso   1.00
C107   C     0.90515   0.80266   0.39244   0.01267  Uiso   1.00
C108   C     0.06901   0.03309   0.26849   0.01267  Uiso   1.00
C109   C     0.73257   0.50568   0.76818   0.01267  Uiso   1.00
C110   C     0.79686   0.04245   0.65343   0.01267  Uiso   1.00
C111   C     0.47634   0.34681   0.84791   0.01267  Uiso   1.00
C112   C     0.76378   0.71826   0.42058   0.01267  Uiso   1.00
C113   C     0.43472   0.49722   0.69354   0.01267  Uiso   1.00
C114   C     0.08134   0.47228   0.33324   0.01267  Uiso   1.00
C115   C     0.62977   0.87996   0.29790   0.01267  Uiso   1.00
C116   C     0.71964   0.45319   0.52933   0.01267  Uiso   1.00
C117   C     0.73116   0.04860   0.59428   0.01267  Uiso   1.00
C118   C     0.15992   0.52373   0.28803   0.01267  Uiso   1.00
C119   C     0.07650   0.39147   0.81233   0.01267  Uiso   1.00
C120   C     0.61307   0.32883   0.84103   0.01267  Uiso   1.00
O1     O     0.24745   0.59204   0.51966   0.01267  Uiso   1.00
O2     O     0.98586   0.49978   0.38534   0.01267  Uiso   1.00
O3     O     0.01761   0.72583   0.50415   0.01267  Uiso   1.00
O4     O     0.07859   0.36679   0.48763   0.01267  Uiso   1.00
O5     O     0.62033   0.05651   0.35883   0.01267  Uiso   1.00
O6     O     0.14085   0.09204   0.01966   0.01267  Uiso   1.00
O7     O     0.98408   0.86750   0.81912   0.01267  Uiso   1.00
O8     O     0.56699   0.86679   0.98763   0.01267  Uiso   1.00
O9     O     0.33134   0.09717   0.18215   0.01267  Uiso   1.00
O10    O     0.05201   0.24555   0.34423   0.01267  Uiso   1.00
O11    O     0.01592   0.13250   0.18088   0.01267  Uiso   1.00
O12    O     0.66591   0.11316   0.57478   0.01267  Uiso   1.00
O13    O     0.74379   0.98755   0.56407   0.01267  Uiso   1.00
O14    O     0.53567   0.44349   0.14117   0.01267  Uiso   1.00
O15    O     0.98239   0.27417   0.49585   0.01267  Uiso   1.00
O16    O     0.75255   0.40796   0.48034   0.01267  Uiso   1.00
O17    O     0.46433   0.55651   0.85883   0.01267  Uiso   1.00
O18    O     0.01414   0.50022   0.61466   0.01267  Uiso   1.00
O19    O     0.82930   0.36750   0.31912   0.01267  Uiso   1.00
O20    O     0.33409   0.88684   0.42522   0.01267  Uiso   1.00
O21    O     0.90271   0.15255   0.29143   0.01267  Uiso   1.00
O22    O     0.14179   0.25445   0.15577   0.01267  Uiso   1.00
O23    O     0.42651   0.03704   0.56700   0.01267  Uiso   1.00
O24    O     0.21129   0.50539   0.46063   0.01267  Uiso   1.00
O25    O     0.92141   0.63321   0.51237   0.01267  Uiso   1.00
O26    O     0.66866   0.90283   0.81785   0.01267  Uiso   1.00
O27    O     0.53055   0.46296   0.93300   0.01267  Uiso   1.00
O28    O     0.94799   0.75445   0.65577   0.01267  Uiso   1.00
O29    O     0.85821   0.74555   0.84423   0.01267  Uiso   1.00
O30    O     0.74759   0.77417   0.99585   0.01267  Uiso   1.00
O31    O     0.85915   0.90796   0.98034   0.01267  Uiso   1.00
O32    O     0.62902   0.99978   0.88534   0.01267  Uiso   1.00
O33    O     0.85385   0.38684   0.92522   0.01267  Uiso   1.00
O34    O     0.57349   0.96296   0.43300   0.01267  Uiso   1.00
O35    O     0.43301   0.13321   0.01237   0.01267  Uiso   1.00
O36    O     0.11066   0.40283   0.31785   0.01267  Uiso   1.00
O37    O     0.84669   0.34745   0.20857   0.01267  Uiso   1.00
O38    O     0.32269   0.00539   0.96063   0.01267  Uiso   1.00
O39    O     0.17070   0.63250   0.68088   0.01267  Uiso   1.00
O40    O     0.09729   0.84745   0.70857   0.01267  Uiso   1.00
O41    O     0.25621   0.01245   0.43593   0.01267  Uiso   1.00
O42    O     0.14615   0.61316   0.07478   0.01267  Uiso   1.00
O43    O     0.78871   0.49461   0.53937   0.01267  Uiso   1.00
O44    O     0.15331   0.65255   0.79143   0.01267  Uiso   1.00
O45    O     0.37967   0.94349   0.64117   0.01267  Uiso   1.00
O46    O     0.25241   0.22583   0.00415   0.01267  Uiso   1.00
O47    O     0.79541   0.51245   0.93593   0.01267  Uiso   1.00
O48    O     0.20459   0.48755   0.06407   0.01267  Uiso   1.00
O49    O     0.88934   0.59717   0.68215   0.01267  Uiso   1.00
O50    O     0.37098   0.00022   0.11466   0.01267  Uiso   1.00
O51    O     0.67731   0.99461   0.03937   0.01267  Uiso   1.00
O52    O     0.46945   0.53704   0.06700   0.01267  Uiso   1.00
