data_image0
_cell_length_a       13.6542
_cell_length_b       13.6542
_cell_length_c       42.16
_cell_angle_alpha    90
_cell_angle_beta     90
_cell_angle_gamma    90

_symmetry_space_group_name_H-M    "P 1"
_symmetry_int_tables_number       1

loop_
  _symmetry_equiv_pos_as_xyz
  'x, y, z'

loop_
  _atom_site_label
  _atom_site_occupancy
  _atom_site_fract_x
  _atom_site_fract_y
  _atom_site_fract_z
  _atom_site_thermal_displace_type
  _atom_site_B_iso_or_equiv
  _atom_site_type_symbol
  Cu1      1.0000 0.55767  0.51279  0.27928  Biso   1.000  Cu
  Cu2      1.0000 0.72394  0.42180  0.23633  Biso   1.000  Cu
  Cu3      1.0000 0.32772  0.54182  0.27036  Biso   1.000  Cu
  Cu4      1.0000 0.63234  0.84817  0.25398  Biso   1.000  Cu
  S1       1.0000 0.71554  0.38635  0.30821  Biso   1.000  S
  S2       1.0000 0.46042  0.69980  0.30074  Biso   1.000  S
  S3       1.0000 0.68642  0.64860  0.21550  Biso   1.000  S
  O1       1.0000 0.20780  0.54860  0.29446  Biso   1.000  O
  O2       1.0000 0.10041  0.43110  0.28302  Biso   1.000  O
  O3       1.0000 0.65400  0.47470  0.31065  Biso   1.000  O
  O4       1.0000 0.77848  0.39670  0.28024  Biso   1.000  O
  O5       1.0000 0.64950  0.30170  0.30391  Biso   1.000  O
  O6       1.0000 0.77320  0.37400  0.33646  Biso   1.000  O
  O7       1.0000 0.52830  0.61837  0.30832  Biso   1.000  O
  O8       1.0000 0.36070  0.66030  0.29633  Biso   1.000  O
  O9       1.0000 0.49260  0.74510  0.27059  Biso   1.000  O
  O10      1.0000 0.46120  0.77030  0.32594  Biso   1.000  O
  O11      1.0000 0.71000  0.57859  0.24087  Biso   1.000  O
  O12      1.0000 0.69640  0.74790  0.22912  Biso   1.000  O
  O13      1.0000 0.58610  0.63300  0.20483  Biso   1.000  O
  O14      1.0000 0.75330  0.64030  0.18881  Biso   1.000  O
  N1       1.0000 0.93274  0.63829  0.46926  Biso   1.000  N
  N2       1.0000 0.91230  0.46912  0.47213  Biso   1.000  N
  C1       1.0000 0.91000  0.55780  0.48476  Biso   1.000  C
  H1       1.0000 0.89120  0.56360  0.50590  Biso   1.000  H
  C2       1.0000 0.96160  0.63090  0.43897  Biso   1.000  C
  H2       1.0000 0.97640  0.68740  0.42760  Biso   1.000  H
  C3       1.0000 0.96970  0.54080  0.42445  Biso   1.000  C
  C4       1.0000 0.94230  0.46060  0.44218  Biso   1.000  C
  H3       1.0000 0.94480  0.39880  0.43300  Biso   1.000  H
  C5       1.0000 0.00870  0.53050  0.39205  Biso   1.000  C
  C6       1.0000 0.08340  0.59150  0.38171  Biso   1.000  C
  H4       1.0000 0.10790  0.63960  0.39520  Biso   1.000  H
  C7       1.0000 0.12070  0.58160  0.35221  Biso   1.000  C
  H5       1.0000 0.17020  0.62370  0.34560  Biso   1.000  H
  C8       1.0000 0.08670  0.50980  0.33139  Biso   1.000  C
  C9       1.0000 0.01120  0.45000  0.34120  Biso   1.000  C
  H6       1.0000 0.98640  0.40240  0.32760  Biso   1.000  H
  C10      1.0000 0.97230  0.46120  0.37136  Biso   1.000  C
  H7       1.0000 0.92080  0.42130  0.37780  Biso   1.000  H
  C11      1.0000 0.13500  0.49490  0.30046  Biso   1.000  C
  Cu5      1.0000 0.44233  0.48721  0.77928  Biso   1.000  Cu
  Cu6      1.0000 0.27606  0.57820  0.73633  Biso   1.000  Cu
  Cu7      1.0000 0.67228  0.45818  0.77036  Biso   1.000  Cu
  Cu8      1.0000 0.36766  0.15183  0.75398  Biso   1.000  Cu
  S4       1.0000 0.28446  0.61365  0.80821  Biso   1.000  S
  S5       1.0000 0.53958  0.30020  0.80074  Biso   1.000  S
  S6       1.0000 0.31358  0.35140  0.71550  Biso   1.000  S
  O15      1.0000 0.79220  0.45140  0.79446  Biso   1.000  O
  O16      1.0000 0.89959  0.56890  0.78302  Biso   1.000  O
  O17      1.0000 0.34600  0.52530  0.81065  Biso   1.000  O
  O18      1.0000 0.22152  0.60330  0.78024  Biso   1.000  O
  O19      1.0000 0.35050  0.69830  0.80391  Biso   1.000  O
  O20      1.0000 0.22680  0.62600  0.83646  Biso   1.000  O
  O21      1.0000 0.47170  0.38163  0.80832  Biso   1.000  O
  O22      1.0000 0.63930  0.33970  0.79633  Biso   1.000  O
  O23      1.0000 0.50740  0.25490  0.77059  Biso   1.000  O
  O24      1.0000 0.53880  0.22970  0.82594  Biso   1.000  O
  O25      1.0000 0.29000  0.42141  0.74087  Biso   1.000  O
  O26      1.0000 0.30360  0.25210  0.72912  Biso   1.000  O
  O27      1.0000 0.41390  0.36700  0.70483  Biso   1.000  O
  O28      1.0000 0.24670  0.35970  0.68881  Biso   1.000  O
  N3       1.0000 0.06726  0.36171  0.96926  Biso   1.000  N
  N4       1.0000 0.08770  0.53088  0.97213  Biso   1.000  N
  C12      1.0000 0.09000  0.44220  0.98476  Biso   1.000  C
  H8       1.0000 0.10880  0.43640  0.00590  Biso   1.000  H
  C13      1.0000 0.03840  0.36910  0.93897  Biso   1.000  C
  H9       1.0000 0.02360  0.31260  0.92760  Biso   1.000  H
  C14      1.0000 0.03030  0.45920  0.92445  Biso   1.000  C
  C15      1.0000 0.05770  0.53940  0.94218  Biso   1.000  C
  H10      1.0000 0.05520  0.60120  0.93300  Biso   1.000  H
  C16      1.0000 0.99130  0.46950  0.89205  Biso   1.000  C
  C17      1.0000 0.91660  0.40850  0.88171  Biso   1.000  C
  H11      1.0000 0.89210  0.36040  0.89520  Biso   1.000  H
  C18      1.0000 0.87930  0.41840  0.85221  Biso   1.000  C
  H12      1.0000 0.82980  0.37630  0.84560  Biso   1.000  H
  C19      1.0000 0.91330  0.49020  0.83139  Biso   1.000  C
  C20      1.0000 0.98880  0.55000  0.84120  Biso   1.000  C
  H13      1.0000 0.01360  0.59760  0.82760  Biso   1.000  H
  C21      1.0000 0.02770  0.53880  0.87136  Biso   1.000  C
  H14      1.0000 0.07920  0.57870  0.87780  Biso   1.000  H
  C22      1.0000 0.86500  0.50510  0.80046  Biso   1.000  C
  Cu9      1.0000 0.98721  0.05767  0.02928  Biso   1.000  Cu
  Cu10     1.0000 0.07820  0.22394  0.98633  Biso   1.000  Cu
  Cu11     1.0000 0.95818  0.82772  0.02036  Biso   1.000  Cu
  Cu12     1.0000 0.65183  0.13234  0.00398  Biso   1.000  Cu
  S7       1.0000 0.11365  0.21554  0.05821  Biso   1.000  S
  S8       1.0000 0.80020  0.96042  0.05074  Biso   1.000  S
  S9       1.0000 0.85140  0.18642  0.96550  Biso   1.000  S
  O29      1.0000 0.95140  0.70780  0.04446  Biso   1.000  O
  O30      1.0000 0.06890  0.60041  0.03302  Biso   1.000  O
  O31      1.0000 0.02530  0.15400  0.06065  Biso   1.000  O
  O32      1.0000 0.10330  0.27848  0.03024  Biso   1.000  O
  O33      1.0000 0.19830  0.14950  0.05391  Biso   1.000  O
  O34      1.0000 0.12600  0.27320  0.08646  Biso   1.000  O
  O35      1.0000 0.88163  0.02830  0.05832  Biso   1.000  O
  O36      1.0000 0.83970  0.86070  0.04633  Biso   1.000  O
  O37      1.0000 0.75490  0.99260  0.02059  Biso   1.000  O
  O38      1.0000 0.72970  0.96120  0.07594  Biso   1.000  O
  O39      1.0000 0.92141  0.21000  0.99087  Biso   1.000  O
  O40      1.0000 0.75210  0.19640  0.97912  Biso   1.000  O
  O41      1.0000 0.86700  0.08610  0.95483  Biso   1.000  O
  O42      1.0000 0.85970  0.25330  0.93881  Biso   1.000  O
  N5       1.0000 0.86171  0.43274  0.21926  Biso   1.000  N
  N6       1.0000 0.03088  0.41230  0.22213  Biso   1.000  N
  C23      1.0000 0.94220  0.41000  0.23476  Biso   1.000  C
  H15      1.0000 0.93640  0.39120  0.25590  Biso   1.000  H
  C24      1.0000 0.86910  0.46160  0.18897  Biso   1.000  C
  H16      1.0000 0.81260  0.47640  0.17760  Biso   1.000  H
  C25      1.0000 0.95920  0.46970  0.17445  Biso   1.000  C
  C26      1.0000 0.03940  0.44230  0.19218  Biso   1.000  C
  H17      1.0000 0.10120  0.44480  0.18300  Biso   1.000  H
  C27      1.0000 0.96950  0.50870  0.14205  Biso   1.000  C
  C28      1.0000 0.90850  0.58340  0.13171  Biso   1.000  C
  H18      1.0000 0.86040  0.60790  0.14520  Biso   1.000  H
  C29      1.0000 0.91840  0.62070  0.10221  Biso   1.000  C
  H19      1.0000 0.87630  0.67020  0.09560  Biso   1.000  H
  C30      1.0000 0.99020  0.58670  0.08139  Biso   1.000  C
  C31      1.0000 0.05000  0.51120  0.09120  Biso   1.000  C
  H20      1.0000 0.09760  0.48640  0.07760  Biso   1.000  H
  C32      1.0000 0.03880  0.47230  0.12136  Biso   1.000  C
  H21      1.0000 0.07870  0.42080  0.12780  Biso   1.000  H
  C33      1.0000 0.00510  0.63500  0.05046  Biso   1.000  C
  Cu13     1.0000 0.01279  0.94233  0.52928  Biso   1.000  Cu
  Cu14     1.0000 0.92180  0.77606  0.48633  Biso   1.000  Cu
  Cu15     1.0000 0.04182  0.17228  0.52036  Biso   1.000  Cu
  Cu16     1.0000 0.34817  0.86766  0.50398  Biso   1.000  Cu
  S10      1.0000 0.88635  0.78446  0.55821  Biso   1.000  S
  S11      1.0000 0.19980  0.03958  0.55074  Biso   1.000  S
  S12      1.0000 0.14860  0.81358  0.46550  Biso   1.000  S
  O43      1.0000 0.04860  0.29220  0.54446  Biso   1.000  O
  O44      1.0000 0.93110  0.39959  0.53302  Biso   1.000  O
  O45      1.0000 0.97470  0.84600  0.56065  Biso   1.000  O
  O46      1.0000 0.89670  0.72152  0.53024  Biso   1.000  O
  O47      1.0000 0.80170  0.85050  0.55391  Biso   1.000  O
  O48      1.0000 0.87400  0.72680  0.58646  Biso   1.000  O
  O49      1.0000 0.11837  0.97170  0.55832  Biso   1.000  O
  O50      1.0000 0.16030  0.13930  0.54633  Biso   1.000  O
  O51      1.0000 0.24510  0.00740  0.52059  Biso   1.000  O
  O52      1.0000 0.27030  0.03880  0.57594  Biso   1.000  O
  O53      1.0000 0.07859  0.79000  0.49087  Biso   1.000  O
  O54      1.0000 0.24790  0.80360  0.47912  Biso   1.000  O
  O55      1.0000 0.13300  0.91390  0.45483  Biso   1.000  O
  O56      1.0000 0.14030  0.74670  0.43881  Biso   1.000  O
  N7       1.0000 0.13829  0.56726  0.71926  Biso   1.000  N
  N8       1.0000 0.96912  0.58770  0.72213  Biso   1.000  N
  C34      1.0000 0.05780  0.59000  0.73476  Biso   1.000  C
  H22      1.0000 0.06360  0.60880  0.75590  Biso   1.000  H
  C35      1.0000 0.13090  0.53840  0.68897  Biso   1.000  C
  H23      1.0000 0.18740  0.52360  0.67760  Biso   1.000  H
  C36      1.0000 0.04080  0.53030  0.67445  Biso   1.000  C
  C37      1.0000 0.96060  0.55770  0.69218  Biso   1.000  C
  H24      1.0000 0.89880  0.55520  0.68300  Biso   1.000  H
  C38      1.0000 0.03050  0.49130  0.64205  Biso   1.000  C
  C39      1.0000 0.09150  0.41660  0.63171  Biso   1.000  C
  H25      1.0000 0.13960  0.39210  0.64520  Biso   1.000  H
  C40      1.0000 0.08160  0.37930  0.60221  Biso   1.000  C
  H26      1.0000 0.12370  0.32980  0.59560  Biso   1.000  H
  C41      1.0000 0.00980  0.41330  0.58139  Biso   1.000  C
  C42      1.0000 0.95000  0.48880  0.59120  Biso   1.000  C
  H27      1.0000 0.90240  0.51360  0.57760  Biso   1.000  H
  C43      1.0000 0.96120  0.52770  0.62136  Biso   1.000  C
  H28      1.0000 0.92130  0.57920  0.62780  Biso   1.000  H
  C44      1.0000 0.99490  0.36500  0.55046  Biso   1.000  C
  Cu17     1.0000 0.94233  0.01279  0.47072  Biso   1.000  Cu
  Cu18     1.0000 0.77606  0.92180  0.51367  Biso   1.000  Cu
  Cu19     1.0000 0.17228  0.04182  0.47964  Biso   1.000  Cu
  Cu20     1.0000 0.86766  0.34817  0.49602  Biso   1.000  Cu
  S13      1.0000 0.78446  0.88635  0.44179  Biso   1.000  S
  S14      1.0000 0.03958  0.19980  0.44926  Biso   1.000  S
  S15      1.0000 0.81358  0.14860  0.53450  Biso   1.000  S
  O57      1.0000 0.29220  0.04860  0.45554  Biso   1.000  O
  O58      1.0000 0.39959  0.93110  0.46698  Biso   1.000  O
  O59      1.0000 0.84600  0.97470  0.43935  Biso   1.000  O
  O60      1.0000 0.72152  0.89670  0.46976  Biso   1.000  O
  O61      1.0000 0.85050  0.80170  0.44609  Biso   1.000  O
  O62      1.0000 0.72680  0.87400  0.41354  Biso   1.000  O
  O63      1.0000 0.97170  0.11837  0.44168  Biso   1.000  O
  O64      1.0000 0.13930  0.16030  0.45367  Biso   1.000  O
  O65      1.0000 0.00740  0.24510  0.47941  Biso   1.000  O
  O66      1.0000 0.03880  0.27030  0.42406  Biso   1.000  O
  O67      1.0000 0.79000  0.07859  0.50913  Biso   1.000  O
  O68      1.0000 0.80360  0.24790  0.52088  Biso   1.000  O
  O69      1.0000 0.91390  0.13300  0.54517  Biso   1.000  O
  O70      1.0000 0.74670  0.14030  0.56119  Biso   1.000  O
  N9       1.0000 0.56726  0.13829  0.28074  Biso   1.000  N
  N10      1.0000 0.58770  0.96912  0.27787  Biso   1.000  N
  C45      1.0000 0.59000  0.05780  0.26524  Biso   1.000  C
  H29      1.0000 0.60880  0.06360  0.24410  Biso   1.000  H
  C46      1.0000 0.53840  0.13090  0.31103  Biso   1.000  C
  H30      1.0000 0.52360  0.18740  0.32240  Biso   1.000  H
  C47      1.0000 0.53030  0.04080  0.32555  Biso   1.000  C
  C48      1.0000 0.55770  0.96060  0.30782  Biso   1.000  C
  H31      1.0000 0.55520  0.89880  0.31700  Biso   1.000  H
  C49      1.0000 0.49130  0.03050  0.35795  Biso   1.000  C
  C50      1.0000 0.41660  0.09150  0.36829  Biso   1.000  C
  H32      1.0000 0.39210  0.13960  0.35480  Biso   1.000  H
  C51      1.0000 0.37930  0.08160  0.39779  Biso   1.000  C
  H33      1.0000 0.32980  0.12370  0.40440  Biso   1.000  H
  C52      1.0000 0.41330  0.00980  0.41861  Biso   1.000  C
  C53      1.0000 0.48880  0.95000  0.40880  Biso   1.000  C
  H34      1.0000 0.51360  0.90240  0.42240  Biso   1.000  H
  C54      1.0000 0.52770  0.96120  0.37864  Biso   1.000  C
  H35      1.0000 0.57920  0.92130  0.37220  Biso   1.000  H
  C55      1.0000 0.36500  0.99490  0.44954  Biso   1.000  C
  Cu21     1.0000 0.05767  0.98721  0.97072  Biso   1.000  Cu
  Cu22     1.0000 0.22394  0.07820  0.01367  Biso   1.000  Cu
  Cu23     1.0000 0.82772  0.95818  0.97964  Biso   1.000  Cu
  Cu24     1.0000 0.13234  0.65183  0.99602  Biso   1.000  Cu
  S16      1.0000 0.21554  0.11365  0.94179  Biso   1.000  S
  S17      1.0000 0.96042  0.80020  0.94926  Biso   1.000  S
  S18      1.0000 0.18642  0.85140  0.03450  Biso   1.000  S
  O71      1.0000 0.70780  0.95140  0.95554  Biso   1.000  O
  O72      1.0000 0.60041  0.06890  0.96698  Biso   1.000  O
  O73      1.0000 0.15400  0.02530  0.93935  Biso   1.000  O
  O74      1.0000 0.27848  0.10330  0.96976  Biso   1.000  O
  O75      1.0000 0.14950  0.19830  0.94609  Biso   1.000  O
  O76      1.0000 0.27320  0.12600  0.91354  Biso   1.000  O
  O77      1.0000 0.02830  0.88163  0.94168  Biso   1.000  O
  O78      1.0000 0.86070  0.83970  0.95367  Biso   1.000  O
  O79      1.0000 0.99260  0.75490  0.97941  Biso   1.000  O
  O80      1.0000 0.96120  0.72970  0.92406  Biso   1.000  O
  O81      1.0000 0.21000  0.92141  0.00913  Biso   1.000  O
  O82      1.0000 0.19640  0.75210  0.02088  Biso   1.000  O
  O83      1.0000 0.08610  0.86700  0.04517  Biso   1.000  O
  O84      1.0000 0.25330  0.85970  0.06119  Biso   1.000  O
  N11      1.0000 0.43274  0.86171  0.78074  Biso   1.000  N
  N12      1.0000 0.41230  0.03088  0.77787  Biso   1.000  N
  C56      1.0000 0.41000  0.94220  0.76524  Biso   1.000  C
  H36      1.0000 0.39120  0.93640  0.74410  Biso   1.000  H
  C57      1.0000 0.46160  0.86910  0.81103  Biso   1.000  C
  H37      1.0000 0.47640  0.81260  0.82240  Biso   1.000  H
  C58      1.0000 0.46970  0.95920  0.82555  Biso   1.000  C
  C59      1.0000 0.44230  0.03940  0.80782  Biso   1.000  C
  H38      1.0000 0.44480  0.10120  0.81700  Biso   1.000  H
  C60      1.0000 0.50870  0.96950  0.85795  Biso   1.000  C
  C61      1.0000 0.58340  0.90850  0.86829  Biso   1.000  C
  H39      1.0000 0.60790  0.86040  0.85480  Biso   1.000  H
  C62      1.0000 0.62070  0.91840  0.89779  Biso   1.000  C
  H40      1.0000 0.67020  0.87630  0.90440  Biso   1.000  H
  C63      1.0000 0.58670  0.99020  0.91861  Biso   1.000  C
  C64      1.0000 0.51120  0.05000  0.90880  Biso   1.000  C
  H41      1.0000 0.48640  0.09760  0.92240  Biso   1.000  H
  C65      1.0000 0.47230  0.03880  0.87864  Biso   1.000  C
  H42      1.0000 0.42080  0.07870  0.87220  Biso   1.000  H
  C66      1.0000 0.63500  0.00510  0.94954  Biso   1.000  C
  Cu25     1.0000 0.51279  0.55767  0.72072  Biso   1.000  Cu
  Cu26     1.0000 0.42180  0.72394  0.76367  Biso   1.000  Cu
  Cu27     1.0000 0.54182  0.32772  0.72964  Biso   1.000  Cu
  Cu28     1.0000 0.84817  0.63234  0.74602  Biso   1.000  Cu
  S19      1.0000 0.38635  0.71554  0.69179  Biso   1.000  S
  S20      1.0000 0.69980  0.46042  0.69926  Biso   1.000  S
  S21      1.0000 0.64860  0.68642  0.78450  Biso   1.000  S
  O85      1.0000 0.54860  0.20780  0.70554  Biso   1.000  O
  O86      1.0000 0.43110  0.10041  0.71698  Biso   1.000  O
  O87      1.0000 0.47470  0.65400  0.68935  Biso   1.000  O
  O88      1.0000 0.39670  0.77848  0.71976  Biso   1.000  O
  O89      1.0000 0.30170  0.64950  0.69609  Biso   1.000  O
  O90      1.0000 0.37400  0.77320  0.66354  Biso   1.000  O
  O91      1.0000 0.61837  0.52830  0.69168  Biso   1.000  O
  O92      1.0000 0.66030  0.36070  0.70367  Biso   1.000  O
  O93      1.0000 0.74510  0.49260  0.72941  Biso   1.000  O
  O94      1.0000 0.77030  0.46120  0.67406  Biso   1.000  O
  O95      1.0000 0.57859  0.71000  0.75913  Biso   1.000  O
  O96      1.0000 0.74790  0.69640  0.77088  Biso   1.000  O
  O97      1.0000 0.63300  0.58610  0.79517  Biso   1.000  O
  O98      1.0000 0.64030  0.75330  0.81119  Biso   1.000  O
  N13      1.0000 0.63829  0.93274  0.53074  Biso   1.000  N
  N14      1.0000 0.46912  0.91230  0.52787  Biso   1.000  N
  C67      1.0000 0.55780  0.91000  0.51524  Biso   1.000  C
  H43      1.0000 0.56360  0.89120  0.49410  Biso   1.000  H
  C68      1.0000 0.63090  0.96160  0.56103  Biso   1.000  C
  H44      1.0000 0.68740  0.97640  0.57240  Biso   1.000  H
  C69      1.0000 0.54080  0.96970  0.57555  Biso   1.000  C
  C70      1.0000 0.46060  0.94230  0.55782  Biso   1.000  C
  H45      1.0000 0.39880  0.94480  0.56700  Biso   1.000  H
  C71      1.0000 0.53050  0.00870  0.60795  Biso   1.000  C
  C72      1.0000 0.59150  0.08340  0.61829  Biso   1.000  C
  H46      1.0000 0.63960  0.10790  0.60480  Biso   1.000  H
  C73      1.0000 0.58160  0.12070  0.64779  Biso   1.000  C
  H47      1.0000 0.62370  0.17020  0.65440  Biso   1.000  H
  C74      1.0000 0.50980  0.08670  0.66861  Biso   1.000  C
  C75      1.0000 0.45000  0.01120  0.65880  Biso   1.000  C
  H48      1.0000 0.40240  0.98640  0.67240  Biso   1.000  H
  C76      1.0000 0.46120  0.97230  0.62864  Biso   1.000  C
  H49      1.0000 0.42130  0.92080  0.62220  Biso   1.000  H
  C77      1.0000 0.49490  0.13500  0.69954  Biso   1.000  C
  Cu29     1.0000 0.48721  0.44233  0.22072  Biso   1.000  Cu
  Cu30     1.0000 0.57820  0.27606  0.26367  Biso   1.000  Cu
  Cu31     1.0000 0.45818  0.67228  0.22964  Biso   1.000  Cu
  Cu32     1.0000 0.15183  0.36766  0.24602  Biso   1.000  Cu
  S22      1.0000 0.61365  0.28446  0.19179  Biso   1.000  S
  S23      1.0000 0.30020  0.53958  0.19926  Biso   1.000  S
  S24      1.0000 0.35140  0.31358  0.28450  Biso   1.000  S
  O99      1.0000 0.45140  0.79220  0.20554  Biso   1.000  O
  O100     1.0000 0.56890  0.89959  0.21698  Biso   1.000  O
  O101     1.0000 0.52530  0.34600  0.18935  Biso   1.000  O
  O102     1.0000 0.60330  0.22152  0.21976  Biso   1.000  O
  O103     1.0000 0.69830  0.35050  0.19609  Biso   1.000  O
  O104     1.0000 0.62600  0.22680  0.16354  Biso   1.000  O
  O105     1.0000 0.38163  0.47170  0.19168  Biso   1.000  O
  O106     1.0000 0.33970  0.63930  0.20367  Biso   1.000  O
  O107     1.0000 0.25490  0.50740  0.22941  Biso   1.000  O
  O108     1.0000 0.22970  0.53880  0.17406  Biso   1.000  O
  O109     1.0000 0.42141  0.29000  0.25913  Biso   1.000  O
  O110     1.0000 0.25210  0.30360  0.27088  Biso   1.000  O
  O111     1.0000 0.36700  0.41390  0.29517  Biso   1.000  O
  O112     1.0000 0.35970  0.24670  0.31119  Biso   1.000  O
  N15      1.0000 0.36171  0.06726  0.03074  Biso   1.000  N
  N16      1.0000 0.53088  0.08770  0.02787  Biso   1.000  N
  C78      1.0000 0.44220  0.09000  0.01524  Biso   1.000  C
  H50      1.0000 0.43640  0.10880  0.99410  Biso   1.000  H
  C79      1.0000 0.36910  0.03840  0.06103  Biso   1.000  C
  H51      1.0000 0.31260  0.02360  0.07240  Biso   1.000  H
  C80      1.0000 0.45920  0.03030  0.07555  Biso   1.000  C
  C81      1.0000 0.53940  0.05770  0.05782  Biso   1.000  C
  H52      1.0000 0.60120  0.05520  0.06700  Biso   1.000  H
  C82      1.0000 0.46950  0.99130  0.10795  Biso   1.000  C
  C83      1.0000 0.40850  0.91660  0.11829  Biso   1.000  C
  H53      1.0000 0.36040  0.89210  0.10480  Biso   1.000  H
  C84      1.0000 0.41840  0.87930  0.14779  Biso   1.000  C
  H54      1.0000 0.37630  0.82980  0.15440  Biso   1.000  H
  C85      1.0000 0.49020  0.91330  0.16861  Biso   1.000  C
  C86      1.0000 0.55000  0.98880  0.15880  Biso   1.000  C
  H55      1.0000 0.59760  0.01360  0.17240  Biso   1.000  H
  C87      1.0000 0.53880  0.02770  0.12864  Biso   1.000  C
  H56      1.0000 0.57870  0.07920  0.12220  Biso   1.000  H
  C88      1.0000 0.50510  0.86500  0.19954  Biso   1.000  C
  O113     1.0000 0.59106  0.40894  0.25000  Biso   1.000  O
  O114     1.0000 0.45389  0.54611  0.25000  Biso   1.000  O
  O115     1.0000 0.40894  0.59106  0.75000  Biso   1.000  O
  O116     1.0000 0.54611  0.45389  0.75000  Biso   1.000  O
  O117     1.0000 0.09106  0.09106  0.00000  Biso   1.000  O
  O118     1.0000 0.95389  0.95389  0.00000  Biso   1.000  O
  O119     1.0000 0.90894  0.90894  0.50000  Biso   1.000  O
  O120     1.0000 0.04611  0.04611  0.50000  Biso   1.000  O
