data_image0
_cell_length_a       14.745
_cell_length_b       11.024
_cell_length_c       13.287
_cell_angle_alpha    90
_cell_angle_beta     97.27
_cell_angle_gamma    90

_symmetry_space_group_name_H-M    "P 1"
_symmetry_int_tables_number       1

loop_
  _symmetry_equiv_pos_as_xyz
  'x, y, z'

loop_
  _atom_site_label
  _atom_site_occupancy
  _atom_site_fract_x
  _atom_site_fract_y
  _atom_site_fract_z
  _atom_site_thermal_displace_type
  _atom_site_B_iso_or_equiv
  _atom_site_type_symbol
  Cu1      1.0000 0.01470  0.28742  0.23314  Biso   1.000  Cu
  Cu2      1.0000 0.31441  0.19730  0.23652  Biso   1.000  Cu
  O1       1.0000 0.94300  0.13870  0.21190  Biso   1.000  O
  O2       1.0000 0.92091  0.94330  0.23920  Biso   1.000  O
  O3       1.0000 0.12790  0.20970  0.21990  Biso   1.000  O
  O4       1.0000 0.38620  0.34610  0.23080  Biso   1.000  O
  O5       1.0000 0.45020  0.46590  0.12730  Biso   1.000  O
  O6       1.0000 0.39890  0.42250  0.91980  Biso   1.000  O
  N1       1.0000 0.22980  0.05780  0.24200  Biso   1.000  N
  N2       1.0000 0.09490  0.89130  0.26220  Biso   1.000  N
  N3       1.0000 0.30100  0.21500  0.08360  Biso   1.000  N
  N4       1.0000 0.30490  0.26450  0.88180  Biso   1.000  N
  C1       1.0000 0.14100  0.09610  0.23390  Biso   1.000  C
  C2       1.0000 0.07320  0.00690  0.24280  Biso   1.000  C
  C3       1.0000 0.97310  0.03350  0.23090  Biso   1.000  C
  C4       1.0000 0.18250  0.85680  0.27260  Biso   1.000  C
  H1       1.0000 0.19840  0.77460  0.28730  Biso   1.000  H
  C5       1.0000 0.25010  0.94150  0.26180  Biso   1.000  C
  H2       1.0000 0.31220  0.91630  0.26870  Biso   1.000  H
  C6       1.0000 0.35380  0.33580  0.95230  Biso   1.000  C
  C7       1.0000 0.35050  0.30810  0.05660  Biso   1.000  C
  C8       1.0000 0.39920  0.37880  0.14310  Biso   1.000  C
  C9       1.0000 0.25320  0.14650  0.01290  Biso   1.000  C
  H3       1.0000 0.21770  0.08050  0.03210  Biso   1.000  H
  C10      1.0000 0.25580  0.17220  0.91180  Biso   1.000  C
  H4       1.0000 0.22170  0.12300  0.86190  Biso   1.000  H
  Cu3      1.0000 0.98530  0.78742  0.26686  Biso   1.000  Cu
  Cu4      1.0000 0.68559  0.69730  0.26348  Biso   1.000  Cu
  O7       1.0000 0.05700  0.63870  0.28810  Biso   1.000  O
  O8       1.0000 0.07909  0.44330  0.26080  Biso   1.000  O
  O9       1.0000 0.87210  0.70970  0.28010  Biso   1.000  O
  O10      1.0000 0.61380  0.84610  0.26920  Biso   1.000  O
  O11      1.0000 0.54980  0.96590  0.37270  Biso   1.000  O
  O12      1.0000 0.60110  0.92250  0.58020  Biso   1.000  O
  N5       1.0000 0.77020  0.55780  0.25800  Biso   1.000  N
  N6       1.0000 0.90510  0.39130  0.23780  Biso   1.000  N
  N7       1.0000 0.69900  0.71500  0.41640  Biso   1.000  N
  N8       1.0000 0.69510  0.76450  0.61820  Biso   1.000  N
  C11      1.0000 0.85900  0.59610  0.26610  Biso   1.000  C
  C12      1.0000 0.92680  0.50690  0.25720  Biso   1.000  C
  C13      1.0000 0.02690  0.53350  0.26910  Biso   1.000  C
  C14      1.0000 0.81750  0.35680  0.22740  Biso   1.000  C
  H5       1.0000 0.80160  0.27460  0.21270  Biso   1.000  H
  C15      1.0000 0.74990  0.44150  0.23820  Biso   1.000  C
  H6       1.0000 0.68780  0.41630  0.23130  Biso   1.000  H
  C16      1.0000 0.64620  0.83580  0.54770  Biso   1.000  C
  C17      1.0000 0.64950  0.80810  0.44340  Biso   1.000  C
  C18      1.0000 0.60080  0.87880  0.35690  Biso   1.000  C
  C19      1.0000 0.74680  0.64650  0.48710  Biso   1.000  C
  H7       1.0000 0.78230  0.58050  0.46790  Biso   1.000  H
  C20      1.0000 0.74420  0.67220  0.58820  Biso   1.000  C
  H8       1.0000 0.77830  0.62300  0.63810  Biso   1.000  H
  Cu5      1.0000 0.98530  0.71258  0.76686  Biso   1.000  Cu
  Cu6      1.0000 0.68559  0.80270  0.76348  Biso   1.000  Cu
  O13      1.0000 0.05700  0.86130  0.78810  Biso   1.000  O
  O14      1.0000 0.07909  0.05670  0.76080  Biso   1.000  O
  O15      1.0000 0.87210  0.79030  0.78010  Biso   1.000  O
  O16      1.0000 0.61380  0.65390  0.76920  Biso   1.000  O
  O17      1.0000 0.54980  0.53410  0.87270  Biso   1.000  O
  O18      1.0000 0.60110  0.57750  0.08020  Biso   1.000  O
  N9       1.0000 0.77020  0.94220  0.75800  Biso   1.000  N
  N10      1.0000 0.90510  0.10870  0.73780  Biso   1.000  N
  N11      1.0000 0.69900  0.78500  0.91640  Biso   1.000  N
  N12      1.0000 0.69510  0.73550  0.11820  Biso   1.000  N
  C21      1.0000 0.85900  0.90390  0.76610  Biso   1.000  C
  C22      1.0000 0.92680  0.99310  0.75720  Biso   1.000  C
  C23      1.0000 0.02690  0.96650  0.76910  Biso   1.000  C
  C24      1.0000 0.81750  0.14320  0.72740  Biso   1.000  C
  H9       1.0000 0.80160  0.22540  0.71270  Biso   1.000  H
  C25      1.0000 0.74990  0.05850  0.73820  Biso   1.000  C
  H10      1.0000 0.68780  0.08370  0.73130  Biso   1.000  H
  C26      1.0000 0.64620  0.66420  0.04770  Biso   1.000  C
  C27      1.0000 0.64950  0.69190  0.94340  Biso   1.000  C
  C28      1.0000 0.60080  0.62120  0.85690  Biso   1.000  C
  C29      1.0000 0.74680  0.85350  0.98710  Biso   1.000  C
  H11      1.0000 0.78230  0.91950  0.96790  Biso   1.000  H
  C30      1.0000 0.74420  0.82780  0.08820  Biso   1.000  C
  H12      1.0000 0.77830  0.87700  0.13810  Biso   1.000  H
  Cu7      1.0000 0.01470  0.21258  0.73314  Biso   1.000  Cu
  Cu8      1.0000 0.31441  0.30270  0.73652  Biso   1.000  Cu
  O19      1.0000 0.94300  0.36130  0.71190  Biso   1.000  O
  O20      1.0000 0.92091  0.55670  0.73920  Biso   1.000  O
  O21      1.0000 0.12790  0.29030  0.71990  Biso   1.000  O
  O22      1.0000 0.38620  0.15390  0.73080  Biso   1.000  O
  O23      1.0000 0.45020  0.03410  0.62730  Biso   1.000  O
  O24      1.0000 0.39890  0.07750  0.41980  Biso   1.000  O
  N13      1.0000 0.22980  0.44220  0.74200  Biso   1.000  N
  N14      1.0000 0.09490  0.60870  0.76220  Biso   1.000  N
  N15      1.0000 0.30100  0.28500  0.58360  Biso   1.000  N
  N16      1.0000 0.30490  0.23550  0.38180  Biso   1.000  N
  C31      1.0000 0.14100  0.40390  0.73390  Biso   1.000  C
  C32      1.0000 0.07320  0.49310  0.74280  Biso   1.000  C
  C33      1.0000 0.97310  0.46650  0.73090  Biso   1.000  C
  C34      1.0000 0.18250  0.64320  0.77260  Biso   1.000  C
  H13      1.0000 0.19840  0.72540  0.78730  Biso   1.000  H
  C35      1.0000 0.25010  0.55850  0.76180  Biso   1.000  C
  H14      1.0000 0.31220  0.58370  0.76870  Biso   1.000  H
  C36      1.0000 0.35380  0.16420  0.45230  Biso   1.000  C
  C37      1.0000 0.35050  0.19190  0.55660  Biso   1.000  C
  C38      1.0000 0.39920  0.12120  0.64310  Biso   1.000  C
  C39      1.0000 0.25320  0.35350  0.51290  Biso   1.000  C
  H15      1.0000 0.21770  0.41950  0.53210  Biso   1.000  H
  C40      1.0000 0.25580  0.32780  0.41180  Biso   1.000  C
  H16      1.0000 0.22170  0.37700  0.36190  Biso   1.000  H
  Cu9      1.0000 0.50000  0.50000  0.00000  Biso   1.000  Cu
  Cu10     1.0000 0.50000  0.00000  0.50000  Biso   1.000  Cu
