data_QIRYAS_clean
_audit_creation_date              2014-07-02
_audit_creation_method            'Materials Studio'
_symmetry_space_group_name_H-M    'P1'
_symmetry_Int_Tables_number       1
_symmetry_cell_setting            triclinic
loop_
_symmetry_equiv_pos_as_xyz
  x,y,z
_cell_length_a                    11.1193
_cell_length_b                    11.2473
_cell_length_c                    11.3620
_cell_angle_alpha                 75.6510
_cell_angle_beta                  66.1190
_cell_angle_gamma                 76.9910
loop_
_atom_site_label
_atom_site_type_symbol
_atom_site_fract_x
_atom_site_fract_y
_atom_site_fract_z
_atom_site_U_iso_or_equiv
_atom_site_adp_type
_atom_site_occupancy
Co1    Co    0.89106   0.61139   0.50123   0.01267  Uiso   1.00
Co2    Co    0.97109   0.43127   0.28995   0.01267  Uiso   1.00
Co3    Co    0.99917   0.64226   0.99109   0.01267  Uiso   1.00
Co4    Co    0.10894   0.38861   0.49877   0.01267  Uiso   1.00
Co5    Co    0.02891   0.56873   0.71005   0.01267  Uiso   1.00
Co6    Co    0.00083   0.35774   0.00891   0.01267  Uiso   1.00
H1     H     0.12680   0.47610   0.07810   0.01267  Uiso   1.00
H2     H     0.02780   0.96750   0.14270   0.01267  Uiso   1.00
H3     H     0.85820   0.07450   0.49700   0.01267  Uiso   1.00
H4     H     0.81500   0.87330   0.59200   0.01267  Uiso   1.00
H5     H     0.45190   0.58040   0.86170   0.01267  Uiso   1.00
H6     H     0.41920   0.65110   0.50670   0.01267  Uiso   1.00
H7     H     0.64400   0.67350   0.40980   0.01267  Uiso   1.00
H8     H     0.87320   0.52390   0.92190   0.01267  Uiso   1.00
H9     H     0.97220   0.03250   0.85730   0.01267  Uiso   1.00
H10    H     0.14180   0.92550   0.50300   0.01267  Uiso   1.00
H11    H     0.18500   0.12670   0.40800   0.01267  Uiso   1.00
H12    H     0.54810   0.41960   0.13830   0.01267  Uiso   1.00
H13    H     0.58080   0.34890   0.49330   0.01267  Uiso   1.00
H14    H     0.35600   0.32650   0.59020   0.01267  Uiso   1.00
C1     C     0.98500   0.72650   0.22660   0.01267  Uiso   1.00
C2     C     0.95500   0.83230   0.29870   0.01267  Uiso   1.00
C3     C     0.98530   0.94980   0.23510   0.01267  Uiso   1.00
C4     C     0.95190   0.04160   0.31000   0.01267  Uiso   1.00
C5     C     0.88550   0.01260   0.44420   0.01267  Uiso   1.00
C6     C     0.85970   0.89280   0.50000   0.01267  Uiso   1.00
C7     C     0.98780   0.17070   0.24630   0.01267  Uiso   1.00
C8     C     0.71820   0.58620   0.77560   0.01267  Uiso   1.00
C9     C     0.62320   0.60680   0.70450   0.01267  Uiso   1.00
C10    C     0.48970   0.59740   0.76890   0.01267  Uiso   1.00
C11    C     0.41170   0.61330   0.69500   0.01267  Uiso   1.00
C12    C     0.47030   0.64040   0.55930   0.01267  Uiso   1.00
C13    C     0.60480   0.65160   0.50220   0.01267  Uiso   1.00
C14    C     0.26700   0.59780   0.75960   0.01267  Uiso   1.00
C15    C     0.01500   0.27350   0.77340   0.01267  Uiso   1.00
C16    C     0.04500   0.16770   0.70130   0.01267  Uiso   1.00
C17    C     0.01470   0.05020   0.76490   0.01267  Uiso   1.00
C18    C     0.04810   0.95840   0.69000   0.01267  Uiso   1.00
C19    C     0.11450   0.98740   0.55580   0.01267  Uiso   1.00
C20    C     0.14030   0.10720   0.50000   0.01267  Uiso   1.00
C21    C     0.01220   0.82930   0.75370   0.01267  Uiso   1.00
C22    C     0.28180   0.41380   0.22440   0.01267  Uiso   1.00
C23    C     0.37680   0.39320   0.29550   0.01267  Uiso   1.00
C24    C     0.51030   0.40260   0.23110   0.01267  Uiso   1.00
C25    C     0.58830   0.38670   0.30500   0.01267  Uiso   1.00
C26    C     0.52970   0.35960   0.44070   0.01267  Uiso   1.00
C27    C     0.39520   0.34840   0.49780   0.01267  Uiso   1.00
C28    C     0.73300   0.40220   0.24040   0.01267  Uiso   1.00
N1     N     0.89520   0.80330   0.42930   0.01267  Uiso   1.00
N2     N     0.68090   0.63260   0.57280   0.01267  Uiso   1.00
N3     N     0.10480   0.19670   0.57070   0.01267  Uiso   1.00
N4     N     0.31910   0.36740   0.42720   0.01267  Uiso   1.00
O1     O     0.95110   0.62450   0.29970   0.01267  Uiso   1.00
O2     O     0.03530   0.74600   0.10430   0.01267  Uiso   1.00
O3     O     0.96350   0.24400   0.32240   0.01267  Uiso   1.00
O4     O     0.03930   0.19160   0.12360   0.01267  Uiso   1.00
O5     O     0.83840   0.59440   0.69960   0.01267  Uiso   1.00
O6     O     0.67680   0.56480   0.89620   0.01267  Uiso   1.00
O7     O     0.20190   0.64110   0.86250   0.01267  Uiso   1.00
O8     O     0.22520   0.54200   0.70280   0.01267  Uiso   1.00
O9     O     0.05060   0.47110   0.09410   0.01267  Uiso   1.00
O10    O     0.08170   0.57430   0.50970   0.01267  Uiso   1.00
O11    O     0.04890   0.37550   0.70030   0.01267  Uiso   1.00
O12    O     0.96470   0.25400   0.89570   0.01267  Uiso   1.00
O13    O     0.03650   0.75600   0.67760   0.01267  Uiso   1.00
O14    O     0.96070   0.80840   0.87640   0.01267  Uiso   1.00
O15    O     0.16160   0.40560   0.30040   0.01267  Uiso   1.00
O16    O     0.32320   0.43520   0.10380   0.01267  Uiso   1.00
O17    O     0.79810   0.35890   0.13750   0.01267  Uiso   1.00
O18    O     0.77480   0.45800   0.29720   0.01267  Uiso   1.00
O19    O     0.94940   0.52890   0.90590   0.01267  Uiso   1.00
O20    O     0.91830   0.42570   0.49030   0.01267  Uiso   1.00
