data_QISKIN_clean
_audit_creation_date              2014-07-02
_audit_creation_method            'Materials Studio'
_symmetry_space_group_name_H-M    'P1'
_symmetry_Int_Tables_number       1
_symmetry_cell_setting            triclinic
loop_
_symmetry_equiv_pos_as_xyz
  x,y,z
_cell_length_a                    8.7578
_cell_length_b                    11.1430
_cell_length_c                    12.5290
_cell_angle_alpha                 84.4790
_cell_angle_beta                  81.5010
_cell_angle_gamma                 71.6480
loop_
_atom_site_label
_atom_site_type_symbol
_atom_site_fract_x
_atom_site_fract_y
_atom_site_fract_z
_atom_site_U_iso_or_equiv
_atom_site_adp_type
_atom_site_occupancy
K1     K     0.31930   0.64005   0.95310   0.01267  Uiso   1.00
K2     K     0.94435   0.58540   0.15032   0.01267  Uiso   1.00
K3     K     0.68070   0.35995   0.04690   0.01267  Uiso   1.00
K4     K     0.05565   0.41460   0.84968   0.01267  Uiso   1.00
Cu1    Cu    0.67967   0.97719   0.96804   0.01267  Uiso   1.00
Cu2    Cu    0.32033   0.02281   0.03196   0.01267  Uiso   1.00
H1     H     0.20780   0.12410   0.82820   0.01267  Uiso   1.00
H2     H     0.17790   0.21890   0.65990   0.01267  Uiso   1.00
H3     H     0.29860   0.27600   0.47880   0.01267  Uiso   1.00
H4     H     0.77040   0.11710   0.38480   0.01267  Uiso   1.00
H5     H     0.80050   0.99940   0.54420   0.01267  Uiso   1.00
H6     H     0.81080   0.89010   0.68040   0.01267  Uiso   1.00
H7     H     0.71340   0.83240   0.77540   0.01267  Uiso   1.00
H8     H     0.02470   0.80930   0.78500   0.01267  Uiso   1.00
H9     H     0.03520   0.88030   0.88470   0.01267  Uiso   1.00
H10    H     0.97020   0.04680   0.75220   0.01267  Uiso   1.00
H11    H     0.78710   0.11770   0.74030   0.01267  Uiso   1.00
H12    H     0.34000   0.40500   0.13500   0.01267  Uiso   1.00
H13    H     0.31900   0.36700   0.04900   0.01267  Uiso   1.00
H14    H     0.65320   0.48930   0.24280   0.01267  Uiso   1.00
H15    H     0.48380   0.66820   0.29010   0.01267  Uiso   1.00
H16    H     0.41360   0.60790   0.20850   0.01267  Uiso   1.00
H17    H     0.49530   0.71320   0.16760   0.01267  Uiso   1.00
H18    H     0.79220   0.87590   0.17180   0.01267  Uiso   1.00
H19    H     0.82210   0.78110   0.34010   0.01267  Uiso   1.00
H20    H     0.70140   0.72400   0.52120   0.01267  Uiso   1.00
H21    H     0.22960   0.88290   0.61520   0.01267  Uiso   1.00
H22    H     0.19950   0.00060   0.45580   0.01267  Uiso   1.00
H23    H     0.18920   0.10990   0.31960   0.01267  Uiso   1.00
H24    H     0.28660   0.16760   0.22460   0.01267  Uiso   1.00
H25    H     0.97530   0.19070   0.21500   0.01267  Uiso   1.00
H26    H     0.96480   0.11970   0.11530   0.01267  Uiso   1.00
H27    H     0.02980   0.95320   0.24780   0.01267  Uiso   1.00
H28    H     0.21290   0.88230   0.25970   0.01267  Uiso   1.00
H29    H     0.66000   0.59500   0.86500   0.01267  Uiso   1.00
H30    H     0.68100   0.63300   0.95100   0.01267  Uiso   1.00
H31    H     0.34680   0.51070   0.75720   0.01267  Uiso   1.00
H32    H     0.51620   0.33180   0.70990   0.01267  Uiso   1.00
H33    H     0.58640   0.39210   0.79150   0.01267  Uiso   1.00
H34    H     0.50470   0.28680   0.83240   0.01267  Uiso   1.00
C1     C     0.45140   0.03430   0.80121   0.01267  Uiso   1.00
C2     C     0.29760   0.11200   0.77589   0.01267  Uiso   1.00
C3     C     0.28010   0.16920   0.67554   0.01267  Uiso   1.00
C4     C     0.41410   0.15450   0.59492   0.01267  Uiso   1.00
C5     C     0.39960   0.22270   0.49352   0.01267  Uiso   1.00
C6     C     0.53130   0.21180   0.41676   0.01267  Uiso   1.00
C7     C     0.68130   0.12640   0.43751   0.01267  Uiso   1.00
C8     C     0.70000   0.05660   0.53341   0.01267  Uiso   1.00
C9     C     0.56730   0.07040   0.61672   0.01267  Uiso   1.00
C10    C     0.58320   0.00700   0.72130   0.01267  Uiso   1.00
C11    C     0.73730   0.90940   0.74676   0.01267  Uiso   1.00
C12    C     0.96510   0.84680   0.85146   0.01267  Uiso   1.00
C13    C     0.91850   0.74570   0.92736   0.01267  Uiso   1.00
C14    C     0.86100   0.06800   0.79010   0.01267  Uiso   1.00
C15    C     0.84940   0.14550   0.88619   0.01267  Uiso   1.00
C16    C     0.52050   0.29290   0.31370   0.01267  Uiso   1.00
C17    C     0.49860   0.64180   0.21760   0.01267  Uiso   1.00
C18    C     0.54860   0.96570   0.19879   0.01267  Uiso   1.00
C19    C     0.70240   0.88800   0.22411   0.01267  Uiso   1.00
C20    C     0.71990   0.83080   0.32446   0.01267  Uiso   1.00
C21    C     0.58590   0.84550   0.40508   0.01267  Uiso   1.00
C22    C     0.60040   0.77730   0.50648   0.01267  Uiso   1.00
C23    C     0.46870   0.78820   0.58324   0.01267  Uiso   1.00
C24    C     0.31870   0.87360   0.56249   0.01267  Uiso   1.00
C25    C     0.30000   0.94340   0.46659   0.01267  Uiso   1.00
C26    C     0.43270   0.92960   0.38328   0.01267  Uiso   1.00
C27    C     0.41680   0.99300   0.27870   0.01267  Uiso   1.00
C28    C     0.26270   0.09060   0.25324   0.01267  Uiso   1.00
C29    C     0.03490   0.15320   0.14854   0.01267  Uiso   1.00
C30    C     0.08150   0.25430   0.07264   0.01267  Uiso   1.00
C31    C     0.13900   0.93200   0.20990   0.01267  Uiso   1.00
C32    C     0.15060   0.85450   0.11381   0.01267  Uiso   1.00
C33    C     0.47950   0.70710   0.68630   0.01267  Uiso   1.00
C34    C     0.50140   0.35820   0.78240   0.01267  Uiso   1.00
N1     N     0.81980   0.95062   0.82644   0.01267  Uiso   1.00
N2     N     0.18020   0.04938   0.17356   0.01267  Uiso   1.00
O1     O     0.47045   0.98562   0.90240   0.01267  Uiso   1.00
O2     O     0.78233   0.78111   0.98678   0.01267  Uiso   1.00
O3     O     0.01480   0.63776   0.92953   0.01267  Uiso   1.00
O4     O     0.77500   0.11469   0.97541   0.01267  Uiso   1.00
O5     O     0.90560   0.23467   0.87371   0.01267  Uiso   1.00
O6     O     0.38490   0.34260   0.28195   0.01267  Uiso   1.00
O7     O     0.64980   0.30790   0.26608   0.01267  Uiso   1.00
O8     O     0.34350   0.42090   0.07391   0.01267  Uiso   1.00
O9     O     0.64880   0.54880   0.19820   0.01267  Uiso   1.00
O10    O     0.52955   0.01438   0.09760   0.01267  Uiso   1.00
O11    O     0.21767   0.21889   0.01322   0.01267  Uiso   1.00
O12    O     0.98520   0.36224   0.07047   0.01267  Uiso   1.00
O13    O     0.22500   0.88531   0.02459   0.01267  Uiso   1.00
O14    O     0.09440   0.76533   0.12629   0.01267  Uiso   1.00
O15    O     0.61510   0.65740   0.71805   0.01267  Uiso   1.00
O16    O     0.35020   0.69210   0.73392   0.01267  Uiso   1.00
O17    O     0.65650   0.57910   0.92609   0.01267  Uiso   1.00
O18    O     0.35120   0.45120   0.80180   0.01267  Uiso   1.00
