data_image0
_cell_length_a       12.8174
_cell_length_b       15.0318
_cell_length_c       15.4448
_cell_angle_alpha    90
_cell_angle_beta     90
_cell_angle_gamma    90

_symmetry_space_group_name_H-M    "P 1"
_symmetry_int_tables_number       1

loop_
  _symmetry_equiv_pos_as_xyz
  'x, y, z'

loop_
  _atom_site_label
  _atom_site_occupancy
  _atom_site_fract_x
  _atom_site_fract_y
  _atom_site_fract_z
  _atom_site_thermal_displace_type
  _atom_site_B_iso_or_equiv
  _atom_site_type_symbol
  Cd1      1.0000 0.23775  0.21634  0.22631  Biso   1.000  Cd
  Br1      1.0000 0.09443  0.29451  0.31183  Biso   1.000  Br
  C1       1.0000 0.18410  0.11090  0.06660  Biso   1.000  C
  C2       1.0000 0.12690  0.09570  0.98250  Biso   1.000  C
  C3       1.0000 0.15610  0.02490  0.92850  Biso   1.000  C
  H1       1.0000 0.21130  0.98820  0.94450  Biso   1.000  H
  C4       1.0000 0.10420  0.00910  0.85270  Biso   1.000  C
  C5       1.0000 0.02520  0.06620  0.82520  Biso   1.000  C
  H2       1.0000 0.99140  0.05690  0.77270  Biso   1.000  H
  C6       1.0000 0.99770  0.13860  0.87900  Biso   1.000  C
  C7       1.0000 0.04820  0.15300  0.95540  Biso   1.000  C
  H3       1.0000 0.03000  0.20150  0.98960  Biso   1.000  H
  C8       1.0000 0.91050  0.20000  0.84910  Biso   1.000  C
  C9       1.0000 0.13300  0.93210  0.79390  Biso   1.000  C
  O1       1.0000 0.14860  0.17010  0.11430  Biso   1.000  O
  O2       1.0000 0.26180  0.06300  0.08120  Biso   1.000  O
  O3       1.0000 0.88430  0.26190  0.89820  Biso   1.000  O
  O4       1.0000 0.86510  0.18260  0.77840  Biso   1.000  O
  O5       1.0000 0.07390  0.91400  0.73290  Biso   1.000  O
  O6       1.0000 0.21440  0.89060  0.81400  Biso   1.000  O
  Cd2      1.0000 0.43557  0.09303  0.08785  Biso   1.000  Cd
  Cd3      1.0000 0.26225  0.78366  0.72631  Biso   1.000  Cd
  Br2      1.0000 0.40557  0.70549  0.81183  Biso   1.000  Br
  C10      1.0000 0.31590  0.88910  0.56660  Biso   1.000  C
  C11      1.0000 0.37310  0.90430  0.48250  Biso   1.000  C
  C12      1.0000 0.34390  0.97510  0.42850  Biso   1.000  C
  H4       1.0000 0.28870  0.01180  0.44450  Biso   1.000  H
  C13      1.0000 0.39580  0.99090  0.35270  Biso   1.000  C
  C14      1.0000 0.47480  0.93380  0.32520  Biso   1.000  C
  H5       1.0000 0.50860  0.94310  0.27270  Biso   1.000  H
  C15      1.0000 0.50230  0.86140  0.37900  Biso   1.000  C
  C16      1.0000 0.45180  0.84700  0.45540  Biso   1.000  C
  H6       1.0000 0.47000  0.79850  0.48960  Biso   1.000  H
  C17      1.0000 0.58950  0.80000  0.34910  Biso   1.000  C
  C18      1.0000 0.36700  0.06790  0.29390  Biso   1.000  C
  O7       1.0000 0.35140  0.82990  0.61430  Biso   1.000  O
  O8       1.0000 0.23820  0.93700  0.58120  Biso   1.000  O
  O9       1.0000 0.61570  0.73810  0.39820  Biso   1.000  O
  O10      1.0000 0.63490  0.81740  0.27840  Biso   1.000  O
  O11      1.0000 0.42610  0.08600  0.23290  Biso   1.000  O
  O12      1.0000 0.28560  0.10940  0.31400  Biso   1.000  O
  Cd4      1.0000 0.06443  0.90697  0.58785  Biso   1.000  Cd
  Cd5      1.0000 0.76225  0.71634  0.27369  Biso   1.000  Cd
  Br3      1.0000 0.90557  0.79451  0.18817  Biso   1.000  Br
  C19      1.0000 0.81590  0.61090  0.43340  Biso   1.000  C
  C20      1.0000 0.87310  0.59570  0.51750  Biso   1.000  C
  C21      1.0000 0.84390  0.52490  0.57150  Biso   1.000  C
  H7       1.0000 0.78870  0.48820  0.55550  Biso   1.000  H
  C22      1.0000 0.89580  0.50910  0.64730  Biso   1.000  C
  C23      1.0000 0.97480  0.56620  0.67480  Biso   1.000  C
  H8       1.0000 0.00860  0.55690  0.72730  Biso   1.000  H
  C24      1.0000 0.00230  0.63860  0.62100  Biso   1.000  C
  C25      1.0000 0.95180  0.65300  0.54460  Biso   1.000  C
  H9       1.0000 0.97000  0.70150  0.51040  Biso   1.000  H
  C26      1.0000 0.08950  0.70000  0.65090  Biso   1.000  C
  C27      1.0000 0.86700  0.43210  0.70610  Biso   1.000  C
  O13      1.0000 0.85140  0.67010  0.38570  Biso   1.000  O
  O14      1.0000 0.73820  0.56300  0.41880  Biso   1.000  O
  O15      1.0000 0.11570  0.76190  0.60180  Biso   1.000  O
  O16      1.0000 0.13490  0.68260  0.72160  Biso   1.000  O
  O17      1.0000 0.92610  0.41400  0.76710  Biso   1.000  O
  O18      1.0000 0.78560  0.39060  0.68600  Biso   1.000  O
  Cd6      1.0000 0.56443  0.59303  0.41215  Biso   1.000  Cd
  Cd7      1.0000 0.73775  0.28366  0.77369  Biso   1.000  Cd
  Br4      1.0000 0.59443  0.20549  0.68817  Biso   1.000  Br
  C28      1.0000 0.68410  0.38910  0.93340  Biso   1.000  C
  C29      1.0000 0.62690  0.40430  0.01750  Biso   1.000  C
  C30      1.0000 0.65610  0.47510  0.07150  Biso   1.000  C
  H10      1.0000 0.71130  0.51180  0.05550  Biso   1.000  H
  C31      1.0000 0.60420  0.49090  0.14730  Biso   1.000  C
  C32      1.0000 0.52520  0.43380  0.17480  Biso   1.000  C
  H11      1.0000 0.49140  0.44310  0.22730  Biso   1.000  H
  C33      1.0000 0.49770  0.36140  0.12100  Biso   1.000  C
  C34      1.0000 0.54820  0.34700  0.04460  Biso   1.000  C
  H12      1.0000 0.53000  0.29850  0.01040  Biso   1.000  H
  C35      1.0000 0.41050  0.30000  0.15090  Biso   1.000  C
  C36      1.0000 0.63300  0.56790  0.20610  Biso   1.000  C
  O19      1.0000 0.64860  0.32990  0.88570  Biso   1.000  O
  O20      1.0000 0.76180  0.43700  0.91880  Biso   1.000  O
  O21      1.0000 0.38430  0.23810  0.10180  Biso   1.000  O
  O22      1.0000 0.36510  0.31740  0.22160  Biso   1.000  O
  O23      1.0000 0.57390  0.58600  0.26710  Biso   1.000  O
  O24      1.0000 0.71440  0.60940  0.18600  Biso   1.000  O
  Cd8      1.0000 0.93557  0.40697  0.91215  Biso   1.000  Cd
