data_image0
_cell_length_a       12.7792
_cell_length_b       14.8175
_cell_length_c       15.4737
_cell_angle_alpha    90
_cell_angle_beta     90
_cell_angle_gamma    90

_symmetry_space_group_name_H-M    "P 1"
_symmetry_int_tables_number       1

loop_
  _symmetry_equiv_pos_as_xyz
  'x, y, z'

loop_
  _atom_site_label
  _atom_site_occupancy
  _atom_site_fract_x
  _atom_site_fract_y
  _atom_site_fract_z
  _atom_site_thermal_displace_type
  _atom_site_B_iso_or_equiv
  _atom_site_type_symbol
  Cd1      1.0000 0.23507  0.71983  0.27248  Biso   1.000  Cd
  Cd2      1.0000 0.43340  0.59261  0.40875  Biso   1.000  Cd
  Cl1      1.0000 0.10030  0.79920  0.19324  Biso   1.000  Cl
  O1       1.0000 0.25990  0.56250  0.41430  Biso   1.000  O
  O2       1.0000 0.14550  0.67080  0.38230  Biso   1.000  O
  O3       1.0000 0.88130  0.76010  0.60180  Biso   1.000  O
  O4       1.0000 0.86410  0.67860  0.71890  Biso   1.000  O
  O5       1.0000 0.07890  0.40890  0.76430  Biso   1.000  O
  O6       1.0000 0.21860  0.38700  0.68270  Biso   1.000  O
  C1       1.0000 0.18220  0.61060  0.43160  Biso   1.000  C
  C2       1.0000 0.90890  0.69720  0.65050  Biso   1.000  C
  C3       1.0000 0.13790  0.42840  0.70230  Biso   1.000  C
  C4       1.0000 0.12670  0.59440  0.51450  Biso   1.000  C
  C5       1.0000 0.04710  0.65230  0.54320  Biso   1.000  C
  H1       1.0000 0.02820  0.70170  0.50950  Biso   1.000  H
  C6       1.0000 0.99610  0.63690  0.62090  Biso   1.000  C
  C7       1.0000 0.02610  0.56360  0.67220  Biso   1.000  C
  H2       1.0000 0.99200  0.55260  0.72420  Biso   1.000  H
  C8       1.0000 0.10630  0.50760  0.64560  Biso   1.000  C
  C9       1.0000 0.15540  0.52360  0.56880  Biso   1.000  C
  H3       1.0000 0.20990  0.48590  0.55200  Biso   1.000  H
  Cd3      1.0000 0.26493  0.28017  0.77248  Biso   1.000  Cd
  Cd4      1.0000 0.06660  0.40739  0.90875  Biso   1.000  Cd
  Cl2      1.0000 0.39970  0.20080  0.69324  Biso   1.000  Cl
  O7       1.0000 0.24010  0.43750  0.91430  Biso   1.000  O
  O8       1.0000 0.35450  0.32920  0.88230  Biso   1.000  O
  O9       1.0000 0.61870  0.23990  0.10180  Biso   1.000  O
  O10      1.0000 0.63590  0.32140  0.21890  Biso   1.000  O
  O11      1.0000 0.42110  0.59110  0.26430  Biso   1.000  O
  O12      1.0000 0.28140  0.61300  0.18270  Biso   1.000  O
  C10      1.0000 0.31780  0.38940  0.93160  Biso   1.000  C
  C11      1.0000 0.59110  0.30280  0.15050  Biso   1.000  C
  C12      1.0000 0.36210  0.57160  0.20230  Biso   1.000  C
  C13      1.0000 0.37330  0.40560  0.01450  Biso   1.000  C
  C14      1.0000 0.45290  0.34770  0.04320  Biso   1.000  C
  H4       1.0000 0.47180  0.29830  0.00950  Biso   1.000  H
  C15      1.0000 0.50390  0.36310  0.12090  Biso   1.000  C
  C16      1.0000 0.47390  0.43640  0.17220  Biso   1.000  C
  H5       1.0000 0.50800  0.44740  0.22420  Biso   1.000  H
  C17      1.0000 0.39370  0.49240  0.14560  Biso   1.000  C
  C18      1.0000 0.34460  0.47640  0.06880  Biso   1.000  C
  H6       1.0000 0.29010  0.51410  0.05200  Biso   1.000  H
  Cd5      1.0000 0.76493  0.21983  0.22752  Biso   1.000  Cd
  Cd6      1.0000 0.56660  0.09261  0.09125  Biso   1.000  Cd
  Cl3      1.0000 0.89970  0.29920  0.30676  Biso   1.000  Cl
  O13      1.0000 0.74010  0.06250  0.08570  Biso   1.000  O
  O14      1.0000 0.85450  0.17080  0.11770  Biso   1.000  O
  O15      1.0000 0.11870  0.26010  0.89820  Biso   1.000  O
  O16      1.0000 0.13590  0.17860  0.78110  Biso   1.000  O
  O17      1.0000 0.92110  0.90890  0.73570  Biso   1.000  O
  O18      1.0000 0.78140  0.88700  0.81730  Biso   1.000  O
  C19      1.0000 0.81780  0.11060  0.06840  Biso   1.000  C
  C20      1.0000 0.09110  0.19720  0.84950  Biso   1.000  C
  C21      1.0000 0.86210  0.92840  0.79770  Biso   1.000  C
  C22      1.0000 0.87330  0.09440  0.98550  Biso   1.000  C
  C23      1.0000 0.95290  0.15230  0.95680  Biso   1.000  C
  H7       1.0000 0.97180  0.20170  0.99050  Biso   1.000  H
  C24      1.0000 0.00390  0.13690  0.87910  Biso   1.000  C
  C25      1.0000 0.97390  0.06360  0.82780  Biso   1.000  C
  H8       1.0000 0.00800  0.05260  0.77580  Biso   1.000  H
  C26      1.0000 0.89370  0.00760  0.85440  Biso   1.000  C
  C27      1.0000 0.84460  0.02360  0.93120  Biso   1.000  C
  H9       1.0000 0.79010  0.98590  0.94800  Biso   1.000  H
  Cd7      1.0000 0.73507  0.78017  0.72752  Biso   1.000  Cd
  Cd8      1.0000 0.93340  0.90739  0.59125  Biso   1.000  Cd
  Cl4      1.0000 0.60030  0.70080  0.80676  Biso   1.000  Cl
  O19      1.0000 0.75990  0.93750  0.58570  Biso   1.000  O
  O20      1.0000 0.64550  0.82920  0.61770  Biso   1.000  O
  O21      1.0000 0.38130  0.73990  0.39820  Biso   1.000  O
  O22      1.0000 0.36410  0.82140  0.28110  Biso   1.000  O
  O23      1.0000 0.57890  0.09110  0.23570  Biso   1.000  O
  O24      1.0000 0.71860  0.11300  0.31730  Biso   1.000  O
  C28      1.0000 0.68220  0.88940  0.56840  Biso   1.000  C
  C29      1.0000 0.40890  0.80280  0.34950  Biso   1.000  C
  C30      1.0000 0.63790  0.07160  0.29770  Biso   1.000  C
  C31      1.0000 0.62670  0.90560  0.48550  Biso   1.000  C
  C32      1.0000 0.54710  0.84770  0.45680  Biso   1.000  C
  H10      1.0000 0.52820  0.79830  0.49050  Biso   1.000  H
  C33      1.0000 0.49610  0.86310  0.37910  Biso   1.000  C
  C34      1.0000 0.52610  0.93640  0.32780  Biso   1.000  C
  H11      1.0000 0.49200  0.94740  0.27580  Biso   1.000  H
  C35      1.0000 0.60630  0.99240  0.35440  Biso   1.000  C
  C36      1.0000 0.65540  0.97640  0.43120  Biso   1.000  C
  H12      1.0000 0.70990  0.01410  0.44800  Biso   1.000  H
