data_image0
_cell_length_a       12.9179
_cell_length_b       15.2839
_cell_length_c       15.4266
_cell_angle_alpha    90
_cell_angle_beta     90
_cell_angle_gamma    90

_symmetry_space_group_name_H-M    "P 1"
_symmetry_int_tables_number       1

loop_
  _symmetry_equiv_pos_as_xyz
  'x, y, z'

loop_
  _atom_site_label
  _atom_site_occupancy
  _atom_site_fract_x
  _atom_site_fract_y
  _atom_site_fract_z
  _atom_site_thermal_displace_type
  _atom_site_B_iso_or_equiv
  _atom_site_type_symbol
  Cd1      1.0000 0.25899  0.71115  0.72476  Biso   1.000  Cd
  I1       1.0000 0.41148  0.78646  0.82248  Biso   1.000  I
  O1       1.0000 0.34720  0.66920  0.61100  Biso   1.000  O
  O2       1.0000 0.23530  0.56500  0.57590  Biso   1.000  O
  O3       1.0000 0.29300  0.39540  0.30750  Biso   1.000  O
  O4       1.0000 0.43130  0.42350  0.22730  Biso   1.000  O
  O5       1.0000 0.63170  0.68880  0.27700  Biso   1.000  O
  O6       1.0000 0.61340  0.76530  0.39870  Biso   1.000  O
  C1       1.0000 0.31330  0.61220  0.56110  Biso   1.000  C
  C2       1.0000 0.37330  0.43880  0.28820  Biso   1.000  C
  C3       1.0000 0.58580  0.70410  0.34860  Biso   1.000  C
  C4       1.0000 0.37160  0.59740  0.47710  Biso   1.000  C
  C5       1.0000 0.34740  0.52660  0.42410  Biso   1.000  C
  H1       1.0000 0.29590  0.48760  0.44080  Biso   1.000  H
  C6       1.0000 0.39770  0.51420  0.34880  Biso   1.000  C
  C7       1.0000 0.47730  0.57090  0.32170  Biso   1.000  C
  H2       1.0000 0.51280  0.56110  0.27020  Biso   1.000  H
  C8       1.0000 0.50200  0.64410  0.37580  Biso   1.000  C
  C9       1.0000 0.44990  0.65480  0.45320  Biso   1.000  C
  H3       1.0000 0.46750  0.70100  0.48960  Biso   1.000  H
  Cd2      1.0000 0.06313  0.59298  0.58238  Biso   1.000  Cd
  Cd3      1.0000 0.24101  0.28885  0.22476  Biso   1.000  Cd
  I2       1.0000 0.08852  0.21354  0.32248  Biso   1.000  I
  O7       1.0000 0.15280  0.33080  0.11100  Biso   1.000  O
  O8       1.0000 0.26470  0.43500  0.07590  Biso   1.000  O
  O9       1.0000 0.20700  0.60460  0.80750  Biso   1.000  O
  O10      1.0000 0.06870  0.57650  0.72730  Biso   1.000  O
  O11      1.0000 0.86830  0.31120  0.77700  Biso   1.000  O
  O12      1.0000 0.88660  0.23470  0.89870  Biso   1.000  O
  C10      1.0000 0.18670  0.38780  0.06110  Biso   1.000  C
  C11      1.0000 0.12670  0.56120  0.78820  Biso   1.000  C
  C12      1.0000 0.91420  0.29590  0.84860  Biso   1.000  C
  C13      1.0000 0.12840  0.40260  0.97710  Biso   1.000  C
  C14      1.0000 0.15260  0.47340  0.92410  Biso   1.000  C
  H4       1.0000 0.20410  0.51240  0.94080  Biso   1.000  H
  C15      1.0000 0.10230  0.48580  0.84880  Biso   1.000  C
  C16      1.0000 0.02270  0.42910  0.82170  Biso   1.000  C
  H5       1.0000 0.98720  0.43890  0.77020  Biso   1.000  H
  C17      1.0000 0.99800  0.35590  0.87580  Biso   1.000  C
  C18      1.0000 0.05010  0.34520  0.95320  Biso   1.000  C
  H6       1.0000 0.03250  0.29900  0.98960  Biso   1.000  H
  Cd4      1.0000 0.43687  0.40702  0.08238  Biso   1.000  Cd
  Cd5      1.0000 0.74101  0.21115  0.77524  Biso   1.000  Cd
  I3       1.0000 0.58852  0.28646  0.67752  Biso   1.000  I
  O13      1.0000 0.65280  0.16920  0.88900  Biso   1.000  O
  O14      1.0000 0.76470  0.06500  0.92410  Biso   1.000  O
  O15      1.0000 0.70700  0.89540  0.19250  Biso   1.000  O
  O16      1.0000 0.56870  0.92350  0.27270  Biso   1.000  O
  O17      1.0000 0.36830  0.18880  0.22300  Biso   1.000  O
  O18      1.0000 0.38660  0.26530  0.10130  Biso   1.000  O
  C19      1.0000 0.68670  0.11220  0.93890  Biso   1.000  C
  C20      1.0000 0.62670  0.93880  0.21180  Biso   1.000  C
  C21      1.0000 0.41420  0.20410  0.15140  Biso   1.000  C
  C22      1.0000 0.62840  0.09740  0.02290  Biso   1.000  C
  C23      1.0000 0.65260  0.02660  0.07590  Biso   1.000  C
  H7       1.0000 0.70410  0.98760  0.05920  Biso   1.000  H
  C24      1.0000 0.60230  0.01420  0.15120  Biso   1.000  C
  C25      1.0000 0.52270  0.07090  0.17830  Biso   1.000  C
  H8       1.0000 0.48720  0.06110  0.22980  Biso   1.000  H
  C26      1.0000 0.49800  0.14410  0.12420  Biso   1.000  C
  C27      1.0000 0.55010  0.15480  0.04680  Biso   1.000  C
  H9       1.0000 0.53250  0.20100  0.01040  Biso   1.000  H
  Cd6      1.0000 0.93687  0.09298  0.91762  Biso   1.000  Cd
  Cd7      1.0000 0.75899  0.78885  0.27524  Biso   1.000  Cd
  I4       1.0000 0.91148  0.71354  0.17752  Biso   1.000  I
  O19      1.0000 0.84720  0.83080  0.38900  Biso   1.000  O
  O20      1.0000 0.73530  0.93500  0.42410  Biso   1.000  O
  O21      1.0000 0.79300  0.10460  0.69250  Biso   1.000  O
  O22      1.0000 0.93130  0.07650  0.77270  Biso   1.000  O
  O23      1.0000 0.13170  0.81120  0.72300  Biso   1.000  O
  O24      1.0000 0.11340  0.73470  0.60130  Biso   1.000  O
  C28      1.0000 0.81330  0.88780  0.43890  Biso   1.000  C
  C29      1.0000 0.87330  0.06120  0.71180  Biso   1.000  C
  C30      1.0000 0.08580  0.79590  0.65140  Biso   1.000  C
  C31      1.0000 0.87160  0.90260  0.52290  Biso   1.000  C
  C32      1.0000 0.84740  0.97340  0.57590  Biso   1.000  C
  H10      1.0000 0.79590  0.01240  0.55920  Biso   1.000  H
  C33      1.0000 0.89770  0.98580  0.65120  Biso   1.000  C
  C34      1.0000 0.97730  0.92910  0.67830  Biso   1.000  C
  H11      1.0000 0.01280  0.93890  0.72980  Biso   1.000  H
  C35      1.0000 0.00200  0.85590  0.62420  Biso   1.000  C
  C36      1.0000 0.94990  0.84520  0.54680  Biso   1.000  C
  H12      1.0000 0.96750  0.79900  0.51040  Biso   1.000  H
  Cd8      1.0000 0.56313  0.90702  0.41762  Biso   1.000  Cd
