data_QISVAQ_clean
_audit_creation_date              2014-07-02
_audit_creation_method            'Materials Studio'
_symmetry_space_group_name_H-M    'P1'
_symmetry_Int_Tables_number       1
_symmetry_cell_setting            triclinic
loop_
_symmetry_equiv_pos_as_xyz
  x,y,z
_cell_length_a                    18.8327
_cell_length_b                    18.8327
_cell_length_c                    18.8327
_cell_angle_alpha                 72.8077
_cell_angle_beta                  72.8077
_cell_angle_gamma                 72.8077
loop_
_atom_site_label
_atom_site_type_symbol
_atom_site_fract_x
_atom_site_fract_y
_atom_site_fract_z
_atom_site_U_iso_or_equiv
_atom_site_adp_type
_atom_site_occupancy
Cu1    Cu    0.41282   0.26827   0.85036   0.01267  Uiso   1.00
Cu2    Cu    0.85036   0.41282   0.26827   0.01267  Uiso   1.00
Cu3    Cu    0.26827   0.85036   0.41282   0.01267  Uiso   1.00
Cu4    Cu    0.23173   0.08719   0.64964   0.01267  Uiso   1.00
Cu5    Cu    0.08718   0.64964   0.23173   0.01267  Uiso   1.00
Cu6    Cu    0.64964   0.23173   0.08718   0.01267  Uiso   1.00
Cu7    Cu    0.58718   0.73173   0.14964   0.01267  Uiso   1.00
Cu8    Cu    0.14964   0.58718   0.73173   0.01267  Uiso   1.00
Cu9    Cu    0.73173   0.14964   0.58718   0.01267  Uiso   1.00
Cu10   Cu    0.76827   0.91282   0.35036   0.01267  Uiso   1.00
Cu11   Cu    0.91282   0.35036   0.76827   0.01267  Uiso   1.00
Cu12   Cu    0.35036   0.76827   0.91282   0.01267  Uiso   1.00
H1     H     0.43960   0.30500   0.98180   0.01267  Uiso   1.00
H2     H     0.37320   0.37510   0.07410   0.01267  Uiso   1.00
H3     H     0.18460   0.41390   0.99590   0.01267  Uiso   1.00
H4     H     0.25590   0.34200   0.90800   0.01267  Uiso   1.00
H5     H     0.98180   0.43960   0.30500   0.01267  Uiso   1.00
H6     H     0.07410   0.37320   0.37510   0.01267  Uiso   1.00
H7     H     0.99590   0.18460   0.41390   0.01267  Uiso   1.00
H8     H     0.90800   0.25590   0.34200   0.01267  Uiso   1.00
H9     H     0.30500   0.98180   0.43960   0.01267  Uiso   1.00
H10    H     0.37510   0.07410   0.37320   0.01267  Uiso   1.00
H11    H     0.41390   0.99590   0.18460   0.01267  Uiso   1.00
H12    H     0.34200   0.90800   0.25590   0.01267  Uiso   1.00
H13    H     0.19500   0.06040   0.51820   0.01267  Uiso   1.00
H14    H     0.12490   0.12680   0.42590   0.01267  Uiso   1.00
H15    H     0.08610   0.31540   0.50410   0.01267  Uiso   1.00
H16    H     0.15800   0.24410   0.59200   0.01267  Uiso   1.00
H17    H     0.06040   0.51820   0.19500   0.01267  Uiso   1.00
H18    H     0.12680   0.42590   0.12490   0.01267  Uiso   1.00
H19    H     0.31540   0.50410   0.08610   0.01267  Uiso   1.00
H20    H     0.24410   0.59200   0.15800   0.01267  Uiso   1.00
H21    H     0.51820   0.19500   0.06040   0.01267  Uiso   1.00
H22    H     0.42590   0.12490   0.12680   0.01267  Uiso   1.00
H23    H     0.50410   0.08610   0.31540   0.01267  Uiso   1.00
H24    H     0.59200   0.15800   0.24410   0.01267  Uiso   1.00
H25    H     0.56040   0.69500   0.01820   0.01267  Uiso   1.00
H26    H     0.62680   0.62490   0.92590   0.01267  Uiso   1.00
H27    H     0.81540   0.58610   0.00410   0.01267  Uiso   1.00
H28    H     0.74410   0.65800   0.09200   0.01267  Uiso   1.00
H29    H     0.01820   0.56040   0.69500   0.01267  Uiso   1.00
H30    H     0.92590   0.62680   0.62490   0.01267  Uiso   1.00
H31    H     0.00410   0.81540   0.58610   0.01267  Uiso   1.00
H32    H     0.09200   0.74410   0.65800   0.01267  Uiso   1.00
H33    H     0.69500   0.01820   0.56040   0.01267  Uiso   1.00
H34    H     0.62490   0.92590   0.62680   0.01267  Uiso   1.00
H35    H     0.58610   0.00410   0.81540   0.01267  Uiso   1.00
H36    H     0.65800   0.09200   0.74410   0.01267  Uiso   1.00
H37    H     0.80500   0.93960   0.48180   0.01267  Uiso   1.00
H38    H     0.87510   0.87320   0.57410   0.01267  Uiso   1.00
H39    H     0.91390   0.68460   0.49590   0.01267  Uiso   1.00
H40    H     0.84200   0.75590   0.40800   0.01267  Uiso   1.00
H41    H     0.93960   0.48180   0.80500   0.01267  Uiso   1.00
H42    H     0.87320   0.57410   0.87510   0.01267  Uiso   1.00
H43    H     0.68460   0.49590   0.91390   0.01267  Uiso   1.00
H44    H     0.75590   0.40800   0.84200   0.01267  Uiso   1.00
H45    H     0.48180   0.80500   0.93960   0.01267  Uiso   1.00
H46    H     0.57410   0.87510   0.87320   0.01267  Uiso   1.00
H47    H     0.49590   0.91390   0.68460   0.01267  Uiso   1.00
H48    H     0.40800   0.84200   0.75590   0.01267  Uiso   1.00
C1     C     0.27691   0.91391   0.92211   0.01267  Uiso   1.00
C2     C     0.25420   0.98480   0.95400   0.01267  Uiso   1.00
C3     C     0.18586   0.00146   0.00706   0.01267  Uiso   1.00
C4     C     0.16130   0.06900   0.03320   0.01267  Uiso   1.00
C5     C     0.38739   0.32749   0.98509   0.01267  Uiso   1.00
C6     C     0.34804   0.36994   0.04034   0.01267  Uiso   1.00
C7     C     0.27151   0.40431   0.04431   0.01267  Uiso   1.00
C8     C     0.23678   0.39258   0.99408   0.01267  Uiso   1.00
C9     C     0.27964   0.34944   0.94174   0.01267  Uiso   1.00
C10    C     0.34368   0.14708   0.94158   0.01267  Uiso   1.00
C11    C     0.28493   0.10043   0.95923   0.01267  Uiso   1.00
C12    C     0.30360   0.03450   0.93200   0.01267  Uiso   1.00
C13    C     0.21417   0.11637   0.00937   0.01267  Uiso   1.00
C14    C     0.92211   0.27691   0.91391   0.01267  Uiso   1.00
C15    C     0.95400   0.25420   0.98480   0.01267  Uiso   1.00
C16    C     0.00706   0.18586   0.00146   0.01267  Uiso   1.00
C17    C     0.03320   0.16130   0.06900   0.01267  Uiso   1.00
C18    C     0.98509   0.38739   0.32749   0.01267  Uiso   1.00
C19    C     0.04034   0.34804   0.36994   0.01267  Uiso   1.00
C20    C     0.04431   0.27151   0.40431   0.01267  Uiso   1.00
C21    C     0.99408   0.23678   0.39258   0.01267  Uiso   1.00
C22    C     0.94174   0.27964   0.34944   0.01267  Uiso   1.00
C23    C     0.94158   0.34368   0.14708   0.01267  Uiso   1.00
C24    C     0.95923   0.28493   0.10043   0.01267  Uiso   1.00
C25    C     0.93200   0.30360   0.03450   0.01267  Uiso   1.00
C26    C     0.00937   0.21417   0.11637   0.01267  Uiso   1.00
C27    C     0.91391   0.92211   0.27691   0.01267  Uiso   1.00
C28    C     0.98480   0.95400   0.25420   0.01267  Uiso   1.00
C29    C     0.00146   0.00706   0.18586   0.01267  Uiso   1.00
C30    C     0.06900   0.03320   0.16130   0.01267  Uiso   1.00
C31    C     0.32749   0.98509   0.38739   0.01267  Uiso   1.00
C32    C     0.36994   0.04034   0.34804   0.01267  Uiso   1.00
C33    C     0.40431   0.04431   0.27151   0.01267  Uiso   1.00
C34    C     0.39258   0.99408   0.23678   0.01267  Uiso   1.00
C35    C     0.34944   0.94174   0.27964   0.01267  Uiso   1.00
C36    C     0.14708   0.94158   0.34368   0.01267  Uiso   1.00
C37    C     0.10043   0.95923   0.28493   0.01267  Uiso   1.00
C38    C     0.03450   0.93200   0.30360   0.01267  Uiso   1.00
C39    C     0.11637   0.00937   0.21417   0.01267  Uiso   1.00
C40    C     0.58609   0.22309   0.57789   0.01267  Uiso   1.00
C41    C     0.51520   0.24580   0.54600   0.01267  Uiso   1.00
C42    C     0.49854   0.31414   0.49294   0.01267  Uiso   1.00
C43    C     0.43100   0.33870   0.46680   0.01267  Uiso   1.00
C44    C     0.17251   0.11261   0.51491   0.01267  Uiso   1.00
C45    C     0.13006   0.15196   0.45966   0.01267  Uiso   1.00
C46    C     0.09569   0.22849   0.45569   0.01267  Uiso   1.00
C47    C     0.10742   0.26322   0.50592   0.01267  Uiso   1.00
C48    C     0.15056   0.22036   0.55826   0.01267  Uiso   1.00
C49    C     0.35292   0.15632   0.55842   0.01267  Uiso   1.00
C50    C     0.39957   0.21507   0.54077   0.01267  Uiso   1.00
C51    C     0.46550   0.19640   0.56800   0.01267  Uiso   1.00
C52    C     0.38363   0.28583   0.49063   0.01267  Uiso   1.00
C53    C     0.22309   0.57789   0.58609   0.01267  Uiso   1.00
C54    C     0.24580   0.54600   0.51520   0.01267  Uiso   1.00
C55    C     0.31414   0.49294   0.49854   0.01267  Uiso   1.00
C56    C     0.33870   0.46680   0.43100   0.01267  Uiso   1.00
C57    C     0.11261   0.51491   0.17251   0.01267  Uiso   1.00
C58    C     0.15196   0.45966   0.13006   0.01267  Uiso   1.00
C59    C     0.22849   0.45569   0.09569   0.01267  Uiso   1.00
C60    C     0.26322   0.50592   0.10742   0.01267  Uiso   1.00
C61    C     0.22036   0.55826   0.15056   0.01267  Uiso   1.00
C62    C     0.15632   0.55842   0.35292   0.01267  Uiso   1.00
C63    C     0.21507   0.54077   0.39957   0.01267  Uiso   1.00
C64    C     0.19640   0.56800   0.46550   0.01267  Uiso   1.00
C65    C     0.28583   0.49063   0.38363   0.01267  Uiso   1.00
C66    C     0.57789   0.58609   0.22309   0.01267  Uiso   1.00
C67    C     0.54600   0.51520   0.24580   0.01267  Uiso   1.00
C68    C     0.49294   0.49854   0.31414   0.01267  Uiso   1.00
C69    C     0.46680   0.43100   0.33870   0.01267  Uiso   1.00
C70    C     0.51491   0.17251   0.11261   0.01267  Uiso   1.00
C71    C     0.45966   0.13006   0.15196   0.01267  Uiso   1.00
C72    C     0.45569   0.09569   0.22849   0.01267  Uiso   1.00
C73    C     0.50592   0.10742   0.26322   0.01267  Uiso   1.00
C74    C     0.55826   0.15056   0.22036   0.01267  Uiso   1.00
C75    C     0.55842   0.35292   0.15632   0.01267  Uiso   1.00
C76    C     0.54077   0.39957   0.21507   0.01267  Uiso   1.00
C77    C     0.56800   0.46550   0.19640   0.01267  Uiso   1.00
C78    C     0.49063   0.38363   0.28583   0.01267  Uiso   1.00
C79    C     0.72309   0.08609   0.07789   0.01267  Uiso   1.00
C80    C     0.74580   0.01520   0.04600   0.01267  Uiso   1.00
C81    C     0.81414   0.99854   0.99294   0.01267  Uiso   1.00
C82    C     0.83870   0.93100   0.96680   0.01267  Uiso   1.00
C83    C     0.61261   0.67251   0.01491   0.01267  Uiso   1.00
C84    C     0.65196   0.63006   0.95966   0.01267  Uiso   1.00
C85    C     0.72849   0.59569   0.95569   0.01267  Uiso   1.00
C86    C     0.76322   0.60742   0.00592   0.01267  Uiso   1.00
C87    C     0.72036   0.65056   0.05826   0.01267  Uiso   1.00
C88    C     0.65632   0.85292   0.05842   0.01267  Uiso   1.00
C89    C     0.71507   0.89957   0.04077   0.01267  Uiso   1.00
C90    C     0.69640   0.96550   0.06800   0.01267  Uiso   1.00
C91    C     0.78583   0.88363   0.99063   0.01267  Uiso   1.00
C92    C     0.07789   0.72309   0.08609   0.01267  Uiso   1.00
C93    C     0.04600   0.74580   0.01520   0.01267  Uiso   1.00
C94    C     0.99294   0.81414   0.99854   0.01267  Uiso   1.00
C95    C     0.96680   0.83870   0.93100   0.01267  Uiso   1.00
C96    C     0.01491   0.61261   0.67251   0.01267  Uiso   1.00
C97    C     0.95966   0.65196   0.63006   0.01267  Uiso   1.00
C98    C     0.95569   0.72849   0.59569   0.01267  Uiso   1.00
C99    C     0.00592   0.76322   0.60742   0.01267  Uiso   1.00
C100   C     0.05826   0.72036   0.65056   0.01267  Uiso   1.00
C101   C     0.05842   0.65632   0.85292   0.01267  Uiso   1.00
C102   C     0.04077   0.71507   0.89957   0.01267  Uiso   1.00
C103   C     0.06800   0.69640   0.96550   0.01267  Uiso   1.00
C104   C     0.99063   0.78583   0.88363   0.01267  Uiso   1.00
C105   C     0.08609   0.07789   0.72309   0.01267  Uiso   1.00
C106   C     0.01520   0.04600   0.74580   0.01267  Uiso   1.00
C107   C     0.99854   0.99294   0.81414   0.01267  Uiso   1.00
C108   C     0.93100   0.96680   0.83870   0.01267  Uiso   1.00
C109   C     0.67251   0.01491   0.61261   0.01267  Uiso   1.00
C110   C     0.63006   0.95966   0.65196   0.01267  Uiso   1.00
C111   C     0.59569   0.95569   0.72849   0.01267  Uiso   1.00
C112   C     0.60742   0.00592   0.76322   0.01267  Uiso   1.00
C113   C     0.65056   0.05826   0.72036   0.01267  Uiso   1.00
C114   C     0.85292   0.05842   0.65632   0.01267  Uiso   1.00
C115   C     0.89957   0.04077   0.71507   0.01267  Uiso   1.00
C116   C     0.96550   0.06800   0.69640   0.01267  Uiso   1.00
C117   C     0.88363   0.99063   0.78583   0.01267  Uiso   1.00
C118   C     0.41391   0.77691   0.42211   0.01267  Uiso   1.00
C119   C     0.48480   0.75420   0.45400   0.01267  Uiso   1.00
C120   C     0.50146   0.68586   0.50706   0.01267  Uiso   1.00
C121   C     0.56900   0.66130   0.53320   0.01267  Uiso   1.00
C122   C     0.82749   0.88739   0.48509   0.01267  Uiso   1.00
C123   C     0.86994   0.84804   0.54034   0.01267  Uiso   1.00
C124   C     0.90431   0.77151   0.54431   0.01267  Uiso   1.00
C125   C     0.89258   0.73678   0.49408   0.01267  Uiso   1.00
C126   C     0.84944   0.77964   0.44174   0.01267  Uiso   1.00
C127   C     0.64708   0.84368   0.44158   0.01267  Uiso   1.00
C128   C     0.60043   0.78493   0.45923   0.01267  Uiso   1.00
C129   C     0.53450   0.80360   0.43200   0.01267  Uiso   1.00
C130   C     0.61637   0.71417   0.50937   0.01267  Uiso   1.00
C131   C     0.77691   0.42211   0.41391   0.01267  Uiso   1.00
C132   C     0.75420   0.45400   0.48480   0.01267  Uiso   1.00
C133   C     0.68586   0.50706   0.50146   0.01267  Uiso   1.00
C134   C     0.66130   0.53320   0.56900   0.01267  Uiso   1.00
C135   C     0.88739   0.48509   0.82749   0.01267  Uiso   1.00
C136   C     0.84804   0.54034   0.86994   0.01267  Uiso   1.00
C137   C     0.77151   0.54431   0.90431   0.01267  Uiso   1.00
C138   C     0.73678   0.49408   0.89258   0.01267  Uiso   1.00
C139   C     0.77964   0.44174   0.84944   0.01267  Uiso   1.00
C140   C     0.84368   0.44158   0.64708   0.01267  Uiso   1.00
C141   C     0.78493   0.45923   0.60043   0.01267  Uiso   1.00
C142   C     0.80360   0.43200   0.53450   0.01267  Uiso   1.00
C143   C     0.71417   0.50937   0.61637   0.01267  Uiso   1.00
C144   C     0.42211   0.41391   0.77691   0.01267  Uiso   1.00
C145   C     0.45400   0.48480   0.75420   0.01267  Uiso   1.00
C146   C     0.50706   0.50146   0.68586   0.01267  Uiso   1.00
C147   C     0.53320   0.56900   0.66130   0.01267  Uiso   1.00
C148   C     0.48509   0.82749   0.88739   0.01267  Uiso   1.00
C149   C     0.54034   0.86994   0.84804   0.01267  Uiso   1.00
C150   C     0.54431   0.90431   0.77151   0.01267  Uiso   1.00
C151   C     0.49408   0.89258   0.73678   0.01267  Uiso   1.00
C152   C     0.44174   0.84944   0.77964   0.01267  Uiso   1.00
C153   C     0.44158   0.64708   0.84368   0.01267  Uiso   1.00
C154   C     0.45923   0.60043   0.78493   0.01267  Uiso   1.00
C155   C     0.43200   0.53450   0.80360   0.01267  Uiso   1.00
C156   C     0.50937   0.61637   0.71417   0.01267  Uiso   1.00
C157   C     0.08653   0.08653   0.08653   0.01267  Uiso   1.00
C158   C     0.41347   0.41347   0.41347   0.01267  Uiso   1.00
C159   C     0.91347   0.91347   0.91347   0.01267  Uiso   1.00
C160   C     0.58653   0.58653   0.58653   0.01267  Uiso   1.00
N1     N     0.35371   0.31771   0.93741   0.01267  Uiso   1.00
N2     N     0.93741   0.35371   0.31771   0.01267  Uiso   1.00
N3     N     0.31771   0.93741   0.35371   0.01267  Uiso   1.00
N4     N     0.18229   0.14629   0.56259   0.01267  Uiso   1.00
N5     N     0.14629   0.56259   0.18229   0.01267  Uiso   1.00
N6     N     0.56259   0.18229   0.14629   0.01267  Uiso   1.00
N7     N     0.64629   0.68229   0.06259   0.01267  Uiso   1.00
N8     N     0.06259   0.64629   0.68229   0.01267  Uiso   1.00
N9     N     0.68229   0.06259   0.64629   0.01267  Uiso   1.00
N10    N     0.81771   0.85371   0.43741   0.01267  Uiso   1.00
N11    N     0.85371   0.43741   0.81771   0.01267  Uiso   1.00
N12    N     0.43741   0.81771   0.85371   0.01267  Uiso   1.00
Cl1    Cl    0.38891   0.01573   0.86636   0.01267  Uiso   1.00
Cl2    Cl    0.12773   0.93766   0.03359   0.01267  Uiso   1.00
Cl3    Cl    0.19170   0.20005   0.04035   0.01267  Uiso   1.00
Cl4    Cl    0.86636   0.38891   0.01573   0.01267  Uiso   1.00
Cl5    Cl    0.03359   0.12773   0.93766   0.01267  Uiso   1.00
Cl6    Cl    0.04035   0.19170   0.20005   0.01267  Uiso   1.00
Cl7    Cl    0.01573   0.86636   0.38891   0.01267  Uiso   1.00
Cl8    Cl    0.93766   0.03359   0.12773   0.01267  Uiso   1.00
Cl9    Cl    0.20005   0.04035   0.19170   0.01267  Uiso   1.00
Cl10   Cl    0.48427   0.11109   0.63364   0.01267  Uiso   1.00
Cl11   Cl    0.56234   0.37227   0.46641   0.01267  Uiso   1.00
Cl12   Cl    0.29995   0.30830   0.45965   0.01267  Uiso   1.00
Cl13   Cl    0.11109   0.63364   0.48427   0.01267  Uiso   1.00
Cl14   Cl    0.37227   0.46641   0.56234   0.01267  Uiso   1.00
Cl15   Cl    0.30830   0.45965   0.29995   0.01267  Uiso   1.00
Cl16   Cl    0.63364   0.48427   0.11109   0.01267  Uiso   1.00
Cl17   Cl    0.46641   0.56234   0.37227   0.01267  Uiso   1.00
Cl18   Cl    0.45965   0.29995   0.30830   0.01267  Uiso   1.00
Cl19   Cl    0.61109   0.98427   0.13364   0.01267  Uiso   1.00
Cl20   Cl    0.87227   0.06234   0.96641   0.01267  Uiso   1.00
Cl21   Cl    0.80830   0.79995   0.95965   0.01267  Uiso   1.00
Cl22   Cl    0.13364   0.61109   0.98427   0.01267  Uiso   1.00
Cl23   Cl    0.96641   0.87227   0.06234   0.01267  Uiso   1.00
Cl24   Cl    0.95965   0.80830   0.79995   0.01267  Uiso   1.00
Cl25   Cl    0.98427   0.13364   0.61109   0.01267  Uiso   1.00
Cl26   Cl    0.06234   0.96641   0.87227   0.01267  Uiso   1.00
Cl27   Cl    0.79995   0.95965   0.80830   0.01267  Uiso   1.00
Cl28   Cl    0.51573   0.88891   0.36636   0.01267  Uiso   1.00
Cl29   Cl    0.43766   0.62773   0.53359   0.01267  Uiso   1.00
Cl30   Cl    0.70005   0.69170   0.54035   0.01267  Uiso   1.00
Cl31   Cl    0.88891   0.36636   0.51573   0.01267  Uiso   1.00
Cl32   Cl    0.62773   0.53359   0.43766   0.01267  Uiso   1.00
Cl33   Cl    0.69170   0.54035   0.70005   0.01267  Uiso   1.00
Cl34   Cl    0.36636   0.51573   0.88891   0.01267  Uiso   1.00
Cl35   Cl    0.53359   0.43766   0.62773   0.01267  Uiso   1.00
Cl36   Cl    0.54035   0.70005   0.69170   0.01267  Uiso   1.00
O1     O     0.34747   0.19597   0.88437   0.01267  Uiso   1.00
O2     O     0.30639   0.85349   0.96346   0.01267  Uiso   1.00
O3     O     0.26648   0.92068   0.85818   0.01267  Uiso   1.00
O4     O     0.38479   0.12909   0.98839   0.01267  Uiso   1.00
O5     O     0.88437   0.34747   0.19597   0.01267  Uiso   1.00
O6     O     0.96346   0.30639   0.85349   0.01267  Uiso   1.00
O7     O     0.85818   0.26648   0.92068   0.01267  Uiso   1.00
O8     O     0.98839   0.38479   0.12909   0.01267  Uiso   1.00
O9     O     0.19597   0.88437   0.34747   0.01267  Uiso   1.00
O10    O     0.85349   0.96346   0.30639   0.01267  Uiso   1.00
O11    O     0.92068   0.85818   0.26648   0.01267  Uiso   1.00
O12    O     0.12909   0.98839   0.38479   0.01267  Uiso   1.00
O13    O     0.30403   0.15253   0.61563   0.01267  Uiso   1.00
O14    O     0.64651   0.19361   0.53654   0.01267  Uiso   1.00
O15    O     0.57932   0.23352   0.64182   0.01267  Uiso   1.00
O16    O     0.37091   0.11521   0.51161   0.01267  Uiso   1.00
O17    O     0.15253   0.61563   0.30403   0.01267  Uiso   1.00
O18    O     0.19361   0.53654   0.64651   0.01267  Uiso   1.00
O19    O     0.23352   0.64182   0.57932   0.01267  Uiso   1.00
O20    O     0.11521   0.51161   0.37091   0.01267  Uiso   1.00
O21    O     0.61563   0.30403   0.15253   0.01267  Uiso   1.00
O22    O     0.53654   0.64651   0.19361   0.01267  Uiso   1.00
O23    O     0.64182   0.57932   0.23352   0.01267  Uiso   1.00
O24    O     0.51161   0.37091   0.11521   0.01267  Uiso   1.00
O25    O     0.65253   0.80403   0.11563   0.01267  Uiso   1.00
O26    O     0.69361   0.14651   0.03654   0.01267  Uiso   1.00
O27    O     0.73352   0.07932   0.14182   0.01267  Uiso   1.00
O28    O     0.61521   0.87091   0.01161   0.01267  Uiso   1.00
O29    O     0.11563   0.65253   0.80403   0.01267  Uiso   1.00
O30    O     0.03654   0.69361   0.14651   0.01267  Uiso   1.00
O31    O     0.14182   0.73352   0.07932   0.01267  Uiso   1.00
O32    O     0.01161   0.61521   0.87091   0.01267  Uiso   1.00
O33    O     0.80403   0.11563   0.65253   0.01267  Uiso   1.00
O34    O     0.14651   0.03654   0.69361   0.01267  Uiso   1.00
O35    O     0.07932   0.14182   0.73352   0.01267  Uiso   1.00
O36    O     0.87091   0.01161   0.61521   0.01267  Uiso   1.00
O37    O     0.69597   0.84747   0.38437   0.01267  Uiso   1.00
O38    O     0.35349   0.80639   0.46346   0.01267  Uiso   1.00
O39    O     0.42068   0.76648   0.35818   0.01267  Uiso   1.00
O40    O     0.62909   0.88479   0.48839   0.01267  Uiso   1.00
O41    O     0.84747   0.38437   0.69597   0.01267  Uiso   1.00
O42    O     0.80639   0.46346   0.35349   0.01267  Uiso   1.00
O43    O     0.76648   0.35818   0.42068   0.01267  Uiso   1.00
O44    O     0.88479   0.48839   0.62909   0.01267  Uiso   1.00
O45    O     0.38437   0.69597   0.84747   0.01267  Uiso   1.00
O46    O     0.46346   0.35349   0.80639   0.01267  Uiso   1.00
O47    O     0.35818   0.42068   0.76648   0.01267  Uiso   1.00
O48    O     0.48839   0.62909   0.88479   0.01267  Uiso   1.00
