data_QITDEE_clean
_audit_creation_date              2015-10-16
_audit_creation_method            'Materials Studio'
_symmetry_space_group_name_H-M    'P1'
_symmetry_Int_Tables_number       1
_symmetry_cell_setting            triclinic
loop_
_symmetry_equiv_pos_as_xyz
  x,y,z
_cell_length_a                    12.3825
_cell_length_b                    13.0128
_cell_length_c                    15.3729
_cell_angle_alpha                 91.3510
_cell_angle_beta                  94.8640
_cell_angle_gamma                 98.7300
loop_
_atom_site_label
_atom_site_type_symbol
_atom_site_fract_x
_atom_site_fract_y
_atom_site_fract_z
_atom_site_U_iso_or_equiv
_atom_site_adp_type
_atom_site_occupancy
Cd1    Cd    0.50831   0.61494   0.42338   0.01267  Uiso   1.00
Cd2    Cd    0.82384   0.19277   0.14949   0.01267  Uiso   1.00
Cd3    Cd    0.49169   0.38506   0.57662   0.01267  Uiso   1.00
Cd4    Cd    0.17616   0.80723   0.85051   0.01267  Uiso   1.00
H1     H     0.41300   0.75920   0.78810   0.01267  Uiso   1.00
H2     H     0.64710   0.21100   0.61900   0.01267  Uiso   1.00
H3     H     0.56790   0.46360   0.92450   0.01267  Uiso   1.00
H4     H     0.17160   0.23280   0.42760   0.01267  Uiso   1.00
H5     H     0.78210   0.40600   0.62960   0.01267  Uiso   1.00
H6     H     0.11620   0.83330   0.45380   0.01267  Uiso   1.00
H7     H     0.56160   0.86930   0.02130   0.01267  Uiso   1.00
H8     H     0.59830   0.79650   0.72930   0.01267  Uiso   1.00
H9     H     0.43800   0.14650   0.80340   0.01267  Uiso   1.00
H10    H     0.64540   0.36810   0.40650   0.01267  Uiso   1.00
H11    H     0.91150   0.82370   0.05280   0.01267  Uiso   1.00
H12    H     0.42930   0.34740   0.86500   0.01267  Uiso   1.00
H13    H     0.83000   0.53900   0.55100   0.01267  Uiso   1.00
H14    H     0.64960   0.81580   0.14010   0.01267  Uiso   1.00
H15    H     0.08850   0.17630   0.94720   0.01267  Uiso   1.00
H16    H     0.57070   0.65260   0.13500   0.01267  Uiso   1.00
H17    H     0.08870   0.55690   0.26030   0.01267  Uiso   1.00
H18    H     0.72110   0.99430   0.28090   0.01267  Uiso   1.00
H19    H     0.33530   0.53640   0.13500   0.01267  Uiso   1.00
H20    H     0.51620   0.72210   0.91670   0.01267  Uiso   1.00
H21    H     0.25280   0.37110   0.25310   0.01267  Uiso   1.00
H22    H     0.92690   0.25640   0.69550   0.01267  Uiso   1.00
H23    H     0.84820   0.52530   0.78210   0.01267  Uiso   1.00
H24    H     0.81000   0.07620   0.49060   0.01267  Uiso   1.00
H25    H     0.98720   0.17230   0.65410   0.01267  Uiso   1.00
H26    H     0.94300   0.90850   0.82400   0.01267  Uiso   1.00
H27    H     0.99230   0.41500   0.43350   0.01267  Uiso   1.00
H28    H     0.88380   0.16670   0.54620   0.01267  Uiso   1.00
H29    H     0.78230   0.25150   0.39050   0.01267  Uiso   1.00
H30    H     0.21790   0.59400   0.37040   0.01267  Uiso   1.00
H31    H     0.68530   0.97690   0.90130   0.01267  Uiso   1.00
H32    H     0.17000   0.46100   0.44900   0.01267  Uiso   1.00
H33    H     0.11080   0.82230   0.13760   0.01267  Uiso   1.00
H34    H     0.69190   0.32350   0.79050   0.01267  Uiso   1.00
H35    H     0.01280   0.82770   0.34590   0.01267  Uiso   1.00
H36    H     0.72070   0.71330   0.68040   0.01267  Uiso   1.00
H37    H     0.56490   0.81950   0.63180   0.01267  Uiso   1.00
H38    H     0.02790   0.52630   0.39900   0.01267  Uiso   1.00
H39    H     0.93500   0.79170   0.63670   0.01267  Uiso   1.00
H40    H     0.81930   0.73940   0.75200   0.01267  Uiso   1.00
H41    H     0.15180   0.47470   0.21790   0.01267  Uiso   1.00
H42    H     0.82950   0.08250   0.91000   0.01267  Uiso   1.00
H43    H     0.07310   0.74360   0.30450   0.01267  Uiso   1.00
H44    H     0.54130   0.64360   0.98870   0.01267  Uiso   1.00
H45    H     0.33180   0.01190   0.51710   0.01267  Uiso   1.00
H46    H     0.18070   0.26060   0.24800   0.01267  Uiso   1.00
H47    H     0.74520   0.88350   0.87770   0.01267  Uiso   1.00
H48    H     0.43210   0.53640   0.07550   0.01267  Uiso   1.00
H49    H     0.74720   0.62890   0.74690   0.01267  Uiso   1.00
H50    H     0.68120   0.43760   0.96380   0.01267  Uiso   1.00
H51    H     0.70780   0.46420   0.68570   0.01267  Uiso   1.00
H52    H     0.08310   0.54050   0.63870   0.01267  Uiso   1.00
H53    H     0.56200   0.85350   0.19660   0.01267  Uiso   1.00
H54    H     0.43680   0.05790   0.47230   0.01267  Uiso   1.00
H55    H     0.64940   0.20870   0.81420   0.01267  Uiso   1.00
H56    H     0.74250   0.27690   0.87500   0.01267  Uiso   1.00
H57    H     0.35060   0.79130   0.18580   0.01267  Uiso   1.00
H58    H     0.56320   0.94210   0.52770   0.01267  Uiso   1.00
H59    H     0.00770   0.58500   0.56650   0.01267  Uiso   1.00
H60    H     0.42810   0.62590   0.93210   0.01267  Uiso   1.00
H61    H     0.57190   0.37410   0.06790   0.01267  Uiso   1.00
H62    H     0.78400   0.95580   0.06030   0.01267  Uiso   1.00
H63    H     0.66820   0.98810   0.48290   0.01267  Uiso   1.00
H64    H     0.46280   0.01910   0.65460   0.01267  Uiso   1.00
H65    H     0.46820   0.89840   0.07690   0.01267  Uiso   1.00
H66    H     0.65670   0.87500   0.51760   0.01267  Uiso   1.00
H67    H     0.27930   0.28670   0.31960   0.01267  Uiso   1.00
H68    H     0.31470   0.02310   0.09870   0.01267  Uiso   1.00
H69    H     0.62170   0.88170   0.84430   0.01267  Uiso   1.00
H70    H     0.58700   0.24080   0.21190   0.01267  Uiso   1.00
H71    H     0.35460   0.63190   0.59350   0.01267  Uiso   1.00
H72    H     0.97210   0.47370   0.60100   0.01267  Uiso   1.00
H73    H     0.05700   0.09150   0.17600   0.01267  Uiso   1.00
H74    H     0.45870   0.35640   0.01130   0.01267  Uiso   1.00
H75    H     0.01080   0.81500   0.24410   0.01267  Uiso   1.00
H76    H     0.30810   0.67650   0.20950   0.01267  Uiso   1.00
H77    H     0.34330   0.12500   0.48240   0.01267  Uiso   1.00
H78    H     0.40170   0.20350   0.27070   0.01267  Uiso   1.00
H79    H     0.53720   0.98090   0.34540   0.01267  Uiso   1.00
H80    H     0.25750   0.72310   0.12500   0.01267  Uiso   1.00
H81    H     0.27890   0.00570   0.71910   0.01267  Uiso   1.00
H82    H     0.17050   0.91750   0.09000   0.01267  Uiso   1.00
H83    H     0.91690   0.45950   0.36130   0.01267  Uiso   1.00
H84    H     0.31880   0.56240   0.03620   0.01267  Uiso   1.00
H85    H     0.35040   0.18420   0.85990   0.01267  Uiso   1.00
H86    H     0.98920   0.18500   0.75590   0.01267  Uiso   1.00
H87    H     0.43510   0.18050   0.36820   0.01267  Uiso   1.00
H88    H     0.06670   0.28030   0.44670   0.01267  Uiso   1.00
H89    H     0.43840   0.13070   0.97870   0.01267  Uiso   1.00
H90    H     0.06500   0.20830   0.36330   0.01267  Uiso   1.00
H91    H     0.91130   0.44310   0.73970   0.01267  Uiso   1.00
H92    H     0.19000   0.92380   0.50940   0.01267  Uiso   1.00
H93    H     0.29220   0.53580   0.31430   0.01267  Uiso   1.00
H94    H     0.82840   0.76720   0.57240   0.01267  Uiso   1.00
H95    H     0.37830   0.11830   0.15570   0.01267  Uiso   1.00
H96    H     0.66470   0.46360   0.86500   0.01267  Uiso   1.00
H97    H     0.21770   0.74850   0.60950   0.01267  Uiso   1.00
H98    H     0.88920   0.17770   0.86240   0.01267  Uiso   1.00
H99    H     0.35290   0.78900   0.38100   0.01267  Uiso   1.00
H100   H     0.21600   0.04420   0.93970   0.01267  Uiso   1.00
H101   H     0.53180   0.10160   0.92310   0.01267  Uiso   1.00
H102   H     0.48380   0.27790   0.08330   0.01267  Uiso   1.00
H103   H     0.25480   0.11650   0.12230   0.01267  Uiso   1.00
H104   H     0.93330   0.71970   0.55330   0.01267  Uiso   1.00
C1     C     0.10930   0.26040   0.40170   0.01267  Uiso   1.00
C2     C     0.21500   0.93020   0.37810   0.01267  Uiso   1.00
C3     C     0.30270   0.01270   0.38250   0.01267  Uiso   1.00
C4     C     0.62980   0.43080   0.91280   0.01267  Uiso   1.00
C5     C     0.14350   0.03390   0.91570   0.01267  Uiso   1.00
C6     C     0.32190   0.42210   0.46760   0.01267  Uiso   1.00
C7     C     0.48520   0.67730   0.95990   0.01267  Uiso   1.00
C8     C     0.78500   0.06980   0.62190   0.01267  Uiso   1.00
C9     C     0.27370   0.02130   0.22570   0.01267  Uiso   1.00
C10    C     0.77350   0.68300   0.71270   0.01267  Uiso   1.00
C11    C     0.12590   0.89760   0.13760   0.01267  Uiso   1.00
C12    C     0.33210   0.06020   0.30500   0.01267  Uiso   1.00
C13    C     0.59140   0.31570   0.88930   0.01267  Uiso   1.00
C14    C     0.94580   0.18800   0.70150   0.01267  Uiso   1.00
C15    C     0.26210   0.74540   0.56400   0.01267  Uiso   1.00
C16    C     0.51480   0.32270   0.04010   0.01267  Uiso   1.00
C17    C     0.18960   0.87250   0.46260   0.01267  Uiso   1.00
C18    C     0.67220   0.04190   0.27490   0.01267  Uiso   1.00
C19    C     0.51070   0.84420   0.06340   0.01267  Uiso   1.00
C20    C     0.66790   0.93980   0.69500   0.01267  Uiso   1.00
C21    C     0.84040   0.10780   0.69970   0.01267  Uiso   1.00
C22    C     0.35900   0.05600   0.47200   0.01267  Uiso   1.00
C23    C     0.85650   0.96610   0.08430   0.01267  Uiso   1.00
C24    C     0.01990   0.67340   0.74700   0.01267  Uiso   1.00
C25    C     0.42320   0.15060   0.30910   0.01267  Uiso   1.00
C26    C     0.81320   0.05990   0.77590   0.01267  Uiso   1.00
C27    C     0.77640   0.47170   0.65870   0.01267  Uiso   1.00
C28    C     0.89070   0.73960   0.59830   0.01267  Uiso   1.00
C29    C     0.64100   0.94400   0.52800   0.01267  Uiso   1.00
C30    C     0.12680   0.49820   0.27200   0.01267  Uiso   1.00
C31    C     0.05140   0.40960   0.31140   0.01267  Uiso   1.00
C32    C     0.56430   0.25600   0.97080   0.01267  Uiso   1.00
C33    C     0.57170   0.80950   0.14700   0.01267  Uiso   1.00
C34    C     0.57680   0.84940   0.69090   0.01267  Uiso   1.00
C35    C     0.40270   0.82180   0.76330   0.01267  Uiso   1.00
C36    C     0.85070   0.64270   0.65130   0.01267  Uiso   1.00
C37    C     0.07480   0.11020   0.92070   0.01267  Uiso   1.00
C38    C     0.15960   0.89220   0.30030   0.01267  Uiso   1.00
C39    C     0.59730   0.17820   0.23670   0.01267  Uiso   1.00
C40    C     0.69730   0.98730   0.61750   0.01267  Uiso   1.00
C41    C     0.92520   0.88980   0.07930   0.01267  Uiso   1.00
C42    C     0.56850   0.03340   0.31130   0.01267  Uiso   1.00
C43    C     0.30860   0.07480   0.14290   0.01267  Uiso   1.00
C44    C     0.22030   0.44180   0.40770   0.01267  Uiso   1.00
C45    C     0.00860   0.54290   0.61690   0.01267  Uiso   1.00
C46    C     0.99140   0.45710   0.38310   0.01267  Uiso   1.00
C47    C     0.18680   0.94010   0.22410   0.01267  Uiso   1.00
C48    C     0.81040   0.12750   0.53740   0.01267  Uiso   1.00
C49    C     0.52630   0.69820   0.16250   0.01267  Uiso   1.00
C50    C     0.87320   0.50180   0.72800   0.01267  Uiso   1.00
C51    C     0.98010   0.32660   0.25300   0.01267  Uiso   1.00
C52    C     0.43150   0.96660   0.68870   0.01267  Uiso   1.00
C53    C     0.72630   0.97870   0.77430   0.01267  Uiso   1.00
C54    C     0.34120   0.68280   0.55420   0.01267  Uiso   1.00
C55    C     0.99650   0.95940   0.85180   0.01267  Uiso   1.00
C56    C     0.94860   0.59040   0.68860   0.01267  Uiso   1.00
C57    C     0.37020   0.56920   0.08720   0.01267  Uiso   1.00
C58    C     0.43570   0.74400   0.02920   0.01267  Uiso   1.00
C59    C     0.47680   0.32640   0.74260   0.01267  Uiso   1.00
C60    C     0.40860   0.68430   0.11070   0.01267  Uiso   1.00
C61    C     0.73790   0.25460   0.43600   0.01267  Uiso   1.00
C62    C     0.65880   0.31720   0.44580   0.01267  Uiso   1.00
C63    C     0.52320   0.67360   0.25740   0.01267  Uiso   1.00
C64    C     0.66580   0.23760   0.02860   0.01267  Uiso   1.00
C65    C     0.65890   0.23120   0.56250   0.01267  Uiso   1.00
C66    C     0.32350   0.72220   0.16250   0.01267  Uiso   1.00
C67    C     0.67810   0.57790   0.53240   0.01267  Uiso   1.00
C68    C     0.48930   0.15580   0.93660   0.01267  Uiso   1.00
C69    C     0.33420   0.76240   0.97140   0.01267  Uiso   1.00
C70    C     0.77970   0.55820   0.59230   0.01267  Uiso   1.00
C71    C     0.87410   0.10240   0.86240   0.01267  Uiso   1.00
C72    C     0.42830   0.19050   0.85300   0.01267  Uiso   1.00
C73    C     0.00350   0.04060   0.14820   0.01267  Uiso   1.00
C74    C     0.22650   0.31700   0.28730   0.01267  Uiso   1.00
C75    C     0.69140   0.92520   0.85710   0.01267  Uiso   1.00
C76    C     0.67650   0.27780   0.83750   0.01267  Uiso   1.00
C77    C     0.32780   0.95810   0.72510   0.01267  Uiso   1.00
C78    C     0.05420   0.81200   0.29850   0.01267  Uiso   1.00
C79    C     0.47370   0.30180   0.83750   0.01267  Uiso   1.00
C80    C     0.14930   0.35730   0.34870   0.01267  Uiso   1.00
C81    C     0.22360   0.52830   0.34130   0.01267  Uiso   1.00
C82    C     0.34110   0.76880   0.43750   0.01267  Uiso   1.00
N1     N     0.90310   0.05250   0.12530   0.01267  Uiso   1.00
N2     N     0.01900   0.94180   0.12530   0.01267  Uiso   1.00
N3     N     0.39560   0.70040   0.48590   0.01267  Uiso   1.00
N4     N     0.60440   0.29960   0.51410   0.01267  Uiso   1.00
N5     N     0.31280   0.86820   0.77020   0.01267  Uiso   1.00
N6     N     0.68720   0.13180   0.22980   0.01267  Uiso   1.00
N7     N     0.47510   0.87830   0.71600   0.01267  Uiso   1.00
N8     N     0.09690   0.94750   0.87470   0.01267  Uiso   1.00
N9     N     0.52490   0.12170   0.28400   0.01267  Uiso   1.00
N10    N     0.98100   0.05820   0.87470   0.01267  Uiso   1.00
N11    N     0.26520   0.80160   0.49030   0.01267  Uiso   1.00
N12    N     0.73480   0.19840   0.50970   0.01267  Uiso   1.00
O1     O     0.98560   0.30520   0.17210   0.01267  Uiso   1.00
O2     O     0.47060   0.25440   0.68820   0.01267  Uiso   1.00
O3     O     0.01440   0.69480   0.82790   0.01267  Uiso   1.00
O4     O     0.29940   0.84760   0.98010   0.01267  Uiso   1.00
O5     O     0.58570   0.55070   0.55570   0.01267  Uiso   1.00
O6     O     0.31080   0.37240   0.53390   0.01267  Uiso   1.00
O7     O     0.49730   0.41660   0.71760   0.01267  Uiso   1.00
O8     O     0.41430   0.44930   0.44430   0.01267  Uiso   1.00
O9     O     0.52940   0.74560   0.31180   0.01267  Uiso   1.00
O10    O     0.50270   0.58340   0.28240   0.01267  Uiso   1.00
O11    O     0.90750   0.27320   0.27680   0.01267  Uiso   1.00
O12    O     0.68920   0.62760   0.46610   0.01267  Uiso   1.00
O13    O     0.70060   0.15240   0.01990   0.01267  Uiso   1.00
O14    O     0.09250   0.72680   0.72320   0.01267  Uiso   1.00
O15    O     0.71580   0.30380   0.08160   0.01267  Uiso   1.00
O16    O     0.28420   0.69620   0.91840   0.01267  Uiso   1.00
