data_image0
_cell_length_a       16.1369
_cell_length_b       12.8809
_cell_length_c       22.4044
_cell_angle_alpha    90
_cell_angle_beta     106.294
_cell_angle_gamma    90

_symmetry_space_group_name_H-M    "P 1"
_symmetry_int_tables_number       1

loop_
  _symmetry_equiv_pos_as_xyz
  'x, y, z'

loop_
  _atom_site_label
  _atom_site_occupancy
  _atom_site_fract_x
  _atom_site_fract_y
  _atom_site_fract_z
  _atom_site_thermal_displace_type
  _atom_site_B_iso_or_equiv
  _atom_site_type_symbol
  Mn1      1.0000 0.80005  0.85022  0.35910  Biso   1.000  Mn
  Mn2      1.0000 0.57817  0.93468  0.28664  Biso   1.000  Mn
  C1       1.0000 0.78042  0.78621  0.48724  Biso   1.000  C
  C2       1.0000 0.83244  0.78363  0.55470  Biso   1.000  C
  C3       1.0000 0.79464  0.77978  0.60343  Biso   1.000  C
  H1       1.0000 0.73490  0.77660  0.59540  Biso   1.000  H
  C4       1.0000 0.84714  0.78083  0.66373  Biso   1.000  C
  H2       1.0000 0.82350  0.77920  0.69710  Biso   1.000  H
  C5       1.0000 0.93562  0.78429  0.67353  Biso   1.000  C
  N1       1.0000 0.97391  0.78765  0.62794  Biso   1.000  N
  C6       1.0000 0.25390  0.37023  0.70403  Biso   1.000  C
  C7       1.0000 0.21800  0.47257  0.71702  Biso   1.000  C
  C8       1.0000 0.12962  0.48663  0.70462  Biso   1.000  C
  H3       1.0000 0.09240  0.43140  0.69000  Biso   1.000  H
  C9       1.0000 0.09686  0.58140  0.71384  Biso   1.000  C
  H4       1.0000 0.03760  0.59170  0.70530  Biso   1.000  H
  C10      1.0000 0.15431  0.66137  0.73611  Biso   1.000  C
  C11      1.0000 0.26963  0.55770  0.73809  Biso   1.000  C
  H5       1.0000 0.32900  0.54970  0.74580  Biso   1.000  H
  C12      1.0000 0.72662  0.07180  0.37241  Biso   1.000  C
  C13      1.0000 0.75334  0.18157  0.39140  Biso   1.000  C
  C14      1.0000 0.83929  0.21010  0.40960  Biso   1.000  C
  H6       1.0000 0.88200  0.16070  0.41170  Biso   1.000  H
  C15      1.0000 0.86152  0.31190  0.42456  Biso   1.000  C
  H7       1.0000 0.91900  0.33280  0.43520  Biso   1.000  H
  C16      1.0000 0.79687  0.38215  0.42339  Biso   1.000  C
  N2       1.0000 0.71299  0.35725  0.40647  Biso   1.000  N
  C17      1.0000 0.72739  0.55451  0.72464  Biso   1.000  C
  C18      1.0000 0.76389  0.52965  0.67134  Biso   1.000  C
  C19      1.0000 0.71411  0.50960  0.61169  Biso   1.000  C
  H8       1.0000 0.65450  0.50300  0.60320  Biso   1.000  H
  C20      1.0000 0.75350  0.49950  0.56455  Biso   1.000  C
  H9       1.0000 0.72120  0.48590  0.52390  Biso   1.000  H
  C21      1.0000 0.84150  0.51004  0.57946  Biso   1.000  C
  N3       1.0000 0.89219  0.52238  0.63711  Biso   1.000  N
  C22      1.0000 0.99016  0.77590  0.40289  Biso   1.000  C
  H10      1.0000 0.96220  0.71790  0.41260  Biso   1.000  H
  C23      1.0000 0.07841  0.77340  0.41596  Biso   1.000  C
  H11      1.0000 0.10850  0.71440  0.43390  Biso   1.000  H
  C24      1.0000 0.12263  0.85770  0.40268  Biso   1.000  C
  C25      1.0000 0.07308  0.94060  0.37463  Biso   1.000  C
  H12      1.0000 0.09950  0.99870  0.36350  Biso   1.000  H
  C26      1.0000 0.98481  0.93820  0.36294  Biso   1.000  C
  H13      1.0000 0.95320  0.99580  0.34440  Biso   1.000  H
  C27      1.0000 0.22005  0.85950  0.42005  Biso   1.000  C
  H14      1.0000 0.23870  0.86120  0.38250  Biso   1.000  H
  H15      1.0000 0.24250  0.79650  0.44250  Biso   1.000  H
  C28      1.0000 0.25658  0.95280  0.45997  Biso   1.000  C
  H16      1.0000 0.22790  0.95880  0.49250  Biso   1.000  H
  H17      1.0000 0.24300  0.01470  0.43450  Biso   1.000  H
  C29      1.0000 0.35373  0.94920  0.49001  Biso   1.000  C
  H18      1.0000 0.37080  0.00990  0.51630  Biso   1.000  H
  H19      1.0000 0.36760  0.88820  0.51630  Biso   1.000  H
  C30      1.0000 0.40451  0.94630  0.44289  Biso   1.000  C
  C31      1.0000 0.43552  0.85490  0.42618  Biso   1.000  C
  H20      1.0000 0.42690  0.79310  0.44500  Biso   1.000  H
  C32      1.0000 0.47961  0.85460  0.38134  Biso   1.000  C
  H21      1.0000 0.49970  0.79160  0.37070  Biso   1.000  H
  C33      1.0000 0.46523  0.02870  0.36975  Biso   1.000  C
  H22      1.0000 0.47560  0.08980  0.35090  Biso   1.000  H
  C34      1.0000 0.42034  0.03510  0.41360  Biso   1.000  C
  H23      1.0000 0.40080  0.09900  0.42340  Biso   1.000  H
  N4       1.0000 0.94244  0.85718  0.37702  Biso   1.000  N
  N5       1.0000 0.49465  0.94015  0.35279  Biso   1.000  N
  C35      1.0000 0.92115  0.78790  0.57006  Biso   1.000  C
  H24      1.0000 0.94640  0.79130  0.53760  Biso   1.000  H
  N6       1.0000 0.23996  0.65155  0.74821  Biso   1.000  N
  C36      1.0000 0.69293  0.25810  0.38980  Biso   1.000  C
  H25      1.0000 0.63480  0.24010  0.37640  Biso   1.000  H
  C37      1.0000 0.85234  0.53256  0.68151  Biso   1.000  C
  H26      1.0000 0.88650  0.54230  0.72210  Biso   1.000  H
  S1       1.0000 0.00087  0.77986  0.75221  Biso   1.000  S
  S2       1.0000 0.12468  0.79048  0.74895  Biso   1.000  S
  S3       1.0000 0.81891  0.51657  0.44070  Biso   1.000  S
  S4       1.0000 0.90559  0.51093  0.52614  Biso   1.000  S
  O1       1.0000 0.70009  0.79141  0.47379  Biso   1.000  O
  O2       1.0000 0.82376  0.78344  0.44863  Biso   1.000  O
  O3       1.0000 0.77978  0.00190  0.39438  Biso   1.000  O
  O4       1.0000 0.65214  0.05990  0.33610  Biso   1.000  O
  O5       1.0000 0.20144  0.29716  0.68840  Biso   1.000  O
  O6       1.0000 0.33326  0.36377  0.70911  Biso   1.000  O
  O7       1.0000 0.78116  0.56900  0.77523  Biso   1.000  O
  O8       1.0000 0.64759  0.56080  0.71501  Biso   1.000  O
  O9       1.0000 0.65753  0.81455  0.34887  Biso   1.000  O
  H27      1.0000 0.65220  0.81110  0.38550  Biso   1.000  H
  H28      1.0000 0.65200  0.75450  0.33250  Biso   1.000  H
  Mn3      1.0000 0.19995  0.35022  0.14090  Biso   1.000  Mn
  Mn4      1.0000 0.42183  0.43468  0.21336  Biso   1.000  Mn
  C38      1.0000 0.21958  0.28621  0.01276  Biso   1.000  C
  C39      1.0000 0.16756  0.28363  0.94530  Biso   1.000  C
  C40      1.0000 0.20536  0.27978  0.89657  Biso   1.000  C
  H29      1.0000 0.26510  0.27660  0.90460  Biso   1.000  H
  C41      1.0000 0.15286  0.28083  0.83627  Biso   1.000  C
  H30      1.0000 0.17650  0.27920  0.80290  Biso   1.000  H
  C42      1.0000 0.06438  0.28429  0.82647  Biso   1.000  C
  N7       1.0000 0.02609  0.28765  0.87206  Biso   1.000  N
  C43      1.0000 0.74610  0.87023  0.79597  Biso   1.000  C
  C44      1.0000 0.78200  0.97257  0.78298  Biso   1.000  C
  C45      1.0000 0.87038  0.98663  0.79538  Biso   1.000  C
  H31      1.0000 0.90760  0.93140  0.81000  Biso   1.000  H
  C46      1.0000 0.90314  0.08140  0.78616  Biso   1.000  C
  H32      1.0000 0.96240  0.09170  0.79470  Biso   1.000  H
  C47      1.0000 0.84569  0.16137  0.76389  Biso   1.000  C
  C48      1.0000 0.73037  0.05770  0.76191  Biso   1.000  C
  H33      1.0000 0.67100  0.04970  0.75420  Biso   1.000  H
  C49      1.0000 0.27338  0.57180  0.12759  Biso   1.000  C
  C50      1.0000 0.24666  0.68157  0.10860  Biso   1.000  C
  C51      1.0000 0.16071  0.71010  0.09040  Biso   1.000  C
  H34      1.0000 0.11800  0.66070  0.08830  Biso   1.000  H
  C52      1.0000 0.13848  0.81190  0.07544  Biso   1.000  C
  H35      1.0000 0.08100  0.83280  0.06480  Biso   1.000  H
  C53      1.0000 0.20313  0.88215  0.07661  Biso   1.000  C
  N8       1.0000 0.28701  0.85725  0.09353  Biso   1.000  N
  C54      1.0000 0.27261  0.05451  0.77536  Biso   1.000  C
  C55      1.0000 0.23611  0.02965  0.82866  Biso   1.000  C
  C56      1.0000 0.28589  0.00960  0.88831  Biso   1.000  C
  H36      1.0000 0.34550  0.00300  0.89680  Biso   1.000  H
  C57      1.0000 0.24650  0.99950  0.93545  Biso   1.000  C
  H37      1.0000 0.27880  0.98590  0.97610  Biso   1.000  H
  C58      1.0000 0.15850  0.01004  0.92054  Biso   1.000  C
  N9       1.0000 0.10781  0.02238  0.86289  Biso   1.000  N
  C59      1.0000 0.00984  0.27590  0.09711  Biso   1.000  C
  H38      1.0000 0.03780  0.21790  0.08740  Biso   1.000  H
  C60      1.0000 0.92159  0.27340  0.08404  Biso   1.000  C
  H39      1.0000 0.89150  0.21440  0.06610  Biso   1.000  H
  C61      1.0000 0.87737  0.35770  0.09732  Biso   1.000  C
  C62      1.0000 0.92692  0.44060  0.12537  Biso   1.000  C
  H40      1.0000 0.90050  0.49870  0.13650  Biso   1.000  H
  C63      1.0000 0.01519  0.43820  0.13706  Biso   1.000  C
  H41      1.0000 0.04680  0.49580  0.15560  Biso   1.000  H
  C64      1.0000 0.77995  0.35950  0.07995  Biso   1.000  C
  H42      1.0000 0.76130  0.36120  0.11750  Biso   1.000  H
  H43      1.0000 0.75750  0.29650  0.05750  Biso   1.000  H
  C65      1.0000 0.74342  0.45280  0.04003  Biso   1.000  C
  H44      1.0000 0.77210  0.45880  0.00750  Biso   1.000  H
  H45      1.0000 0.75700  0.51470  0.06550  Biso   1.000  H
  C66      1.0000 0.64627  0.44920  0.00999  Biso   1.000  C
  H46      1.0000 0.62920  0.50990  0.98370  Biso   1.000  H
  H47      1.0000 0.63240  0.38820  0.98370  Biso   1.000  H
  C67      1.0000 0.59549  0.44630  0.05711  Biso   1.000  C
  C68      1.0000 0.56448  0.35490  0.07382  Biso   1.000  C
  H48      1.0000 0.57310  0.29310  0.05500  Biso   1.000  H
  C69      1.0000 0.52039  0.35460  0.11866  Biso   1.000  C
  H49      1.0000 0.50030  0.29160  0.12930  Biso   1.000  H
  C70      1.0000 0.53477  0.52870  0.13025  Biso   1.000  C
  H50      1.0000 0.52440  0.58980  0.14910  Biso   1.000  H
  C71      1.0000 0.57966  0.53510  0.08640  Biso   1.000  C
  H51      1.0000 0.59920  0.59900  0.07660  Biso   1.000  H
  N10      1.0000 0.05756  0.35718  0.12298  Biso   1.000  N
  N11      1.0000 0.50535  0.44015  0.14721  Biso   1.000  N
  C72      1.0000 0.07885  0.28790  0.92994  Biso   1.000  C
  H52      1.0000 0.05360  0.29130  0.96240  Biso   1.000  H
  N12      1.0000 0.76004  0.15155  0.75179  Biso   1.000  N
  C73      1.0000 0.30707  0.75810  0.11020  Biso   1.000  C
  H53      1.0000 0.36520  0.74010  0.12360  Biso   1.000  H
  C74      1.0000 0.14766  0.03256  0.81849  Biso   1.000  C
  H54      1.0000 0.11350  0.04230  0.77790  Biso   1.000  H
  S5       1.0000 0.99913  0.27986  0.74779  Biso   1.000  S
  S6       1.0000 0.87532  0.29048  0.75105  Biso   1.000  S
  S7       1.0000 0.18109  0.01657  0.05930  Biso   1.000  S
  S8       1.0000 0.09441  0.01093  0.97386  Biso   1.000  S
  O10      1.0000 0.29991  0.29141  0.02621  Biso   1.000  O
  O11      1.0000 0.17624  0.28344  0.05137  Biso   1.000  O
  O12      1.0000 0.22022  0.50190  0.10562  Biso   1.000  O
  O13      1.0000 0.34786  0.55990  0.16390  Biso   1.000  O
  O14      1.0000 0.79856  0.79716  0.81160  Biso   1.000  O
  O15      1.0000 0.66674  0.86377  0.79089  Biso   1.000  O
  O16      1.0000 0.21884  0.06900  0.72477  Biso   1.000  O
  O17      1.0000 0.35241  0.06080  0.78499  Biso   1.000  O
  O18      1.0000 0.34247  0.31455  0.15113  Biso   1.000  O
  H55      1.0000 0.34780  0.31110  0.11450  Biso   1.000  H
  H56      1.0000 0.34800  0.25450  0.16750  Biso   1.000  H
  Mn5      1.0000 0.19995  0.14978  0.64090  Biso   1.000  Mn
  Mn6      1.0000 0.42183  0.06532  0.71336  Biso   1.000  Mn
  C75      1.0000 0.21958  0.21379  0.51276  Biso   1.000  C
  C76      1.0000 0.16756  0.21637  0.44530  Biso   1.000  C
  C77      1.0000 0.20536  0.22022  0.39657  Biso   1.000  C
  H57      1.0000 0.26510  0.22340  0.40460  Biso   1.000  H
  C78      1.0000 0.15286  0.21917  0.33627  Biso   1.000  C
  H58      1.0000 0.17650  0.22080  0.30290  Biso   1.000  H
  C79      1.0000 0.06438  0.21571  0.32647  Biso   1.000  C
  N13      1.0000 0.02609  0.21235  0.37206  Biso   1.000  N
  C80      1.0000 0.74610  0.62977  0.29597  Biso   1.000  C
  C81      1.0000 0.78200  0.52743  0.28298  Biso   1.000  C
  C82      1.0000 0.87038  0.51337  0.29538  Biso   1.000  C
  H59      1.0000 0.90760  0.56860  0.31000  Biso   1.000  H
  C83      1.0000 0.90314  0.41860  0.28616  Biso   1.000  C
  H60      1.0000 0.96240  0.40830  0.29470  Biso   1.000  H
  C84      1.0000 0.84569  0.33863  0.26389  Biso   1.000  C
  C85      1.0000 0.73037  0.44230  0.26191  Biso   1.000  C
  H61      1.0000 0.67100  0.45030  0.25420  Biso   1.000  H
  C86      1.0000 0.27338  0.92820  0.62759  Biso   1.000  C
  C87      1.0000 0.24666  0.81843  0.60860  Biso   1.000  C
  C88      1.0000 0.16071  0.78990  0.59040  Biso   1.000  C
  H62      1.0000 0.11800  0.83930  0.58830  Biso   1.000  H
  C89      1.0000 0.13848  0.68810  0.57544  Biso   1.000  C
  H63      1.0000 0.08100  0.66720  0.56480  Biso   1.000  H
  C90      1.0000 0.20313  0.61785  0.57661  Biso   1.000  C
  N14      1.0000 0.28701  0.64275  0.59353  Biso   1.000  N
  C91      1.0000 0.27261  0.44549  0.27536  Biso   1.000  C
  C92      1.0000 0.23611  0.47035  0.32866  Biso   1.000  C
  C93      1.0000 0.28589  0.49040  0.38831  Biso   1.000  C
  H64      1.0000 0.34550  0.49700  0.39680  Biso   1.000  H
  C94      1.0000 0.24650  0.50050  0.43545  Biso   1.000  C
  H65      1.0000 0.27880  0.51410  0.47610  Biso   1.000  H
  C95      1.0000 0.15850  0.48996  0.42054  Biso   1.000  C
  N15      1.0000 0.10781  0.47762  0.36289  Biso   1.000  N
  C96      1.0000 0.00984  0.22410  0.59711  Biso   1.000  C
  H66      1.0000 0.03780  0.28210  0.58740  Biso   1.000  H
  C97      1.0000 0.92159  0.22660  0.58404  Biso   1.000  C
  H67      1.0000 0.89150  0.28560  0.56610  Biso   1.000  H
  C98      1.0000 0.87737  0.14230  0.59732  Biso   1.000  C
  C99      1.0000 0.92692  0.05940  0.62537  Biso   1.000  C
  H68      1.0000 0.90050  0.00130  0.63650  Biso   1.000  H
  C100     1.0000 0.01519  0.06180  0.63706  Biso   1.000  C
  H69      1.0000 0.04680  0.00420  0.65560  Biso   1.000  H
  C101     1.0000 0.77995  0.14050  0.57995  Biso   1.000  C
  H70      1.0000 0.76130  0.13880  0.61750  Biso   1.000  H
  H71      1.0000 0.75750  0.20350  0.55750  Biso   1.000  H
  C102     1.0000 0.74342  0.04720  0.54003  Biso   1.000  C
  H72      1.0000 0.77210  0.04120  0.50750  Biso   1.000  H
  H73      1.0000 0.75700  0.98530  0.56550  Biso   1.000  H
  C103     1.0000 0.64627  0.05080  0.50999  Biso   1.000  C
  H74      1.0000 0.62920  0.99010  0.48370  Biso   1.000  H
  H75      1.0000 0.63240  0.11180  0.48370  Biso   1.000  H
  C104     1.0000 0.59549  0.05370  0.55711  Biso   1.000  C
  C105     1.0000 0.56448  0.14510  0.57382  Biso   1.000  C
  H76      1.0000 0.57310  0.20690  0.55500  Biso   1.000  H
  C106     1.0000 0.52039  0.14540  0.61866  Biso   1.000  C
  H77      1.0000 0.50030  0.20840  0.62930  Biso   1.000  H
  C107     1.0000 0.53477  0.97130  0.63025  Biso   1.000  C
  H78      1.0000 0.52440  0.91020  0.64910  Biso   1.000  H
  C108     1.0000 0.57966  0.96490  0.58640  Biso   1.000  C
  H79      1.0000 0.59920  0.90100  0.57660  Biso   1.000  H
  N16      1.0000 0.05756  0.14282  0.62298  Biso   1.000  N
  N17      1.0000 0.50535  0.05985  0.64721  Biso   1.000  N
  C109     1.0000 0.07885  0.21210  0.42994  Biso   1.000  C
  H80      1.0000 0.05360  0.20870  0.46240  Biso   1.000  H
  N18      1.0000 0.76004  0.34845  0.25179  Biso   1.000  N
  C110     1.0000 0.30707  0.74190  0.61020  Biso   1.000  C
  H81      1.0000 0.36520  0.75990  0.62360  Biso   1.000  H
  C111     1.0000 0.14766  0.46744  0.31849  Biso   1.000  C
  H82      1.0000 0.11350  0.45770  0.27790  Biso   1.000  H
  S9       1.0000 0.99913  0.22014  0.24779  Biso   1.000  S
  S10      1.0000 0.87532  0.20952  0.25105  Biso   1.000  S
  S11      1.0000 0.18109  0.48343  0.55930  Biso   1.000  S
  S12      1.0000 0.09441  0.48907  0.47386  Biso   1.000  S
  O19      1.0000 0.29991  0.20859  0.52621  Biso   1.000  O
  O20      1.0000 0.17624  0.21656  0.55137  Biso   1.000  O
  O21      1.0000 0.22022  0.99810  0.60562  Biso   1.000  O
  O22      1.0000 0.34786  0.94010  0.66390  Biso   1.000  O
  O23      1.0000 0.79856  0.70284  0.31160  Biso   1.000  O
  O24      1.0000 0.66674  0.63623  0.29089  Biso   1.000  O
  O25      1.0000 0.21884  0.43100  0.22477  Biso   1.000  O
  O26      1.0000 0.35241  0.43920  0.28499  Biso   1.000  O
  O27      1.0000 0.34247  0.18545  0.65113  Biso   1.000  O
  H83      1.0000 0.34780  0.18890  0.61450  Biso   1.000  H
  H84      1.0000 0.34800  0.24550  0.66750  Biso   1.000  H
  Mn7      1.0000 0.80005  0.64978  0.85910  Biso   1.000  Mn
  Mn8      1.0000 0.57817  0.56532  0.78664  Biso   1.000  Mn
  C112     1.0000 0.78042  0.71379  0.98724  Biso   1.000  C
  C113     1.0000 0.83244  0.71637  0.05470  Biso   1.000  C
  C114     1.0000 0.79464  0.72022  0.10343  Biso   1.000  C
  H85      1.0000 0.73490  0.72340  0.09540  Biso   1.000  H
  C115     1.0000 0.84714  0.71917  0.16373  Biso   1.000  C
  H86      1.0000 0.82350  0.72080  0.19710  Biso   1.000  H
  C116     1.0000 0.93562  0.71571  0.17353  Biso   1.000  C
  N19      1.0000 0.97391  0.71235  0.12794  Biso   1.000  N
  C117     1.0000 0.25390  0.12977  0.20403  Biso   1.000  C
  C118     1.0000 0.21800  0.02743  0.21702  Biso   1.000  C
  C119     1.0000 0.12962  0.01337  0.20462  Biso   1.000  C
  H87      1.0000 0.09240  0.06860  0.19000  Biso   1.000  H
  C120     1.0000 0.09686  0.91860  0.21384  Biso   1.000  C
  H88      1.0000 0.03760  0.90830  0.20530  Biso   1.000  H
  C121     1.0000 0.15431  0.83863  0.23611  Biso   1.000  C
  C122     1.0000 0.26963  0.94230  0.23809  Biso   1.000  C
  H89      1.0000 0.32900  0.95030  0.24580  Biso   1.000  H
  C123     1.0000 0.72662  0.42820  0.87241  Biso   1.000  C
  C124     1.0000 0.75334  0.31843  0.89140  Biso   1.000  C
  C125     1.0000 0.83929  0.28990  0.90960  Biso   1.000  C
  H90      1.0000 0.88200  0.33930  0.91170  Biso   1.000  H
  C126     1.0000 0.86152  0.18810  0.92456  Biso   1.000  C
  H91      1.0000 0.91900  0.16720  0.93520  Biso   1.000  H
  C127     1.0000 0.79687  0.11785  0.92339  Biso   1.000  C
  N20      1.0000 0.71299  0.14275  0.90647  Biso   1.000  N
  C128     1.0000 0.72739  0.94549  0.22464  Biso   1.000  C
  C129     1.0000 0.76389  0.97035  0.17134  Biso   1.000  C
  C130     1.0000 0.71411  0.99040  0.11169  Biso   1.000  C
  H92      1.0000 0.65450  0.99700  0.10320  Biso   1.000  H
  C131     1.0000 0.75350  0.00050  0.06455  Biso   1.000  C
  H93      1.0000 0.72120  0.01410  0.02390  Biso   1.000  H
  C132     1.0000 0.84150  0.98996  0.07946  Biso   1.000  C
  N21      1.0000 0.89219  0.97762  0.13711  Biso   1.000  N
  C133     1.0000 0.99016  0.72410  0.90289  Biso   1.000  C
  H94      1.0000 0.96220  0.78210  0.91260  Biso   1.000  H
  C134     1.0000 0.07841  0.72660  0.91596  Biso   1.000  C
  H95      1.0000 0.10850  0.78560  0.93390  Biso   1.000  H
  C135     1.0000 0.12263  0.64230  0.90268  Biso   1.000  C
  C136     1.0000 0.07308  0.55940  0.87463  Biso   1.000  C
  H96      1.0000 0.09950  0.50130  0.86350  Biso   1.000  H
  C137     1.0000 0.98481  0.56180  0.86294  Biso   1.000  C
  H97      1.0000 0.95320  0.50420  0.84440  Biso   1.000  H
  C138     1.0000 0.22005  0.64050  0.92005  Biso   1.000  C
  H98      1.0000 0.23870  0.63880  0.88250  Biso   1.000  H
  H99      1.0000 0.24250  0.70350  0.94250  Biso   1.000  H
  C139     1.0000 0.25658  0.54720  0.95997  Biso   1.000  C
  H100     1.0000 0.22790  0.54120  0.99250  Biso   1.000  H
  H101     1.0000 0.24300  0.48530  0.93450  Biso   1.000  H
  C140     1.0000 0.35373  0.55080  0.99001  Biso   1.000  C
  H102     1.0000 0.37080  0.49010  0.01630  Biso   1.000  H
  H103     1.0000 0.36760  0.61180  0.01630  Biso   1.000  H
  C141     1.0000 0.40451  0.55370  0.94289  Biso   1.000  C
  C142     1.0000 0.43552  0.64510  0.92618  Biso   1.000  C
  H104     1.0000 0.42690  0.70690  0.94500  Biso   1.000  H
  C143     1.0000 0.47961  0.64540  0.88134  Biso   1.000  C
  H105     1.0000 0.49970  0.70840  0.87070  Biso   1.000  H
  C144     1.0000 0.46523  0.47130  0.86975  Biso   1.000  C
  H106     1.0000 0.47560  0.41020  0.85090  Biso   1.000  H
  C145     1.0000 0.42034  0.46490  0.91360  Biso   1.000  C
  H107     1.0000 0.40080  0.40100  0.92340  Biso   1.000  H
  N22      1.0000 0.94244  0.64282  0.87702  Biso   1.000  N
  N23      1.0000 0.49465  0.55985  0.85279  Biso   1.000  N
  C146     1.0000 0.92115  0.71210  0.07006  Biso   1.000  C
  H108     1.0000 0.94640  0.70870  0.03760  Biso   1.000  H
  N24      1.0000 0.23996  0.84845  0.24821  Biso   1.000  N
  C147     1.0000 0.69293  0.24190  0.88980  Biso   1.000  C
  H109     1.0000 0.63480  0.25990  0.87640  Biso   1.000  H
  C148     1.0000 0.85234  0.96744  0.18151  Biso   1.000  C
  H110     1.0000 0.88650  0.95770  0.22210  Biso   1.000  H
  S13      1.0000 0.00087  0.72014  0.25221  Biso   1.000  S
  S14      1.0000 0.12468  0.70952  0.24895  Biso   1.000  S
  S15      1.0000 0.81891  0.98343  0.94070  Biso   1.000  S
  S16      1.0000 0.90559  0.98907  0.02614  Biso   1.000  S
  O28      1.0000 0.70009  0.70859  0.97379  Biso   1.000  O
  O29      1.0000 0.82376  0.71656  0.94863  Biso   1.000  O
  O30      1.0000 0.77978  0.49810  0.89438  Biso   1.000  O
  O31      1.0000 0.65214  0.44010  0.83610  Biso   1.000  O
  O32      1.0000 0.20144  0.20284  0.18840  Biso   1.000  O
  O33      1.0000 0.33326  0.13623  0.20911  Biso   1.000  O
  O34      1.0000 0.78116  0.93100  0.27523  Biso   1.000  O
  O35      1.0000 0.64759  0.93920  0.21501  Biso   1.000  O
  O36      1.0000 0.65753  0.68545  0.84887  Biso   1.000  O
  H111     1.0000 0.65220  0.68890  0.88550  Biso   1.000  H
  H112     1.0000 0.65200  0.74550  0.83250  Biso   1.000  H
