data_image0
_cell_length_a       9.691
_cell_length_b       14.157
_cell_length_c       16.055
_cell_angle_alpha    107.408
_cell_angle_beta     99.937
_cell_angle_gamma    104.264

_symmetry_space_group_name_H-M    "P 1"
_symmetry_int_tables_number       1

loop_
  _symmetry_equiv_pos_as_xyz
  'x, y, z'

loop_
  _atom_site_label
  _atom_site_occupancy
  _atom_site_fract_x
  _atom_site_fract_y
  _atom_site_fract_z
  _atom_site_thermal_displace_type
  _atom_site_B_iso_or_equiv
  _atom_site_type_symbol
  Zn1      1.0000 0.80800  0.90897  0.93976  Biso   1.000  Zn
  S1       1.0000 0.98870  0.48582  0.70239  Biso   1.000  S
  O1       1.0000 0.94870  0.85580  0.87650  Biso   1.000  O
  O2       1.0000 0.17450  0.95560  0.96440  Biso   1.000  O
  O3       1.0000 0.59750  0.83500  0.91660  Biso   1.000  O
  O4       1.0000 0.57070  0.70760  0.78870  Biso   1.000  O
  O5       1.0000 0.07610  0.41710  0.69370  Biso   1.000  O
  O6       1.0000 0.87920  0.46260  0.75060  Biso   1.000  O
  O7       1.0000 0.92470  0.49460  0.61750  Biso   1.000  O
  N1       1.0000 0.95630  0.75860  0.11520  Biso   1.000  N
  N2       1.0000 0.91340  0.82740  0.17450  Biso   1.000  N
  N3       1.0000 0.87310  0.84660  0.04010  Biso   1.000  N
  N4       1.0000 0.73730  0.01200  0.71800  Biso   1.000  N
  N5       1.0000 0.65770  0.06160  0.76600  Biso   1.000  N
  N6       1.0000 0.75890  0.97440  0.83980  Biso   1.000  N
  C1       1.0000 0.01250  0.59220  0.06730  Biso   1.000  C
  C2       1.0000 0.13150  0.58480  0.03240  Biso   1.000  C
  C3       1.0000 0.11860  0.48960  0.96500  Biso   1.000  C
  C4       1.0000 0.02660  0.68970  0.14530  Biso   1.000  C
  H1       1.0000 0.98140  0.66950  0.18940  Biso   1.000  H
  H2       1.0000 0.13040  0.72740  0.17480  Biso   1.000  H
  C5       1.0000 0.27210  0.67700  0.06310  Biso   1.000  C
  H3       1.0000 0.32750  0.68550  0.12200  Biso   1.000  H
  H4       1.0000 0.24710  0.73920  0.06590  Biso   1.000  H
  H5       1.0000 0.33050  0.66460  0.02090  Biso   1.000  H
  C6       1.0000 0.25160  0.47810  0.93080  Biso   1.000  C
  H6       1.0000 0.29870  0.54050  0.92110  Biso   1.000  H
  H7       1.0000 0.22060  0.41970  0.87480  Biso   1.000  H
  H8       1.0000 0.31990  0.46680  0.97480  Biso   1.000  H
  C7       1.0000 0.86420  0.87770  0.12580  Biso   1.000  C
  H9       1.0000 0.82600  0.93110  0.14900  Biso   1.000  H
  C8       1.0000 0.93360  0.77180  0.03690  Biso   1.000  C
  H10      1.0000 0.95680  0.73370  0.98620  Biso   1.000  H
  C9       1.0000 0.62310  0.01320  0.56680  Biso   1.000  C
  C10      1.0000 0.52710  0.91290  0.51430  Biso   1.000  C
  C11      1.0000 0.40470  0.89940  0.44580  Biso   1.000  C
  C12      1.0000 0.76230  0.02560  0.63400  Biso   1.000  C
  H11      1.0000 0.80750  0.97500  0.60570  Biso   1.000  H
  H12      1.0000 0.83130  0.09460  0.64910  Biso   1.000  H
  C13      1.0000 0.55230  0.81800  0.53120  Biso   1.000  C
  H13      1.0000 0.50010  0.80260  0.57370  Biso   1.000  H
  H14      1.0000 0.65600  0.83180  0.55540  Biso   1.000  H
  H15      1.0000 0.51680  0.75930  0.47520  Biso   1.000  H
  C14      1.0000 0.30800  0.78950  0.38580  Biso   1.000  C
  H16      1.0000 0.35570  0.76050  0.34140  Biso   1.000  H
  H17      1.0000 0.21450  0.79130  0.35580  Biso   1.000  H
  H18      1.0000 0.29250  0.74700  0.42220  Biso   1.000  H
  C15      1.0000 0.67270  0.03600  0.83750  Biso   1.000  C
  H19      1.0000 0.62800  0.05820  0.88330  Biso   1.000  H
  C16      1.0000 0.79610  0.96130  0.76290  Biso   1.000  C
  H20      1.0000 0.85580  0.92170  0.74320  Biso   1.000  H
  C17      1.0000 0.14730  0.79050  0.85920  Biso   1.000  C
  C18      1.0000 0.29860  0.81140  0.87200  Biso   1.000  C
  H21      1.0000 0.36210  0.87790  0.90790  Biso   1.000  H
  C19      1.0000 0.35590  0.73470  0.83210  Biso   1.000  C
  C20      1.0000 0.26160  0.63500  0.77960  Biso   1.000  C
  H22      1.0000 0.29920  0.58300  0.75180  Biso   1.000  H
  C21      1.0000 0.11140  0.61370  0.76900  Biso   1.000  C
  C22      1.0000 0.05370  0.69110  0.80680  Biso   1.000  C
  H23      1.0000 0.95200  0.67640  0.79700  Biso   1.000  H
  C23      1.0000 0.08590  0.87440  0.90360  Biso   1.000  C
  C24      1.0000 0.52080  0.75940  0.84540  Biso   1.000  C
  Zn2      1.0000 0.19200  0.09103  0.06024  Biso   1.000  Zn
  S2       1.0000 0.01130  0.51418  0.29761  Biso   1.000  S
  O8       1.0000 0.05130  0.14420  0.12350  Biso   1.000  O
  O9       1.0000 0.82550  0.04440  0.03560  Biso   1.000  O
  O10      1.0000 0.40250  0.16500  0.08340  Biso   1.000  O
  O11      1.0000 0.42930  0.29240  0.21130  Biso   1.000  O
  O12      1.0000 0.92390  0.58290  0.30630  Biso   1.000  O
  O13      1.0000 0.12080  0.53740  0.24940  Biso   1.000  O
  O14      1.0000 0.07530  0.50540  0.38250  Biso   1.000  O
  N7       1.0000 0.04370  0.24140  0.88480  Biso   1.000  N
  N8       1.0000 0.08660  0.17260  0.82550  Biso   1.000  N
  N9       1.0000 0.12690  0.15340  0.95990  Biso   1.000  N
  N10      1.0000 0.26270  0.98800  0.28200  Biso   1.000  N
  N11      1.0000 0.34230  0.93840  0.23400  Biso   1.000  N
  N12      1.0000 0.24110  0.02560  0.16020  Biso   1.000  N
  C25      1.0000 0.98750  0.40780  0.93270  Biso   1.000  C
  C26      1.0000 0.86850  0.41520  0.96760  Biso   1.000  C
  C27      1.0000 0.88140  0.51040  0.03500  Biso   1.000  C
  C28      1.0000 0.97340  0.31030  0.85470  Biso   1.000  C
  H24      1.0000 0.01860  0.33050  0.81060  Biso   1.000  H
  H25      1.0000 0.86960  0.27260  0.82520  Biso   1.000  H
  C29      1.0000 0.72790  0.32300  0.93690  Biso   1.000  C
  H26      1.0000 0.67250  0.31450  0.87800  Biso   1.000  H
  H27      1.0000 0.75290  0.26080  0.93410  Biso   1.000  H
  H28      1.0000 0.66950  0.33540  0.97910  Biso   1.000  H
  C30      1.0000 0.74840  0.52190  0.06920  Biso   1.000  C
  H29      1.0000 0.70130  0.45950  0.07890  Biso   1.000  H
  H30      1.0000 0.77940  0.58030  0.12520  Biso   1.000  H
  H31      1.0000 0.68010  0.53320  0.02520  Biso   1.000  H
  C31      1.0000 0.13580  0.12230  0.87420  Biso   1.000  C
  H32      1.0000 0.17400  0.06890  0.85100  Biso   1.000  H
  C32      1.0000 0.06640  0.22820  0.96310  Biso   1.000  C
  H33      1.0000 0.04320  0.26630  0.01380  Biso   1.000  H
  C33      1.0000 0.37690  0.98680  0.43320  Biso   1.000  C
  C34      1.0000 0.47290  0.08710  0.48570  Biso   1.000  C
  C35      1.0000 0.59530  0.10060  0.55420  Biso   1.000  C
  C36      1.0000 0.23770  0.97440  0.36600  Biso   1.000  C
  H34      1.0000 0.19250  0.02500  0.39430  Biso   1.000  H
  H35      1.0000 0.16870  0.90540  0.35090  Biso   1.000  H
  C37      1.0000 0.44770  0.18200  0.46880  Biso   1.000  C
  H36      1.0000 0.49990  0.19740  0.42630  Biso   1.000  H
  H37      1.0000 0.34400  0.16820  0.44460  Biso   1.000  H
  H38      1.0000 0.48320  0.24070  0.52480  Biso   1.000  H
  C38      1.0000 0.69200  0.21050  0.61420  Biso   1.000  C
  H39      1.0000 0.64430  0.23950  0.65860  Biso   1.000  H
  H40      1.0000 0.78550  0.20870  0.64420  Biso   1.000  H
  H41      1.0000 0.70750  0.25300  0.57780  Biso   1.000  H
  C39      1.0000 0.32730  0.96400  0.16250  Biso   1.000  C
  H42      1.0000 0.37200  0.94180  0.11670  Biso   1.000  H
  C40      1.0000 0.20390  0.03870  0.23710  Biso   1.000  C
  H43      1.0000 0.14420  0.07830  0.25680  Biso   1.000  H
  C41      1.0000 0.85270  0.20950  0.14080  Biso   1.000  C
  C42      1.0000 0.70140  0.18860  0.12800  Biso   1.000  C
  H44      1.0000 0.63790  0.12210  0.09210  Biso   1.000  H
  C43      1.0000 0.64410  0.26530  0.16790  Biso   1.000  C
  C44      1.0000 0.73840  0.36500  0.22040  Biso   1.000  C
  H45      1.0000 0.70080  0.41700  0.24820  Biso   1.000  H
  C45      1.0000 0.88860  0.38630  0.23100  Biso   1.000  C
  C46      1.0000 0.94630  0.30890  0.19320  Biso   1.000  C
  H46      1.0000 0.04800  0.32360  0.20300  Biso   1.000  H
  C47      1.0000 0.91410  0.12560  0.09640  Biso   1.000  C
  C48      1.0000 0.47920  0.24060  0.15460  Biso   1.000  C
