data_QIVBUT_clean
_audit_creation_date              2014-07-02
_audit_creation_method            'Materials Studio'
_symmetry_space_group_name_H-M    'P1'
_symmetry_Int_Tables_number       1
_symmetry_cell_setting            triclinic
loop_
_symmetry_equiv_pos_as_xyz
  x,y,z
_cell_length_a                    11.7000
_cell_length_b                    11.8310
_cell_length_c                    13.4900
_cell_angle_alpha                 90.0000
_cell_angle_beta                  90.0000
_cell_angle_gamma                 90.0000
loop_
_atom_site_label
_atom_site_type_symbol
_atom_site_fract_x
_atom_site_fract_y
_atom_site_fract_z
_atom_site_U_iso_or_equiv
_atom_site_adp_type
_atom_site_occupancy
Cd1    Cd    0.28255   0.00000   0.00000   0.01267  Uiso   1.00
Fe1    Fe    0.21276   0.00000   0.50000   0.01267  Uiso   1.00
H1     H     0.39850   0.10490   0.58030   0.01267  Uiso   1.00
H2     H     0.27590   0.22080   0.45950   0.01267  Uiso   1.00
H3     H     0.06470   0.17720   0.49230   0.01267  Uiso   1.00
H4     H     0.05640   0.04370   0.64490   0.01267  Uiso   1.00
H5     H     0.14450   0.77420   0.92100   0.01267  Uiso   1.00
H6     H     0.14170   0.58430   0.92560   0.01267  Uiso   1.00
H7     H     0.43640   0.58740   0.07280   0.01267  Uiso   1.00
H8     H     0.42720   0.78370   0.07210   0.01267  Uiso   1.00
H9     H     0.49920   0.90960   0.87740   0.01267  Uiso   1.00
H10    H     0.69840   0.91210   0.87450   0.01267  Uiso   1.00
H11    H     0.86920   0.92080   0.13170   0.01267  Uiso   1.00
H12    H     0.06750   0.92770   0.12970   0.01267  Uiso   1.00
H13    H     0.39850   0.89510   0.41970   0.01267  Uiso   1.00
H14    H     0.27590   0.77920   0.54050   0.01267  Uiso   1.00
H15    H     0.06470   0.82280   0.50770   0.01267  Uiso   1.00
H16    H     0.05640   0.95630   0.35510   0.01267  Uiso   1.00
H17    H     0.14450   0.22580   0.07900   0.01267  Uiso   1.00
H18    H     0.14170   0.41570   0.07440   0.01267  Uiso   1.00
H19    H     0.43640   0.41260   0.92720   0.01267  Uiso   1.00
H20    H     0.42720   0.21630   0.92790   0.01267  Uiso   1.00
H21    H     0.49920   0.09040   0.12260   0.01267  Uiso   1.00
H22    H     0.69840   0.08790   0.12550   0.01267  Uiso   1.00
H23    H     0.86920   0.07920   0.86830   0.01267  Uiso   1.00
H24    H     0.06750   0.07230   0.87030   0.01267  Uiso   1.00
C1     C     0.23930   0.04930   0.64070   0.01267  Uiso   1.00
C2     C     0.31490   0.10650   0.57750   0.01267  Uiso   1.00
C3     C     0.24660   0.17250   0.51280   0.01267  Uiso   1.00
C4     C     0.13010   0.14650   0.52880   0.01267  Uiso   1.00
C5     C     0.12560   0.07310   0.61310   0.01267  Uiso   1.00
C6     C     0.20330   0.73670   0.95370   0.01267  Uiso   1.00
C7     C     0.20160   0.62310   0.95550   0.01267  Uiso   1.00
C8     C     0.28820   0.56380   0.00140   0.01267  Uiso   1.00
C9     C     0.37480   0.62410   0.04330   0.01267  Uiso   1.00
C10    C     0.36940   0.74290   0.04110   0.01267  Uiso   1.00
C11    C     0.53910   0.94700   0.92720   0.01267  Uiso   1.00
C12    C     0.65910   0.05250   0.07420   0.01267  Uiso   1.00
C13    C     0.90720   0.95360   0.07840   0.01267  Uiso   1.00
C14    C     0.02670   0.95670   0.07620   0.01267  Uiso   1.00
C15    C     0.23930   0.95070   0.35930   0.01267  Uiso   1.00
C16    C     0.31490   0.89350   0.42250   0.01267  Uiso   1.00
C17    C     0.24660   0.82750   0.48720   0.01267  Uiso   1.00
C18    C     0.13010   0.85350   0.47120   0.01267  Uiso   1.00
C19    C     0.12560   0.92690   0.38690   0.01267  Uiso   1.00
C20    C     0.20330   0.26330   0.04630   0.01267  Uiso   1.00
C21    C     0.20160   0.37690   0.04450   0.01267  Uiso   1.00
C22    C     0.28820   0.43620   0.99860   0.01267  Uiso   1.00
C23    C     0.37480   0.37590   0.95670   0.01267  Uiso   1.00
C24    C     0.36940   0.25710   0.95890   0.01267  Uiso   1.00
C25    C     0.53910   0.05300   0.07280   0.01267  Uiso   1.00
C26    C     0.65910   0.94750   0.92580   0.01267  Uiso   1.00
C27    C     0.90720   0.04640   0.92160   0.01267  Uiso   1.00
C28    C     0.02670   0.04330   0.92380   0.01267  Uiso   1.00
C29    C     0.71780   0.00000   0.00000   0.01267  Uiso   1.00
C30    C     0.84560   0.00000   0.00000   0.01267  Uiso   1.00
S1     S     0.27840   0.96300   0.73989   0.01267  Uiso   1.00
S2     S     0.27840   0.03700   0.26011   0.01267  Uiso   1.00
N1     N     0.28610   0.79930   0.99700   0.01267  Uiso   1.00
N2     N     0.28610   0.20070   0.00300   0.01267  Uiso   1.00
N3     N     0.48100   0.00000   0.00000   0.01267  Uiso   1.00
N4     N     0.08370   0.00000   0.00000   0.01267  Uiso   1.00
O1     O     0.28370   0.03350   0.82730   0.01267  Uiso   1.00
O2     O     0.38950   0.91560   0.71550   0.01267  Uiso   1.00
O3     O     0.18810   0.87810   0.74960   0.01267  Uiso   1.00
O4     O     0.28370   0.96650   0.17270   0.01267  Uiso   1.00
O5     O     0.38950   0.08440   0.28450   0.01267  Uiso   1.00
O6     O     0.18810   0.12190   0.25040   0.01267  Uiso   1.00
Cd2    Cd    0.71745   0.50000   0.50000   0.01267  Uiso   1.00
Fe2    Fe    0.78724   0.50000   0.00000   0.01267  Uiso   1.00
H25    H     0.60150   0.39510   0.08030   0.01267  Uiso   1.00
H26    H     0.72410   0.27920   0.95950   0.01267  Uiso   1.00
H27    H     0.93530   0.32280   0.99230   0.01267  Uiso   1.00
H28    H     0.94360   0.45630   0.14490   0.01267  Uiso   1.00
H29    H     0.85550   0.72580   0.42100   0.01267  Uiso   1.00
H30    H     0.85830   0.91570   0.42560   0.01267  Uiso   1.00
H31    H     0.56360   0.91260   0.57280   0.01267  Uiso   1.00
H32    H     0.57280   0.71630   0.57210   0.01267  Uiso   1.00
H33    H     0.50080   0.59040   0.37740   0.01267  Uiso   1.00
H34    H     0.30160   0.58790   0.37450   0.01267  Uiso   1.00
H35    H     0.13080   0.57920   0.63170   0.01267  Uiso   1.00
H36    H     0.93250   0.57230   0.62970   0.01267  Uiso   1.00
H37    H     0.60150   0.60490   0.91970   0.01267  Uiso   1.00
H38    H     0.72410   0.72080   0.04050   0.01267  Uiso   1.00
H39    H     0.93530   0.67720   0.00770   0.01267  Uiso   1.00
H40    H     0.94360   0.54370   0.85510   0.01267  Uiso   1.00
H41    H     0.85550   0.27420   0.57900   0.01267  Uiso   1.00
H42    H     0.85830   0.08430   0.57440   0.01267  Uiso   1.00
H43    H     0.56360   0.08740   0.42720   0.01267  Uiso   1.00
H44    H     0.57280   0.28370   0.42790   0.01267  Uiso   1.00
H45    H     0.50080   0.40960   0.62260   0.01267  Uiso   1.00
H46    H     0.30160   0.41210   0.62550   0.01267  Uiso   1.00
H47    H     0.13080   0.42080   0.36830   0.01267  Uiso   1.00
H48    H     0.93250   0.42770   0.37030   0.01267  Uiso   1.00
C31    C     0.76070   0.45070   0.14070   0.01267  Uiso   1.00
C32    C     0.68510   0.39350   0.07750   0.01267  Uiso   1.00
C33    C     0.75340   0.32750   0.01280   0.01267  Uiso   1.00
C34    C     0.86990   0.35350   0.02880   0.01267  Uiso   1.00
C35    C     0.87440   0.42690   0.11310   0.01267  Uiso   1.00
C36    C     0.79670   0.76330   0.45370   0.01267  Uiso   1.00
C37    C     0.79840   0.87690   0.45550   0.01267  Uiso   1.00
C38    C     0.71180   0.93620   0.50140   0.01267  Uiso   1.00
C39    C     0.62520   0.87590   0.54330   0.01267  Uiso   1.00
C40    C     0.63060   0.75710   0.54110   0.01267  Uiso   1.00
C41    C     0.46090   0.55300   0.42720   0.01267  Uiso   1.00
C42    C     0.34090   0.44750   0.57420   0.01267  Uiso   1.00
C43    C     0.09280   0.54640   0.57840   0.01267  Uiso   1.00
C44    C     0.97330   0.54330   0.57620   0.01267  Uiso   1.00
C45    C     0.76070   0.54930   0.85930   0.01267  Uiso   1.00
C46    C     0.68510   0.60650   0.92250   0.01267  Uiso   1.00
C47    C     0.75340   0.67250   0.98720   0.01267  Uiso   1.00
C48    C     0.86990   0.64650   0.97120   0.01267  Uiso   1.00
C49    C     0.87440   0.57310   0.88690   0.01267  Uiso   1.00
C50    C     0.79670   0.23670   0.54630   0.01267  Uiso   1.00
C51    C     0.79840   0.12310   0.54450   0.01267  Uiso   1.00
C52    C     0.71180   0.06380   0.49860   0.01267  Uiso   1.00
C53    C     0.62520   0.12410   0.45670   0.01267  Uiso   1.00
C54    C     0.63060   0.24290   0.45890   0.01267  Uiso   1.00
C55    C     0.46090   0.44700   0.57280   0.01267  Uiso   1.00
C56    C     0.34090   0.55250   0.42580   0.01267  Uiso   1.00
C57    C     0.09280   0.45360   0.42160   0.01267  Uiso   1.00
C58    C     0.97330   0.45670   0.42380   0.01267  Uiso   1.00
C59    C     0.28220   0.50000   0.50000   0.01267  Uiso   1.00
C60    C     0.15440   0.50000   0.50000   0.01267  Uiso   1.00
S3     S     0.72160   0.53700   0.23989   0.01267  Uiso   1.00
S4     S     0.72160   0.46300   0.76011   0.01267  Uiso   1.00
N5     N     0.71390   0.70070   0.49700   0.01267  Uiso   1.00
N6     N     0.71390   0.29930   0.50300   0.01267  Uiso   1.00
N7     N     0.51900   0.50000   0.50000   0.01267  Uiso   1.00
N8     N     0.91630   0.50000   0.50000   0.01267  Uiso   1.00
O7     O     0.71630   0.46650   0.32730   0.01267  Uiso   1.00
O8     O     0.61050   0.58440   0.21550   0.01267  Uiso   1.00
O9     O     0.81190   0.62190   0.24960   0.01267  Uiso   1.00
O10    O     0.71630   0.53350   0.67270   0.01267  Uiso   1.00
O11    O     0.61050   0.41560   0.78450   0.01267  Uiso   1.00
O12    O     0.81190   0.37810   0.75040   0.01267  Uiso   1.00
