data_image0
_cell_length_a       11.343
_cell_length_b       14.311
_cell_length_c       16.928
_cell_angle_alpha    90
_cell_angle_beta     104.14
_cell_angle_gamma    90

_symmetry_space_group_name_H-M    "P 1"
_symmetry_int_tables_number       1

loop_
  _symmetry_equiv_pos_as_xyz
  'x, y, z'

loop_
  _atom_site_label
  _atom_site_occupancy
  _atom_site_fract_x
  _atom_site_fract_y
  _atom_site_fract_z
  _atom_site_thermal_displace_type
  _atom_site_B_iso_or_equiv
  _atom_site_type_symbol
  Cr1      1.0000 0.08520  0.88354  0.82268  Biso   1.000  Cr
  Mn1      1.0000 0.31673  0.90710  0.14258  Biso   1.000  Mn
  O1       1.0000 0.15745  0.79883  0.91432  Biso   1.000  O
  O2       1.0000 0.16242  0.98135  0.90111  Biso   1.000  O
  O3       1.0000 0.23578  0.87850  0.78450  Biso   1.000  O
  O4       1.0000 0.03844  0.97886  0.73632  Biso   1.000  O
  O5       1.0000 0.93492  0.88652  0.85939  Biso   1.000  O
  O6       1.0000 0.00299  0.78010  0.75513  Biso   1.000  O
  O7       1.0000 0.25341  0.80673  0.04577  Biso   1.000  O
  O8       1.0000 0.26707  0.99482  0.02986  Biso   1.000  O
  O9       1.0000 0.33494  0.96458  0.71234  Biso   1.000  O
  O10      1.0000 0.12974  0.07015  0.66144  Biso   1.000  O
  O11      1.0000 0.78623  0.78852  0.86848  Biso   1.000  O
  O12      1.0000 0.83452  0.69352  0.73779  Biso   1.000  O
  C1       1.0000 0.20840  0.84151  0.97916  Biso   1.000  C
  C2       1.0000 0.21400  0.94894  0.97076  Biso   1.000  C
  C3       1.0000 0.24390  0.94495  0.73687  Biso   1.000  C
  C4       1.0000 0.12760  0.00379  0.70799  Biso   1.000  C
  C5       1.0000 0.86880  0.81368  0.83929  Biso   1.000  C
  C6       1.0000 0.90350  0.75604  0.77120  Biso   1.000  C
  Cr2      1.0000 0.58520  0.38354  0.82268  Biso   1.000  Cr
  Mn2      1.0000 0.81673  0.40710  0.14258  Biso   1.000  Mn
  O13      1.0000 0.65745  0.29883  0.91432  Biso   1.000  O
  O14      1.0000 0.66242  0.48135  0.90111  Biso   1.000  O
  O15      1.0000 0.73578  0.37850  0.78450  Biso   1.000  O
  O16      1.0000 0.53844  0.47886  0.73632  Biso   1.000  O
  O17      1.0000 0.43492  0.38652  0.85939  Biso   1.000  O
  O18      1.0000 0.50299  0.28010  0.75513  Biso   1.000  O
  O19      1.0000 0.75341  0.30673  0.04577  Biso   1.000  O
  O20      1.0000 0.76707  0.49482  0.02986  Biso   1.000  O
  O21      1.0000 0.83494  0.46458  0.71234  Biso   1.000  O
  O22      1.0000 0.62974  0.57015  0.66144  Biso   1.000  O
  O23      1.0000 0.28623  0.28852  0.86848  Biso   1.000  O
  O24      1.0000 0.33452  0.19352  0.73779  Biso   1.000  O
  C7       1.0000 0.70840  0.34151  0.97916  Biso   1.000  C
  C8       1.0000 0.71400  0.44894  0.97076  Biso   1.000  C
  C9       1.0000 0.74390  0.44495  0.73687  Biso   1.000  C
  C10      1.0000 0.62760  0.50379  0.70799  Biso   1.000  C
  C11      1.0000 0.36880  0.31368  0.83929  Biso   1.000  C
  C12      1.0000 0.40350  0.25604  0.77120  Biso   1.000  C
  Cr3      1.0000 0.08520  0.11646  0.32268  Biso   1.000  Cr
  Mn3      1.0000 0.31673  0.09290  0.64258  Biso   1.000  Mn
  O25      1.0000 0.15745  0.20117  0.41432  Biso   1.000  O
  O26      1.0000 0.16242  0.01865  0.40111  Biso   1.000  O
  O27      1.0000 0.23578  0.12150  0.28450  Biso   1.000  O
  O28      1.0000 0.03844  0.02114  0.23632  Biso   1.000  O
  O29      1.0000 0.93492  0.11348  0.35939  Biso   1.000  O
  O30      1.0000 0.00299  0.21990  0.25513  Biso   1.000  O
  O31      1.0000 0.25341  0.19327  0.54577  Biso   1.000  O
  O32      1.0000 0.26707  0.00518  0.52986  Biso   1.000  O
  O33      1.0000 0.33494  0.03542  0.21234  Biso   1.000  O
  O34      1.0000 0.12974  0.92985  0.16144  Biso   1.000  O
  O35      1.0000 0.78623  0.21148  0.36848  Biso   1.000  O
  O36      1.0000 0.83452  0.30648  0.23779  Biso   1.000  O
  C13      1.0000 0.20840  0.15849  0.47916  Biso   1.000  C
  C14      1.0000 0.21400  0.05106  0.47076  Biso   1.000  C
  C15      1.0000 0.24390  0.05505  0.23687  Biso   1.000  C
  C16      1.0000 0.12760  0.99621  0.20799  Biso   1.000  C
  C17      1.0000 0.86880  0.18632  0.33929  Biso   1.000  C
  C18      1.0000 0.90350  0.24396  0.27120  Biso   1.000  C
  Cr4      1.0000 0.58520  0.61646  0.32268  Biso   1.000  Cr
  Mn4      1.0000 0.81673  0.59290  0.64258  Biso   1.000  Mn
  O37      1.0000 0.65745  0.70117  0.41432  Biso   1.000  O
  O38      1.0000 0.66242  0.51865  0.40111  Biso   1.000  O
  O39      1.0000 0.73578  0.62150  0.28450  Biso   1.000  O
  O40      1.0000 0.53844  0.52114  0.23632  Biso   1.000  O
  O41      1.0000 0.43492  0.61348  0.35939  Biso   1.000  O
  O42      1.0000 0.50299  0.71990  0.25513  Biso   1.000  O
  O43      1.0000 0.75341  0.69327  0.54577  Biso   1.000  O
  O44      1.0000 0.76707  0.50518  0.52986  Biso   1.000  O
  O45      1.0000 0.83494  0.53542  0.21234  Biso   1.000  O
  O46      1.0000 0.62974  0.42985  0.16144  Biso   1.000  O
  O47      1.0000 0.28623  0.71148  0.36848  Biso   1.000  O
  O48      1.0000 0.33452  0.80648  0.23779  Biso   1.000  O
  C19      1.0000 0.70840  0.65849  0.47916  Biso   1.000  C
  C20      1.0000 0.71400  0.55106  0.47076  Biso   1.000  C
  C21      1.0000 0.74390  0.55505  0.23687  Biso   1.000  C
  C22      1.0000 0.62760  0.49621  0.20799  Biso   1.000  C
  C23      1.0000 0.36880  0.68632  0.33929  Biso   1.000  C
  C24      1.0000 0.40350  0.74396  0.27120  Biso   1.000  C
