data_image0
_cell_length_a       10.7575
_cell_length_b       15.318
_cell_length_c       29.3906
_cell_angle_alpha    81.112
_cell_angle_beta     87.711
_cell_angle_gamma    84.536

_symmetry_space_group_name_H-M    "P 1"
_symmetry_int_tables_number       1

loop_
  _symmetry_equiv_pos_as_xyz
  'x, y, z'

loop_
  _atom_site_label
  _atom_site_occupancy
  _atom_site_fract_x
  _atom_site_fract_y
  _atom_site_fract_z
  _atom_site_thermal_displace_type
  _atom_site_B_iso_or_equiv
  _atom_site_type_symbol
  Zn1      1.0000 0.27361  0.64965  0.69180  Biso   1.000  Zn
  Zn2      1.0000 0.30113  0.87076  0.17906  Biso   1.000  Zn
  Zn3      1.0000 0.20491  0.14310  0.19025  Biso   1.000  Zn
  Zn4      1.0000 0.23574  0.39167  0.68358  Biso   1.000  Zn
  N1       1.0000 0.19010  0.09368  0.26199  Biso   1.000  N
  N2       1.0000 0.24560  0.60058  0.76373  Biso   1.000  N
  N3       1.0000 0.28720  0.70377  0.61896  Biso   1.000  N
  N4       1.0000 0.27610  0.81712  0.25016  Biso   1.000  N
  N5       1.0000 0.21690  0.33340  0.75476  Biso   1.000  N
  N6       1.0000 0.26000  0.44175  0.61158  Biso   1.000  N
  O1       1.0000 0.30990  0.26608  0.20332  Biso   1.000  O
  O2       1.0000 0.18990  0.79567  0.69770  Biso   1.000  O
  O3       1.0000 0.41080  0.75120  0.16935  Biso   1.000  O
  O4       1.0000 0.41003  0.41831  0.69598  Biso   1.000  O
  N7       1.0000 0.25630  0.10749  0.95382  Biso   1.000  N
  O5       1.0000 0.36720  0.06957  0.18156  Biso   1.000  O
  O6       1.0000 0.05136  0.08478  0.17797  Biso   1.000  O
  O7       1.0000 0.14800  0.28671  0.66787  Biso   1.000  O
  O8       1.0000 0.42351  0.56508  0.68172  Biso   1.000  O
  O9       1.0000 0.20900  0.74303  0.16594  Biso   1.000  O
  O10      1.0000 0.34810  0.24194  0.67309  Biso   1.000  O
  O11      1.0000 0.08140  0.47568  0.69245  Biso   1.000  O
  O12      1.0000 0.10720  0.26647  0.19679  Biso   1.000  O
  O13      1.0000 0.09825  0.62212  0.68110  Biso   1.000  O
  O14      1.0000 0.13140  0.94335  0.18750  Biso   1.000  O
  N8       1.0000 0.26770  0.14849  0.90886  Biso   1.000  N
  N9       1.0000 0.23220  0.19785  0.11788  Biso   1.000  N
  N10      1.0000 0.29870  0.92099  0.10685  Biso   1.000  N
  N11      1.0000 0.28670  0.61496  0.45531  Biso   1.000  N
  N12      1.0000 0.21480  0.87680  0.46307  Biso   1.000  N
  C1       1.0000 0.18470  0.23920  0.84347  Biso   1.000  C
  C2       1.0000 0.30410  0.78360  0.52647  Biso   1.000  C
  N13      1.0000 0.30850  0.64938  0.40952  Biso   1.000  N
  O15      1.0000 0.38790  0.74778  0.70463  Biso   1.000  O
  C3       1.0000 0.15670  0.01900  0.35455  Biso   1.000  C
  O16      1.0000 0.45327  0.93063  0.19170  Biso   1.000  O
  C4       1.0000 0.18420  0.52810  0.85444  Biso   1.000  C
  C5       1.0000 0.30280  0.24600  0.82284  Biso   1.000  C
  H1       1.0000 0.37320  0.21870  0.83840  Biso   1.000  H
  C6       1.0000 0.13890  0.75670  0.31031  Biso   1.000  C
  H2       1.0000 0.05820  0.74380  0.31970  Biso   1.000  H
  C7       1.0000 0.16860  0.18830  0.89007  Biso   1.000  C
  C8       1.0000 0.16320  0.79590  0.26614  Biso   1.000  C
  H3       1.0000 0.09710  0.80850  0.24600  Biso   1.000  H
  C9       1.0000 0.31790  0.70700  0.16803  Biso   1.000  C
  C10      1.0000 0.23680  0.73630  0.34121  Biso   1.000  C
  N14      1.0000 0.19210  0.37550  0.96110  Biso   1.000  N
  N15      1.0000 0.22810  0.91690  0.41711  Biso   1.000  N
  C11      1.0000 0.31280  0.82730  0.47765  Biso   1.000  C
  C12      1.0000 0.81160  0.02430  0.19312  Biso   1.000  C
  H4       1.0000 0.81830  0.08420  0.19380  Biso   1.000  H
  C13      1.0000 0.21440  0.69310  0.38896  Biso   1.000  C
  C14      1.0000 0.91550  0.97130  0.19096  Biso   1.000  C
  H5       1.0000 0.90830  0.91080  0.19300  Biso   1.000  H
  C15      1.0000 0.37060  0.79775  0.27955  Biso   1.000  C
  H6       1.0000 0.45010  0.81170  0.26910  Biso   1.000  H
  C16      1.0000 0.68520  0.53150  0.69163  Biso   1.000  C
  C17      1.0000 0.81990  0.51250  0.69236  Biso   1.000  C
  H7       1.0000 0.85210  0.45360  0.69370  Biso   1.000  H
  C18      1.0000 0.31480  0.29330  0.77937  Biso   1.000  C
  H8       1.0000 0.39460  0.29780  0.76630  Biso   1.000  H
  C19      1.0000 0.33680  0.90240  0.69681  Biso   1.000  C
  H9       1.0000 0.41950  0.91060  0.70180  Biso   1.000  H
  N16      1.0000 0.21830  0.41520  0.91632  Biso   1.000  N
  C20      1.0000 0.58270  0.04660  0.19139  Biso   1.000  C
  H10      1.0000 0.58640  0.10700  0.19110  Biso   1.000  H
  C21      1.0000 0.28460  0.32280  0.97832  Biso   1.000  C
  C22      1.0000 0.35500  0.75790  0.32472  Biso   1.000  C
  H11      1.0000 0.42300  0.74560  0.34400  Biso   1.000  H
  C23      1.0000 0.40560  0.30470  0.95345  Biso   1.000  C
  H12      1.0000 0.39170  0.31060  0.92100  Biso   1.000  H
  H13      1.0000 0.44060  0.24560  0.96440  Biso   1.000  H
  H14      1.0000 0.46250  0.34640  0.95890  Biso   1.000  H
  C24      1.0000 0.15250  0.48700  0.90219  Biso   1.000  C
  C25      1.0000 0.08260  0.28170  0.81818  Biso   1.000  C
  H15      1.0000 0.00180  0.27930  0.83060  Biso   1.000  H
  C26      1.0000 0.30080  0.81070  0.70023  Biso   1.000  C
  C27      1.0000 0.14060  0.97710  0.40309  Biso   1.000  C
  C28      1.0000 0.34590  0.20810  0.09906  Biso   1.000  C
  H16      1.0000 0.41490  0.18860  0.11720  Biso   1.000  H
  C29      1.0000 0.10340  0.32670  0.77488  Biso   1.000  C
  H17      1.0000 0.03460  0.35430  0.75850  Biso   1.000  H
  C30      1.0000 0.68820  0.99400  0.19451  Biso   1.000  C
  H18      1.0000 0.68230  0.93310  0.19780  Biso   1.000  H
  C31      1.0000 0.26550  0.27880  0.02624  Biso   1.000  C
  C32      1.0000 0.07650  0.08820  0.33355  Biso   1.000  C
  H19      1.0000 0.00910  0.11120  0.35020  Biso   1.000  H
  C33      1.0000 0.27450  0.48660  0.82856  Biso   1.000  C
  H20      1.0000 0.31640  0.43300  0.84110  Biso   1.000  H
  C34      1.0000 0.90010  0.57360  0.69118  Biso   1.000  C
  H21      1.0000 0.86780  0.63180  0.69200  Biso   1.000  H
  C35      1.0000 0.04260  0.00170  0.18548  Biso   1.000  C
  C36      1.0000 0.20300  0.30630  0.19910  Biso   1.000  C
  C37      1.0000 0.60740  0.46870  0.69246  Biso   1.000  C
  C38      1.0000 0.25680  0.97300  0.68702  Biso   1.000  C
  H22      1.0000 0.17420  0.96350  0.68290  Biso   1.000  H
  C39      1.0000 0.30450  0.98980  0.01242  Biso   1.000  C
  C40      1.0000 0.20650  0.54240  0.54349  Biso   1.000  C
  H23      1.0000 0.15740  0.59230  0.53010  Biso   1.000  H
  C41      1.0000 0.30260  0.52400  0.78443  Biso   1.000  C
  H24      1.0000 0.36440  0.49460  0.76790  Biso   1.000  H
  C42      1.0000 0.03730  0.55510  0.68861  Biso   1.000  C
  C43      1.0000 0.29300  0.49970  0.51708  Biso   1.000  C
  C44      1.0000 0.31070  0.53190  0.46731  Biso   1.000  C
  C45      1.0000 0.36620  0.24610  0.05419  Biso   1.000  C
  H25      1.0000 0.44740  0.25000  0.04250  Biso   1.000  H
  C46      1.0000 0.13510  0.22800  0.09088  Biso   1.000  C
  H26      1.0000 0.05500  0.22120  0.10320  Biso   1.000  H
  C47      1.0000 0.23710  0.22640  0.67032  Biso   1.000  C
  C48      1.0000 0.40820  0.74100  0.54997  Biso   1.000  C
  H27      1.0000 0.48600  0.73810  0.53500  Biso   1.000  H
  C49      1.0000 0.19160  0.78420  0.55093  Biso   1.000  C
  H28      1.0000 0.11930  0.81200  0.53680  Biso   1.000  H
  C50      1.0000 0.46890  0.48620  0.68973  Biso   1.000  C
  C51      1.0000 0.22880  0.02860  0.04372  Biso   1.000  C
  H29      1.0000 0.17660  0.07940  0.03380  Biso   1.000  H
  C52      1.0000 0.28730  0.06390  0.68221  Biso   1.000  C
  H30      1.0000 0.37000  0.07390  0.68590  Biso   1.000  H
  C53      1.0000 0.09660  0.12330  0.28782  Biso   1.000  C
  H31      1.0000 0.04160  0.17000  0.27460  Biso   1.000  H
  C54      1.0000 0.18640  0.74400  0.59597  Biso   1.000  C
  H32      1.0000 0.10930  0.74460  0.61140  Biso   1.000  H
  C55      1.0000 0.45870  0.01280  0.18828  Biso   1.000  C
  C56      1.0000 0.25740  0.55400  0.17994  Biso   1.000  C
  H33      1.0000 0.17510  0.57860  0.18120  Biso   1.000  H
  C57      1.0000 0.39560  0.70310  0.59548  Biso   1.000  C
  H34      1.0000 0.46660  0.67560  0.61050  Biso   1.000  H
  C58      1.0000 0.43140  0.81180  0.45039  Biso   1.000  C
  H35      1.0000 0.41680  0.83140  0.41830  Biso   1.000  H
  H36      1.0000 0.45880  0.74960  0.45510  Biso   1.000  H
  H37      1.0000 0.49460  0.84430  0.46030  Biso   1.000  H
  C59      1.0000 0.14740  0.26850  0.04601  Biso   1.000  C
  H38      1.0000 0.07680  0.28900  0.02890  Biso   1.000  H
  C60      1.0000 0.08560  0.70280  0.41014  Biso   1.000  C
  H39      1.0000 0.03700  0.65860  0.40170  Biso   1.000  H
  H40      1.0000 0.04630  0.76080  0.39930  Biso   1.000  H
  H41      1.0000 0.09090  0.69510  0.44310  Biso   1.000  H
  C61      1.0000 0.27730  0.45780  0.18673  Biso   1.000  C
  H42      1.0000 0.35900  0.43200  0.18550  Biso   1.000  H
  C62      1.0000 0.30870  0.02910  0.96310  Biso   1.000  C
  C63      1.0000 0.12740  0.60800  0.83328  Biso   1.000  C
  H43      1.0000 0.06720  0.63970  0.84940  Biso   1.000  H
  C64      1.0000 0.18700  0.40510  0.19446  Biso   1.000  C
  H44      1.0000 0.10620  0.43160  0.19730  Biso   1.000  H
  C65      1.0000 0.34410  0.60920  0.17226  Biso   1.000  C
  H45      1.0000 0.42650  0.58600  0.16930  Biso   1.000  H
  C66      1.0000 0.15910  0.64100  0.78866  Biso   1.000  C
  H46      1.0000 0.11800  0.69440  0.77520  Biso   1.000  H
  C67      1.0000 0.25520  0.98860  0.32751  Biso   1.000  C
  H47      1.0000 0.31220  0.94240  0.33990  Biso   1.000  H
  C68      1.0000 0.26840  0.02680  0.28254  Biso   1.000  C
  H48      1.0000 0.33530  0.00530  0.26520  Biso   1.000  H
  C69      1.0000 0.05380  0.53150  0.92972  Biso   1.000  C
  H49      1.0000 0.07910  0.58750  0.93490  Biso   1.000  H
  H50      1.0000 0.04130  0.49480  0.95880  Biso   1.000  H
  H51      1.0000 0.97720  0.54110  0.91330  Biso   1.000  H
  C70      1.0000 0.22940  0.99340  0.08950  Biso   1.000  C
  H52      1.0000 0.17770  0.02230  0.10970  Biso   1.000  H
  C71      1.0000 0.04210  0.18620  0.91242  Biso   1.000  C
  H53      1.0000 0.99490  0.14710  0.89890  Biso   1.000  H
  H54      1.0000 0.99990  0.24490  0.90800  Biso   1.000  H
  H55      1.0000 0.04980  0.16540  0.94480  Biso   1.000  H
  C72      1.0000 0.20550  0.13340  0.67288  Biso   1.000  C
  H56      1.0000 0.12360  0.12380  0.66760  Biso   1.000  H
  C73      1.0000 0.19210  0.51160  0.58963  Biso   1.000  C
  H57      1.0000 0.13140  0.54130  0.60650  Biso   1.000  H
  C74      1.0000 0.37170  0.88230  0.07702  Biso   1.000  C
  H58      1.0000 0.42250  0.83150  0.08800  Biso   1.000  H
  C75      1.0000 0.03230  0.00770  0.43133  Biso   1.000  C
  H59      1.0000 0.04020  0.06750  0.43610  Biso   1.000  H
  H60      1.0000 0.03040  0.96980  0.46060  Biso   1.000  H
  H61      1.0000 0.95640  0.00560  0.41560  Biso   1.000  H
  C76      1.0000 0.35320  0.46900  0.43490  Biso   1.000  C
  H62      1.0000 0.28390  0.43880  0.42780  Biso   1.000  H
  H63      1.0000 0.41710  0.42640  0.44890  Biso   1.000  H
  H64      1.0000 0.38610  0.50110  0.40710  Biso   1.000  H
  C77      1.0000 0.37360  0.97830  0.92798  Biso   1.000  C
  H65      1.0000 0.31910  0.93760  0.91960  Biso   1.000  H
  H66      1.0000 0.44820  0.94590  0.94070  Biso   1.000  H
  H67      1.0000 0.39500  0.01880  0.90120  Biso   1.000  H
  C78      1.0000 0.37610  0.91370  0.03045  Biso   1.000  C
  H68      1.0000 0.42790  0.88320  0.01100  Biso   1.000  H
  C79      1.0000 0.36410  0.42730  0.54006  Biso   1.000  C
  H69      1.0000 0.42490  0.39600  0.52400  Biso   1.000  H
  C80      1.0000 0.34480  0.40160  0.58655  Biso   1.000  C
  H70      1.0000 0.39450  0.35310  0.60110  Biso   1.000  H
  H71      1.0000 0.65500  0.59400  0.69120  Biso   1.000  H
  H72      1.0000 0.63800  0.40600  0.69450  Biso   1.000  H
  Zn5      1.0000 0.72639  0.35035  0.30820  Biso   1.000  Zn
  Zn6      1.0000 0.69887  0.12924  0.82094  Biso   1.000  Zn
  Zn7      1.0000 0.79509  0.85690  0.80975  Biso   1.000  Zn
  Zn8      1.0000 0.76426  0.60833  0.31642  Biso   1.000  Zn
  N17      1.0000 0.80990  0.90632  0.73801  Biso   1.000  N
  N18      1.0000 0.75440  0.39942  0.23627  Biso   1.000  N
  N19      1.0000 0.71280  0.29623  0.38104  Biso   1.000  N
  N20      1.0000 0.72390  0.18288  0.74984  Biso   1.000  N
  N21      1.0000 0.78310  0.66660  0.24524  Biso   1.000  N
  N22      1.0000 0.74000  0.55825  0.38842  Biso   1.000  N
  O17      1.0000 0.69010  0.73392  0.79668  Biso   1.000  O
  O18      1.0000 0.81010  0.20433  0.30230  Biso   1.000  O
  O19      1.0000 0.58920  0.24880  0.83065  Biso   1.000  O
  O20      1.0000 0.58997  0.58169  0.30402  Biso   1.000  O
  N23      1.0000 0.74370  0.89251  0.04618  Biso   1.000  N
  O21      1.0000 0.63280  0.93043  0.81844  Biso   1.000  O
  O22      1.0000 0.94864  0.91522  0.82203  Biso   1.000  O
  O23      1.0000 0.85200  0.71329  0.33213  Biso   1.000  O
  O24      1.0000 0.57649  0.43492  0.31828  Biso   1.000  O
  O25      1.0000 0.79100  0.25697  0.83406  Biso   1.000  O
  O26      1.0000 0.65190  0.75806  0.32691  Biso   1.000  O
  O27      1.0000 0.91860  0.52432  0.30755  Biso   1.000  O
  O28      1.0000 0.89280  0.73353  0.80321  Biso   1.000  O
  O29      1.0000 0.90175  0.37788  0.31890  Biso   1.000  O
  O30      1.0000 0.86860  0.05665  0.81250  Biso   1.000  O
  N24      1.0000 0.73230  0.85151  0.09114  Biso   1.000  N
  N25      1.0000 0.76780  0.80215  0.88212  Biso   1.000  N
  N26      1.0000 0.70130  0.07901  0.89315  Biso   1.000  N
  N27      1.0000 0.71330  0.38504  0.54469  Biso   1.000  N
  N28      1.0000 0.78520  0.12320  0.53693  Biso   1.000  N
  C81      1.0000 0.81530  0.76080  0.15653  Biso   1.000  C
  C82      1.0000 0.69590  0.21640  0.47353  Biso   1.000  C
  N29      1.0000 0.69150  0.35062  0.59048  Biso   1.000  N
  O31      1.0000 0.61210  0.25222  0.29537  Biso   1.000  O
  C83      1.0000 0.84330  0.98100  0.64545  Biso   1.000  C
  O32      1.0000 0.54673  0.06937  0.80830  Biso   1.000  O
  C84      1.0000 0.81580  0.47190  0.14556  Biso   1.000  C
  C85      1.0000 0.69720  0.75400  0.17716  Biso   1.000  C
  H73      1.0000 0.62680  0.78130  0.16160  Biso   1.000  H
  C86      1.0000 0.86110  0.24330  0.68969  Biso   1.000  C
  H74      1.0000 0.94180  0.25620  0.68030  Biso   1.000  H
  C87      1.0000 0.83140  0.81170  0.10993  Biso   1.000  C
  C88      1.0000 0.83680  0.20410  0.73386  Biso   1.000  C
  H75      1.0000 0.90290  0.19150  0.75400  Biso   1.000  H
  C89      1.0000 0.68210  0.29300  0.83197  Biso   1.000  C
  C90      1.0000 0.76320  0.26370  0.65879  Biso   1.000  C
  N30      1.0000 0.80790  0.62450  0.03890  Biso   1.000  N
  N31      1.0000 0.77190  0.08310  0.58289  Biso   1.000  N
  C91      1.0000 0.68720  0.17270  0.52235  Biso   1.000  C
  C92      1.0000 0.18840  0.97570  0.80688  Biso   1.000  C
  H76      1.0000 0.18170  0.91580  0.80620  Biso   1.000  H
  C93      1.0000 0.78560  0.30690  0.61104  Biso   1.000  C
  C94      1.0000 0.08450  0.02870  0.80904  Biso   1.000  C
  H77      1.0000 0.09170  0.08920  0.80700  Biso   1.000  H
  C95      1.0000 0.62940  0.20225  0.72045  Biso   1.000  C
  H78      1.0000 0.54990  0.18830  0.73090  Biso   1.000  H
  C96      1.0000 0.31480  0.46850  0.30837  Biso   1.000  C
  C97      1.0000 0.18010  0.48750  0.30764  Biso   1.000  C
  H79      1.0000 0.14790  0.54640  0.30630  Biso   1.000  H
  C98      1.0000 0.68520  0.70670  0.22063  Biso   1.000  C
  H80      1.0000 0.60540  0.70220  0.23370  Biso   1.000  H
  C99      1.0000 0.66320  0.09760  0.30319  Biso   1.000  C
  H81      1.0000 0.58050  0.08940  0.29820  Biso   1.000  H
  N32      1.0000 0.78170  0.58480  0.08368  Biso   1.000  N
  C100     1.0000 0.41730  0.95340  0.80861  Biso   1.000  C
  H82      1.0000 0.41360  0.89300  0.80890  Biso   1.000  H
  C101     1.0000 0.71540  0.67720  0.02168  Biso   1.000  C
  C102     1.0000 0.64500  0.24210  0.67528  Biso   1.000  C
  H83      1.0000 0.57700  0.25440  0.65600  Biso   1.000  H
  C103     1.0000 0.59440  0.69530  0.04655  Biso   1.000  C
  H84      1.0000 0.60830  0.68940  0.07900  Biso   1.000  H
  H85      1.0000 0.55940  0.75440  0.03560  Biso   1.000  H
  H86      1.0000 0.53750  0.65360  0.04110  Biso   1.000  H
  C104     1.0000 0.84750  0.51300  0.09781  Biso   1.000  C
  C105     1.0000 0.91740  0.71830  0.18182  Biso   1.000  C
  H87      1.0000 0.99820  0.72070  0.16940  Biso   1.000  H
  C106     1.0000 0.69920  0.18930  0.29977  Biso   1.000  C
  C107     1.0000 0.85940  0.02290  0.59691  Biso   1.000  C
  C108     1.0000 0.65410  0.79190  0.90094  Biso   1.000  C
  H88      1.0000 0.58510  0.81140  0.88280  Biso   1.000  H
  C109     1.0000 0.89660  0.67330  0.22512  Biso   1.000  C
  H89      1.0000 0.96540  0.64570  0.24150  Biso   1.000  H
  C110     1.0000 0.31180  0.00600  0.80549  Biso   1.000  C
  H90      1.0000 0.31770  0.06690  0.80220  Biso   1.000  H
  C111     1.0000 0.73450  0.72120  0.97376  Biso   1.000  C
  C112     1.0000 0.92350  0.91180  0.66645  Biso   1.000  C
  H91      1.0000 0.99090  0.88880  0.64980  Biso   1.000  H
  C113     1.0000 0.72550  0.51340  0.17144  Biso   1.000  C
  H92      1.0000 0.68360  0.56700  0.15890  Biso   1.000  H
  C114     1.0000 0.09990  0.42640  0.30882  Biso   1.000  C
  H93      1.0000 0.13220  0.36820  0.30800  Biso   1.000  H
  C115     1.0000 0.95740  0.99830  0.81452  Biso   1.000  C
  C116     1.0000 0.79700  0.69370  0.80090  Biso   1.000  C
  C117     1.0000 0.39260  0.53130  0.30754  Biso   1.000  C
  C118     1.0000 0.74320  0.02700  0.31298  Biso   1.000  C
  H94      1.0000 0.82580  0.03650  0.31710  Biso   1.000  H
  C119     1.0000 0.69550  0.01020  0.98758  Biso   1.000  C
  C120     1.0000 0.79350  0.45760  0.45651  Biso   1.000  C
  H95      1.0000 0.84260  0.40770  0.46990  Biso   1.000  H
  C121     1.0000 0.69740  0.47600  0.21557  Biso   1.000  C
  H96      1.0000 0.63560  0.50540  0.23210  Biso   1.000  H
  C122     1.0000 0.96270  0.44490  0.31139  Biso   1.000  C
  C123     1.0000 0.70700  0.50030  0.48292  Biso   1.000  C
  C124     1.0000 0.68930  0.46810  0.53269  Biso   1.000  C
  C125     1.0000 0.63380  0.75390  0.94581  Biso   1.000  C
  H97      1.0000 0.55260  0.75000  0.95750  Biso   1.000  H
  C126     1.0000 0.86490  0.77200  0.90912  Biso   1.000  C
  H98      1.0000 0.94500  0.77880  0.89680  Biso   1.000  H
  C127     1.0000 0.76290  0.77360  0.32968  Biso   1.000  C
  C128     1.0000 0.59180  0.25900  0.45003  Biso   1.000  C
  H99      1.0000 0.51400  0.26190  0.46500  Biso   1.000  H
  C129     1.0000 0.80840  0.21580  0.44907  Biso   1.000  C
  H100     1.0000 0.88070  0.18800  0.46320  Biso   1.000  H
  C130     1.0000 0.53110  0.51380  0.31027  Biso   1.000  C
  C131     1.0000 0.77120  0.97140  0.95628  Biso   1.000  C
  H101     1.0000 0.82340  0.92060  0.96620  Biso   1.000  H
  C132     1.0000 0.71270  0.93610  0.31779  Biso   1.000  C
  H102     1.0000 0.63000  0.92610  0.31410  Biso   1.000  H
  C133     1.0000 0.90340  0.87670  0.71218  Biso   1.000  C
  H103     1.0000 0.95840  0.83000  0.72540  Biso   1.000  H
  C134     1.0000 0.81360  0.25600  0.40403  Biso   1.000  C
  H104     1.0000 0.89070  0.25540  0.38860  Biso   1.000  H
  C135     1.0000 0.54130  0.98720  0.81172  Biso   1.000  C
  C136     1.0000 0.74260  0.44600  0.82006  Biso   1.000  C
  H105     1.0000 0.82490  0.42140  0.81880  Biso   1.000  H
  C137     1.0000 0.60440  0.29690  0.40452  Biso   1.000  C
  H106     1.0000 0.53340  0.32440  0.38950  Biso   1.000  H
  C138     1.0000 0.56860  0.18820  0.54961  Biso   1.000  C
  H107     1.0000 0.58320  0.16860  0.58170  Biso   1.000  H
  H108     1.0000 0.54120  0.25040  0.54490  Biso   1.000  H
  H109     1.0000 0.50540  0.15570  0.53970  Biso   1.000  H
  C139     1.0000 0.85260  0.73150  0.95399  Biso   1.000  C
  H110     1.0000 0.92320  0.71100  0.97110  Biso   1.000  H
  C140     1.0000 0.91440  0.29720  0.58986  Biso   1.000  C
  H111     1.0000 0.96300  0.34140  0.59830  Biso   1.000  H
  H112     1.0000 0.95370  0.23920  0.60070  Biso   1.000  H
  H113     1.0000 0.90910  0.30490  0.55690  Biso   1.000  H
  C141     1.0000 0.72270  0.54220  0.81327  Biso   1.000  C
  H114     1.0000 0.64100  0.56800  0.81450  Biso   1.000  H
  C142     1.0000 0.69130  0.97090  0.03690  Biso   1.000  C
  C143     1.0000 0.87260  0.39200  0.16672  Biso   1.000  C
  H115     1.0000 0.93280  0.36030  0.15060  Biso   1.000  H
  C144     1.0000 0.81300  0.59490  0.80554  Biso   1.000  C
  H116     1.0000 0.89380  0.56840  0.80270  Biso   1.000  H
  C145     1.0000 0.65590  0.39080  0.82774  Biso   1.000  C
  H117     1.0000 0.57350  0.41400  0.83070  Biso   1.000  H
  C146     1.0000 0.84090  0.35900  0.21134  Biso   1.000  C
  H118     1.0000 0.88200  0.30560  0.22480  Biso   1.000  H
  C147     1.0000 0.74480  0.01140  0.67249  Biso   1.000  C
  H119     1.0000 0.68780  0.05760  0.66010  Biso   1.000  H
  C148     1.0000 0.73160  0.97320  0.71746  Biso   1.000  C
  H120     1.0000 0.66470  0.99470  0.73480  Biso   1.000  H
  C149     1.0000 0.94620  0.46850  0.07028  Biso   1.000  C
  H121     1.0000 0.92090  0.41250  0.06510  Biso   1.000  H
  H122     1.0000 0.95870  0.50520  0.04120  Biso   1.000  H
  H123     1.0000 0.02280  0.45890  0.08670  Biso   1.000  H
  C150     1.0000 0.77060  0.00660  0.91050  Biso   1.000  C
  H124     1.0000 0.82230  0.97770  0.89030  Biso   1.000  H
  C151     1.0000 0.95790  0.81380  0.08758  Biso   1.000  C
  H125     1.0000 0.00510  0.85290  0.10110  Biso   1.000  H
  H126     1.0000 0.00010  0.75510  0.09200  Biso   1.000  H
  H127     1.0000 0.95020  0.83460  0.05520  Biso   1.000  H
  C152     1.0000 0.79450  0.86660  0.32712  Biso   1.000  C
  H128     1.0000 0.87640  0.87620  0.33240  Biso   1.000  H
  C153     1.0000 0.80790  0.48840  0.41037  Biso   1.000  C
  H129     1.0000 0.86860  0.45870  0.39350  Biso   1.000  H
  C154     1.0000 0.62830  0.11770  0.92298  Biso   1.000  C
  H130     1.0000 0.57750  0.16850  0.91200  Biso   1.000  H
  C155     1.0000 0.96770  0.99230  0.56867  Biso   1.000  C
  H131     1.0000 0.95980  0.93250  0.56390  Biso   1.000  H
  H132     1.0000 0.96960  0.03020  0.53940  Biso   1.000  H
  H133     1.0000 0.04360  0.99440  0.58440  Biso   1.000  H
  C156     1.0000 0.64680  0.53100  0.56510  Biso   1.000  C
  H134     1.0000 0.71610  0.56120  0.57220  Biso   1.000  H
  H135     1.0000 0.58290  0.57360  0.55110  Biso   1.000  H
  H136     1.0000 0.61390  0.49890  0.59290  Biso   1.000  H
  C157     1.0000 0.62640  0.02170  0.07202  Biso   1.000  C
  H137     1.0000 0.68090  0.06240  0.08040  Biso   1.000  H
  H138     1.0000 0.55180  0.05410  0.05930  Biso   1.000  H
  H139     1.0000 0.60500  0.98120  0.09880  Biso   1.000  H
  C158     1.0000 0.62390  0.08630  0.96955  Biso   1.000  C
  H140     1.0000 0.57210  0.11680  0.98900  Biso   1.000  H
  C159     1.0000 0.63590  0.57270  0.45994  Biso   1.000  C
  H141     1.0000 0.57510  0.60400  0.47600  Biso   1.000  H
  C160     1.0000 0.65520  0.59840  0.41345  Biso   1.000  C
  H142     1.0000 0.60550  0.64690  0.39890  Biso   1.000  H
  H143     1.0000 0.34500  0.40600  0.30880  Biso   1.000  H
  H144     1.0000 0.36200  0.59400  0.30550  Biso   1.000  H
