data_QIWGOU_clean
_audit_creation_date              2015-10-16
_audit_creation_method            'Materials Studio'
_symmetry_space_group_name_H-M    'P1'
_symmetry_Int_Tables_number       1
_symmetry_cell_setting            triclinic
loop_
_symmetry_equiv_pos_as_xyz
  x,y,z
_cell_length_a                    15.0080
_cell_length_b                    24.7500
_cell_length_c                    25.7920
_cell_angle_alpha                 111.9570
_cell_angle_beta                  90.0000
_cell_angle_gamma                 90.0000
loop_
_atom_site_label
_atom_site_type_symbol
_atom_site_fract_x
_atom_site_fract_y
_atom_site_fract_z
_atom_site_U_iso_or_equiv
_atom_site_adp_type
_atom_site_occupancy
Sr1    Sr    0.28479   0.26729   0.50014   0.01267  Uiso   1.00
Sr2    Sr    0.94425   0.01505   0.29203   0.01267  Uiso   1.00
Sr3    Sr    0.55575   0.51505   0.79203   0.01267  Uiso   1.00
Sr4    Sr    0.06520   0.04528   0.86949   0.01267  Uiso   1.00
Sr5    Sr    0.44425   0.48495   0.20797   0.01267  Uiso   1.00
Sr6    Sr    0.53442   0.29813   0.96346   0.01267  Uiso   1.00
Sr7    Sr    0.21521   0.76729   0.00014   0.01267  Uiso   1.00
Sr8    Sr    0.05575   0.98495   0.70797   0.01267  Uiso   1.00
Sr9    Sr    0.46558   0.70187   0.03654   0.01267  Uiso   1.00
Sr10   Sr    0.71521   0.73271   0.49986   0.01267  Uiso   1.00
Sr11   Sr    0.96558   0.79813   0.46346   0.01267  Uiso   1.00
Sr12   Sr    0.56520   0.45472   0.63051   0.01267  Uiso   1.00
Sr13   Sr    0.78479   0.23271   0.99986   0.01267  Uiso   1.00
Sr14   Sr    0.03442   0.20187   0.53654   0.01267  Uiso   1.00
Sr15   Sr    0.43480   0.54528   0.36949   0.01267  Uiso   1.00
Sr16   Sr    0.93480   0.95472   0.13051   0.01267  Uiso   1.00
H1     H     0.24400   0.55180   0.84530   0.01267  Uiso   1.00
H2     H     0.09410   0.53510   0.31760   0.01267  Uiso   1.00
H3     H     0.96410   0.42160   0.04780   0.01267  Uiso   1.00
H4     H     0.26350   0.64120   0.16780   0.01267  Uiso   1.00
H5     H     0.77670   0.86150   0.94890   0.01267  Uiso   1.00
H6     H     0.50960   0.15850   0.59160   0.01267  Uiso   1.00
H7     H     0.82530   0.69240   0.30110   0.01267  Uiso   1.00
H8     H     0.06200   0.26190   0.20600   0.01267  Uiso   1.00
H9     H     0.53590   0.92160   0.54780   0.01267  Uiso   1.00
H10    H     0.16250   0.72950   0.80760   0.01267  Uiso   1.00
H11    H     0.31380   0.09820   0.10060   0.01267  Uiso   1.00
H12    H     0.20040   0.84610   0.43380   0.01267  Uiso   1.00
H13    H     0.65810   0.43480   0.25860   0.01267  Uiso   1.00
H14    H     0.66250   0.77050   0.69240   0.01267  Uiso   1.00
H15    H     0.03590   0.57840   0.95220   0.01267  Uiso   1.00
H16    H     0.00710   0.48090   0.37260   0.01267  Uiso   1.00
H17    H     0.72330   0.36150   0.44890   0.01267  Uiso   1.00
H18    H     0.74400   0.94820   0.65470   0.01267  Uiso   1.00
H19    H     0.43800   0.76190   0.70600   0.01267  Uiso   1.00
H20    H     0.59410   0.96490   0.18240   0.01267  Uiso   1.00
H21    H     0.02730   0.43590   0.72120   0.01267  Uiso   1.00
H22    H     0.95520   0.29580   0.69900   0.01267  Uiso   1.00
H23    H     0.18250   0.19840   0.82830   0.01267  Uiso   1.00
H24    H     0.44060   0.90550   0.63320   0.01267  Uiso   1.00
H25    H     0.70960   0.50600   0.33560   0.01267  Uiso   1.00
H26    H     0.79090   0.60080   0.10310   0.01267  Uiso   1.00
H27    H     0.91790   0.83770   0.23670   0.01267  Uiso   1.00
H28    H     0.07790   0.80230   0.34590   0.01267  Uiso   1.00
H29    H     0.15150   0.34660   0.44610   0.01267  Uiso   1.00
H30    H     0.01270   0.35240   0.40700   0.01267  Uiso   1.00
H31    H     0.54580   0.87780   0.68370   0.01267  Uiso   1.00
H32    H     0.97270   0.56410   0.27880   0.01267  Uiso   1.00
H33    H     0.49040   0.84150   0.40840   0.01267  Uiso   1.00
H34    H     0.56200   0.23810   0.29400   0.01267  Uiso   1.00
H35    H     0.43980   0.92880   0.08280   0.01267  Uiso   1.00
H36    H     0.32110   0.48390   0.78010   0.01267  Uiso   1.00
H37    H     0.77080   0.12180   0.17990   0.01267  Uiso   1.00
H38    H     0.68950   0.67900   0.33900   0.01267  Uiso   1.00
H39    H     0.27080   0.37820   0.32010   0.01267  Uiso   1.00
H40    H     0.61910   0.81420   0.44270   0.01267  Uiso   1.00
H41    H     0.70300   0.27020   0.14870   0.01267  Uiso   1.00
H42    H     0.32530   0.80760   0.19890   0.01267  Uiso   1.00
H43    H     0.49830   0.98050   0.41050   0.01267  Uiso   1.00
H44    H     0.51270   0.14760   0.09300   0.01267  Uiso   1.00
H45    H     0.18950   0.82100   0.16100   0.01267  Uiso   1.00
H46    H     0.33750   0.22950   0.30760   0.01267  Uiso   1.00
H47    H     0.79960   0.15390   0.56620   0.01267  Uiso   1.00
H48    H     0.00960   0.34150   0.90840   0.01267  Uiso   1.00
H49    H     0.45420   0.12220   0.31630   0.01267  Uiso   1.00
H50    H     0.47270   0.93590   0.22120   0.01267  Uiso   1.00
H51    H     0.81380   0.40180   0.39940   0.01267  Uiso   1.00
H52    H     0.23650   0.14120   0.66780   0.01267  Uiso   1.00
H53    H     0.52730   0.06410   0.77880   0.01267  Uiso   1.00
H54    H     0.20300   0.22980   0.35130   0.01267  Uiso   1.00
H55    H     0.48730   0.85240   0.90700   0.01267  Uiso   1.00
H56    H     0.06020   0.42880   0.58280   0.01267  Uiso   1.00
H57    H     0.29960   0.34610   0.93380   0.01267  Uiso   1.00
H58    H     0.72920   0.62180   0.67990   0.01267  Uiso   1.00
H59    H     0.90590   0.46490   0.68240   0.01267  Uiso   1.00
H60    H     0.04480   0.70420   0.30100   0.01267  Uiso   1.00
H61    H     0.17470   0.30760   0.69890   0.01267  Uiso   1.00
H62    H     0.54480   0.79580   0.19900   0.01267  Uiso   1.00
H63    H     0.55940   0.09450   0.36680   0.01267  Uiso   1.00
H64    H     0.81700   0.20200   0.35300   0.01267  Uiso   1.00
H65    H     0.75680   0.90680   0.27590   0.01267  Uiso   1.00
H66    H     0.00170   0.48050   0.91050   0.01267  Uiso   1.00
H67    H     0.31700   0.29800   0.14700   0.01267  Uiso   1.00
H68    H     0.95420   0.37780   0.18370   0.01267  Uiso   1.00
H69    H     0.38850   0.34720   0.22060   0.01267  Uiso   1.00
H70    H     0.75600   0.44820   0.15470   0.01267  Uiso   1.00
H71    H     0.68250   0.30160   0.67170   0.01267  Uiso   1.00
H72    H     0.75480   0.59440   0.75240   0.01267  Uiso   1.00
H73    H     0.18300   0.79800   0.64700   0.01267  Uiso   1.00
H74    H     0.29040   0.49400   0.66440   0.01267  Uiso   1.00
H75    H     0.68620   0.90180   0.89940   0.01267  Uiso   1.00
H76    H     0.29700   0.72980   0.85130   0.01267  Uiso   1.00
H77    H     0.50710   0.01910   0.12740   0.01267  Uiso   1.00
H78    H     0.25680   0.59320   0.22410   0.01267  Uiso   1.00
H79    H     0.65150   0.15340   0.05390   0.01267  Uiso   1.00
H80    H     0.94060   0.59450   0.86680   0.01267  Uiso   1.00
H81    H     0.99040   0.65850   0.09160   0.01267  Uiso   1.00
H82    H     0.67470   0.19240   0.80110   0.01267  Uiso   1.00
H83    H     0.70040   0.65390   0.06620   0.01267  Uiso   1.00
H84    H     0.98730   0.64760   0.59300   0.01267  Uiso   1.00
H85    H     0.24320   0.09320   0.72410   0.01267  Uiso   1.00
H86    H     0.25480   0.90560   0.74760   0.01267  Uiso   1.00
H87    H     0.92610   0.84000   0.83270   0.01267  Uiso   1.00
H88    H     0.42210   0.30230   0.84590   0.01267  Uiso   1.00
H89    H     0.34190   0.56520   0.74140   0.01267  Uiso   1.00
H90    H     0.04580   0.62220   0.81630   0.01267  Uiso   1.00
H91    H     0.18620   0.59820   0.60060   0.01267  Uiso   1.00
H92    H     0.81050   0.17900   0.83900   0.01267  Uiso   1.00
H93    H     0.76350   0.85880   0.33220   0.01267  Uiso   1.00
H94    H     0.84850   0.65340   0.55390   0.01267  Uiso   1.00
H95    H     0.38090   0.18580   0.55730   0.01267  Uiso   1.00
H96    H     0.08210   0.16230   0.76330   0.01267  Uiso   1.00
H97    H     0.40590   0.03510   0.81760   0.01267  Uiso   1.00
H98    H     0.56020   0.07120   0.91720   0.01267  Uiso   1.00
H99    H     0.25600   0.05180   0.34530   0.01267  Uiso   1.00
H100   H     0.84190   0.93480   0.75860   0.01267  Uiso   1.00
H101   H     0.92210   0.19770   0.65410   0.01267  Uiso   1.00
H102   H     0.15810   0.06520   0.24140   0.01267  Uiso   1.00
H103   H     0.42610   0.66000   0.66730   0.01267  Uiso   1.00
H104   H     0.45520   0.20420   0.80100   0.01267  Uiso   1.00
H105   H     0.74520   0.09440   0.25240   0.01267  Uiso   1.00
H106   H     0.20960   0.99400   0.16440   0.01267  Uiso   1.00
H107   H     0.73650   0.35880   0.83220   0.01267  Uiso   1.00
H108   H     0.74320   0.40680   0.77590   0.01267  Uiso   1.00
H109   H     0.27670   0.63850   0.55110   0.01267  Uiso   1.00
H110   H     0.99290   0.51910   0.62740   0.01267  Uiso   1.00
H111   H     0.61150   0.65280   0.77940   0.01267  Uiso   1.00
H112   H     0.81750   0.80160   0.17170   0.01267  Uiso   1.00
H113   H     0.34850   0.84660   0.94610   0.01267  Uiso   1.00
H114   H     0.41790   0.66230   0.26330   0.01267  Uiso   1.00
H115   H     0.57390   0.34000   0.33270   0.01267  Uiso   1.00
H116   H     0.67890   0.51610   0.21990   0.01267  Uiso   1.00
H117   H     0.93980   0.57120   0.41720   0.01267  Uiso   1.00
H118   H     0.11910   0.68580   0.05730   0.01267  Uiso   1.00
H119   H     0.88090   0.31420   0.94270   0.01267  Uiso   1.00
H120   H     0.79040   0.00600   0.83560   0.01267  Uiso   1.00
H121   H     0.46410   0.07840   0.45220   0.01267  Uiso   1.00
H122   H     0.68300   0.70200   0.85300   0.01267  Uiso   1.00
H123   H     0.57790   0.69770   0.15410   0.01267  Uiso   1.00
H124   H     0.83750   0.27050   0.19240   0.01267  Uiso   1.00
H125   H     0.07390   0.16000   0.16730   0.01267  Uiso   1.00
H126   H     0.82110   0.01610   0.71990   0.01267  Uiso   1.00
H127   H     0.11150   0.84720   0.72060   0.01267  Uiso   1.00
H128   H     0.22330   0.13850   0.05110   0.01267  Uiso   1.00
H129   H     0.93800   0.73810   0.79400   0.01267  Uiso   1.00
H130   H     0.88850   0.15280   0.27940   0.01267  Uiso   1.00
H131   H     0.22920   0.87820   0.82010   0.01267  Uiso   1.00
H132   H     0.17890   0.98390   0.28010   0.01267  Uiso   1.00
H133   H     0.05940   0.40550   0.13320   0.01267  Uiso   1.00
H134   H     0.29090   0.89920   0.39690   0.01267  Uiso   1.00
H135   H     0.20910   0.39920   0.89690   0.01267  Uiso   1.00
H136   H     0.49290   0.98090   0.87260   0.01267  Uiso   1.00
H137   H     0.99830   0.51950   0.08950   0.01267  Uiso   1.00
H138   H     0.58210   0.33770   0.73670   0.01267  Uiso   1.00
H139   H     0.79700   0.77020   0.64870   0.01267  Uiso   1.00
H140   H     0.50170   0.01950   0.58950   0.01267  Uiso   1.00
H141   H     0.31750   0.69840   0.32830   0.01267  Uiso   1.00
H142   H     0.24520   0.40560   0.24760   0.01267  Uiso   1.00
H143   H     0.70910   0.10080   0.60310   0.01267  Uiso   1.00
H144   H     0.31050   0.32100   0.66100   0.01267  Uiso   1.00
Ru1    Ru    0.93921   0.62622   0.19424   0.01267  Uiso   1.00
Ru2    Ru    0.44399   0.14436   0.20487   0.01267  Uiso   1.00
Ru3    Ru    0.55601   0.85564   0.79513   0.01267  Uiso   1.00
Ru4    Ru    0.05601   0.64436   0.70487   0.01267  Uiso   1.00
Ru5    Ru    0.06079   0.37378   0.80576   0.01267  Uiso   1.00
Ru6    Ru    0.94399   0.35564   0.29513   0.01267  Uiso   1.00
Ru7    Ru    0.43921   0.87378   0.30576   0.01267  Uiso   1.00
Ru8    Ru    0.56079   0.12622   0.69424   0.01267  Uiso   1.00
C1     C     0.96130   0.20990   0.68530   0.01267  Uiso   1.00
C2     C     0.77040   0.50160   0.34340   0.01267  Uiso   1.00
C3     C     0.52550   0.26060   0.27960   0.01267  Uiso   1.00
C4     C     0.07070   0.55380   0.92180   0.01267  Uiso   1.00
C5     C     0.94620   0.48580   0.36530   0.01267  Uiso   1.00
C6     C     0.49840   0.33030   0.79620   0.01267  Uiso   1.00
C7     C     0.92930   0.44620   0.07820   0.01267  Uiso   1.00
C8     C     0.33190   0.64697   0.80189   0.01267  Uiso   1.00
C9     C     0.72140   0.30380   0.17940   0.01267  Uiso   1.00
C10    C     0.07490   0.24820   0.77510   0.01267  Uiso   1.00
C11    C     0.18650   0.63920   0.61070   0.01267  Uiso   1.00
C12    C     0.29560   0.85790   0.38240   0.01267  Uiso   1.00
C13    C     0.81430   0.24290   0.36270   0.01267  Uiso   1.00
C14    C     0.21370   0.85130   0.19260   0.01267  Uiso   1.00
C15    C     0.81430   0.59960   0.76600   0.01267  Uiso   1.00
C16    C     0.37710   0.17190   0.58690   0.01267  Uiso   1.00
C17    C     0.27040   0.99840   0.15660   0.01267  Uiso   1.00
C18    C     0.26070   0.22280   0.09340   0.01267  Uiso   1.00
C19    C     0.70770   0.24850   0.43970   0.01267  Uiso   1.00
C20    C     0.54630   0.84480   0.39250   0.01267  Uiso   1.00
C21    C     0.81020   0.76050   0.15770   0.01267  Uiso   1.00
C22    C     0.71870   0.12860   0.16230   0.01267  Uiso   1.00
C23    C     0.75210   0.23360   0.61580   0.01267  Uiso   1.00
C24    C     0.41820   0.41670   0.69352   0.01267  Uiso   1.00
C25    C     0.12880   0.62830   0.17040   0.01267  Uiso   1.00
C26    C     0.09390   0.46040   0.60770   0.01267  Uiso   1.00
C27    C     0.77600   0.39921   0.26910   0.01267  Uiso   1.00
C28    C     0.46680   0.67850   0.69690   0.01267  Uiso   1.00
C29    C     0.69280   0.96180   0.64165   0.01267  Uiso   1.00
C30    C     0.76360   0.57270   0.84650   0.01267  Uiso   1.00
C31    C     0.37550   0.10300   0.71350   0.01267  Uiso   1.00
C32    C     0.19490   0.09880   0.25570   0.01267  Uiso   1.00
C33    C     0.07920   0.76464   0.71480   0.01267  Uiso   1.00
C34    C     0.55600   0.31070   0.75040   0.01267  Uiso   1.00
C35    C     0.58270   0.35570   0.16770   0.01267  Uiso   1.00
C36    C     0.57920   0.73536   0.78520   0.01267  Uiso   1.00
C37    C     0.18570   0.40040   0.23400   0.01267  Uiso   1.00
C38    C     0.69900   0.80430   0.70570   0.01267  Uiso   1.00
C39    C     0.29200   0.14520   0.65180   0.01267  Uiso   1.00
C40    C     0.01370   0.38420   0.19700   0.01267  Uiso   1.00
C41    C     0.68650   0.86080   0.88930   0.01267  Uiso   1.00
C42    C     0.36380   0.23097   0.16720   0.01267  Uiso   1.00
C43    C     0.18930   0.56357   0.27622   0.01267  Uiso   1.00
C44    C     0.20440   0.35790   0.88240   0.01267  Uiso   1.00
C45    C     0.29470   0.84351   0.21580   0.01267  Uiso   1.00
C46    C     0.53870   0.70990   0.18530   0.01267  Uiso   1.00
C47    C     0.80100   0.41260   0.76380   0.01267  Uiso   1.00
C48    C     0.55020   0.00450   0.60360   0.01267  Uiso   1.00
C49    C     0.27070   0.54920   0.30322   0.01267  Uiso   1.00
C50    C     0.30510   0.59880   0.75570   0.01267  Uiso   1.00
C51    C     0.22560   0.35840   0.38570   0.01267  Uiso   1.00
C52    C     0.66810   0.35303   0.19811   0.01267  Uiso   1.00
C53    C     0.20530   0.34351   0.71580   0.01267  Uiso   1.00
C54    C     0.29230   0.75150   0.56030   0.01267  Uiso   1.00
C55    C     0.96910   0.42980   0.73240   0.01267  Uiso   1.00
C56    C     0.43430   0.85640   0.88870   0.01267  Uiso   1.00
C57    C     0.44620   0.01420   0.13470   0.01267  Uiso   1.00
C58    C     0.26010   0.16310   0.08040   0.01267  Uiso   1.00
C59    C     0.89710   0.44670   0.70851   0.01267  Uiso   1.00
C60    C     0.02550   0.23940   0.22040   0.01267  Uiso   1.00
C61    C     0.51370   0.11580   0.30300   0.01267  Uiso   1.00
C62    C     0.46910   0.07020   0.76760   0.01267  Uiso   1.00
C63    C     0.52140   0.60580   0.17660   0.01267  Uiso   1.00
C64    C     0.42390   0.32560   0.23650   0.01267  Uiso   1.00
C65    C     0.18570   0.75710   0.63730   0.01267  Uiso   1.00
C66    C     0.33070   0.40427   0.71658   0.01267  Uiso   1.00
C67    C     0.20520   0.66780   0.11020   0.01267  Uiso   1.00
C68    C     0.81460   0.27050   0.59600   0.01267  Uiso   1.00
C69    C     0.88040   0.61504   0.73660   0.01267  Uiso   1.00
C70    C     0.53090   0.92980   0.23240   0.01267  Uiso   1.00
C71    C     0.04630   0.65520   0.10750   0.01267  Uiso   1.00
C72    C     0.06570   0.35640   0.38870   0.01267  Uiso   1.00
C73    C     0.53320   0.32150   0.30310   0.01267  Uiso   1.00
C74    C     0.70530   0.15649   0.78420   0.01267  Uiso   1.00
C75    C     0.77440   0.64160   0.61430   0.01267  Uiso   1.00
C76    C     0.22140   0.19620   0.32060   0.01267  Uiso   1.00
C77    C     0.70770   0.55275   0.23691   0.01267  Uiso   1.00
C78    C     0.83500   0.59150   0.81530   0.01267  Uiso   1.00
C79    C     0.59390   0.03960   0.89230   0.01267  Uiso   1.00
C80    C     0.64290   0.92362   0.59741   0.01267  Uiso   1.00
C81    C     0.14860   0.35290   0.41200   0.01267  Uiso   1.00
C82    C     0.79200   0.35480   0.84820   0.01267  Uiso   1.00
C83    C     0.83070   0.09573   0.78342   0.01267  Uiso   1.00
C84    C     0.27130   0.89560   0.08350   0.01267  Uiso   1.00
C85    C     0.29480   0.16780   0.61020   0.01267  Uiso   1.00
C86    C     0.46130   0.29010   0.81470   0.01267  Uiso   1.00
C87    C     0.83380   0.35910   0.07160   0.01267  Uiso   1.00
C88    C     0.19900   0.69570   0.79430   0.01267  Uiso   1.00
C89    C     0.73990   0.83690   0.91960   0.01267  Uiso   1.00
C90    C     0.85140   0.64710   0.58800   0.01267  Uiso   1.00
C91    C     0.36090   0.77300   0.32130   0.01267  Uiso   1.00
C92    C     0.60290   0.94670   0.20851   0.01267  Uiso   1.00
C93    C     0.72960   0.00160   0.84340   0.01267  Uiso   1.00
C94    C     0.68540   0.77050   0.09600   0.01267  Uiso   1.00
C95    C     0.69900   0.91260   0.26380   0.01267  Uiso   1.00
C96    C     0.30100   0.08740   0.73620   0.01267  Uiso   1.00
C97    C     0.13910   0.27300   0.82130   0.01267  Uiso   1.00
C98    C     0.77130   0.60440   0.41650   0.01267  Uiso   1.00
C99    C     0.28630   0.35130   0.69260   0.01267  Uiso   1.00
C100   C     0.31670   0.95271   0.11700   0.01267  Uiso   1.00
C101   C     0.20800   0.64520   0.15180   0.01267  Uiso   1.00
C102   C     0.94980   0.50450   0.10360   0.01267  Uiso   1.00
C103   C     0.44980   0.99550   0.39640   0.01267  Uiso   1.00
C104   C     0.03870   0.79010   0.31470   0.01267  Uiso   1.00
C105   C     0.13620   0.73097   0.66720   0.01267  Uiso   1.00
C106   C     0.73930   0.77720   0.90660   0.01267  Uiso   1.00
C107   C     0.72560   0.14160   0.11430   0.01267  Uiso   1.00
C108   C     0.31430   0.25710   0.13730   0.01267  Uiso   1.00
C109   C     0.92390   0.17440   0.26350   0.01267  Uiso   1.00
C110   C     0.27440   0.85840   0.88570   0.01267  Uiso   1.00
C111   C     0.47660   0.41965   0.30716   0.01267  Uiso   1.00
C112   C     0.91730   0.85570   0.66770   0.01267  Uiso   1.00
C113   C     0.31430   0.90040   0.73400   0.01267  Uiso   1.00
C114   C     0.12450   0.60300   0.21350   0.01267  Uiso   1.00
C115   C     0.30100   0.19570   0.29430   0.01267  Uiso   1.00
C116   C     0.87710   0.32810   0.91310   0.01267  Uiso   1.00
C117   C     0.33500   0.90850   0.68470   0.01267  Uiso   1.00
C118   C     0.28730   0.93671   0.28447   0.01267  Uiso   1.00
C119   C     0.98110   0.26840   0.71230   0.01267  Uiso   1.00
C120   C     0.18980   0.23950   0.84230   0.01267  Uiso   1.00
C121   C     0.62880   0.87170   0.32960   0.01267  Uiso   1.00
C122   C     0.75860   0.17350   0.59520   0.01267  Uiso   1.00
C123   C     0.48110   0.23160   0.78770   0.01267  Uiso   1.00
C124   C     0.31350   0.13920   0.11070   0.01267  Uiso   1.00
C125   C     0.28970   0.68910   0.09150   0.01267  Uiso   1.00
C126   C     0.70520   0.83220   0.38980   0.01267  Uiso   1.00
C127   C     0.05600   0.18930   0.74960   0.01267  Uiso   1.00
C128   C     0.12290   0.67190   0.08690   0.01267  Uiso   1.00
C129   C     0.23990   0.66310   0.58040   0.01267  Uiso   1.00
C130   C     0.66930   0.59573   0.28342   0.01267  Uiso   1.00
C131   C     0.79230   0.05275   0.73691   0.01267  Uiso   1.00
C132   C     0.00160   0.83030   0.29620   0.01267  Uiso   1.00
C133   C     0.31580   0.34760   0.40700   0.01267  Uiso   1.00
C134   C     0.76010   0.33690   0.41960   0.01267  Uiso   1.00
C135   C     0.93430   0.64360   0.61130   0.01267  Uiso   1.00
C136   C     0.58180   0.58330   0.30648   0.01267  Uiso   1.00
C137   C     0.31020   0.73950   0.34230   0.01267  Uiso   1.00
C138   C     0.79470   0.65649   0.28420   0.01267  Uiso   1.00
C139   C     0.41730   0.64430   0.83230   0.01267  Uiso   1.00
C140   C     0.47860   0.39420   0.82340   0.01267  Uiso   1.00
C141   C     0.69490   0.40120   0.24430   0.01267  Uiso   1.00
C142   C     0.68930   0.93643   0.22378   0.01267  Uiso   1.00
C143   C     0.39710   0.05330   0.79149   0.01267  Uiso   1.00
C144   C     0.72400   0.89921   0.76910   0.01267  Uiso   1.00
C145   C     0.68570   0.74290   0.86270   0.01267  Uiso   1.00
C146   C     0.27860   0.69620   0.82060   0.01267  Uiso   1.00
C147   C     0.02340   0.91965   0.80716   0.01267  Uiso   1.00
C148   C     0.33300   0.98010   0.33352   0.01267  Uiso   1.00
C149   C     0.52090   0.64602   0.71830   0.01267  Uiso   1.00
C150   C     0.76070   0.27720   0.40660   0.01267  Uiso   1.00
C151   C     0.92080   0.23536   0.28520   0.01267  Uiso   1.00
C152   C     0.66620   0.85910   0.57160   0.01267  Uiso   1.00
C153   C     0.35710   0.07638   0.40259   0.01267  Uiso   1.00
C154   C     0.42510   0.74820   0.27510   0.01267  Uiso   1.00
C155   C     0.81490   0.44900   0.31540   0.01267  Uiso   1.00
C156   C     0.86380   0.26903   0.33280   0.01267  Uiso   1.00
C157   C     0.78730   0.56329   0.21553   0.01267  Uiso   1.00
C158   C     0.56570   0.14360   0.11130   0.01267  Uiso   1.00
C159   C     0.07620   0.40010   0.16640   0.01267  Uiso   1.00
C160   C     0.52340   0.58035   0.69284   0.01267  Uiso   1.00
C161   C     0.87550   0.39700   0.78650   0.01267  Uiso   1.00
C162   C     0.50160   0.66970   0.20380   0.01267  Uiso   1.00
C163   C     0.94400   0.81070   0.25040   0.01267  Uiso   1.00
C164   C     0.42930   0.05380   0.42180   0.01267  Uiso   1.00
C165   C     0.98630   0.61580   0.80300   0.01267  Uiso   1.00
C166   C     0.03090   0.57020   0.26760   0.01267  Uiso   1.00
C167   C     0.03320   0.17850   0.19690   0.01267  Uiso   1.00
C168   C     0.23930   0.72280   0.59340   0.01267  Uiso   1.00
C169   C     0.10290   0.55330   0.29149   0.01267  Uiso   1.00
C170   C     0.63910   0.22700   0.67870   0.01267  Uiso   1.00
C171   C     0.57620   0.09990   0.33360   0.01267  Uiso   1.00
C172   C     0.22400   0.60079   0.73090   0.01267  Uiso   1.00
C173   C     0.74140   0.67350   0.09520   0.01267  Uiso   1.00
C174   C     0.01890   0.73160   0.28770   0.01267  Uiso   1.00
C175   C     0.99840   0.16970   0.70380   0.01267  Uiso   1.00
C176   C     0.19900   0.58740   0.23620   0.01267  Uiso   1.00
C177   C     0.55380   0.98580   0.86530   0.01267  Uiso   1.00
C178   C     0.16700   0.48010   0.83352   0.01267  Uiso   1.00
C179   C     0.16620   0.64090   0.92840   0.01267  Uiso   1.00
C180   C     0.68330   0.04729   0.88300   0.01267  Uiso   1.00
C181   C     0.77070   0.95080   0.19678   0.01267  Uiso   1.00
C182   C     0.47910   0.35398   0.28170   0.01267  Uiso   1.00
C183   C     0.25210   0.26640   0.88420   0.01267  Uiso   1.00
C184   C     0.36570   0.87418   0.81550   0.01267  Uiso   1.00
C185   C     0.11960   0.38496   0.26340   0.01267  Uiso   1.00
C186   C     0.18330   0.45271   0.61700   0.01267  Uiso   1.00
C187   C     0.79560   0.64210   0.11760   0.01267  Uiso   1.00
C188   C     0.31070   0.06357   0.77622   0.01267  Uiso   1.00
C189   C     0.73640   0.07270   0.34650   0.01267  Uiso   1.00
C190   C     0.57610   0.67440   0.76350   0.01267  Uiso   1.00
C191   C     0.96680   0.82150   0.80310   0.01267  Uiso   1.00
C192   C     0.81670   0.54729   0.38300   0.01267  Uiso   1.00
C193   C     0.16500   0.40850   0.18470   0.01267  Uiso   1.00
C194   C     0.77860   0.80380   0.67940   0.01267  Uiso   1.00
C195   C     0.16930   0.90427   0.21658   0.01267  Uiso   1.00
C196   C     0.31490   0.05100   0.18460   0.01267  Uiso   1.00
C197   C     0.44400   0.68930   0.24960   0.01267  Uiso   1.00
C198   C     0.97660   0.08035   0.19284   0.01267  Uiso   1.00
C199   C     0.18510   0.55100   0.68460   0.01267  Uiso   1.00
C200   C     0.13430   0.37418   0.31550   0.01267  Uiso   1.00
C201   C     0.62450   0.89700   0.28650   0.01267  Uiso   1.00
C202   C     0.87120   0.37170   0.82960   0.01267  Uiso   1.00
C203   C     0.16810   0.14697   0.30189   0.01267  Uiso   1.00
C204   C     0.71030   0.31090   0.90850   0.01267  Uiso   1.00
C205   C     0.08270   0.14430   0.33230   0.01267  Uiso   1.00
C206   C     0.68420   0.65240   0.59300   0.01267  Uiso   1.00
C207   C     0.68570   0.09960   0.26600   0.01267  Uiso   1.00
C208   C     0.24790   0.76640   0.38420   0.01267  Uiso   1.00
C209   C     0.68980   0.26050   0.65770   0.01267  Uiso   1.00
C210   C     0.23640   0.42730   0.15350   0.01267  Uiso   1.00
C211   C     0.71370   0.64870   0.30740   0.01267  Uiso   1.00
C212   C     0.63430   0.12582   0.18450   0.01267  Uiso   1.00
C213   C     0.26360   0.92730   0.65350   0.01267  Uiso   1.00
C214   C     0.92510   0.75180   0.22490   0.01267  Uiso   1.00
C215   C     0.83300   0.51990   0.16648   0.01267  Uiso   1.00
C216   C     0.24140   0.82650   0.40480   0.01267  Uiso   1.00
C217   C     0.72870   0.10440   0.91650   0.01267  Uiso   1.00
C218   C     0.07610   0.82560   0.73650   0.01267  Uiso   1.00
C219   C     0.80720   0.46180   0.14165   0.01267  Uiso   1.00
C220   C     0.08180   0.91670   0.19352   0.01267  Uiso   1.00
C221   C     0.92380   0.59990   0.83360   0.01267  Uiso   1.00
C222   C     0.85710   0.42362   0.09741   0.01267  Uiso   1.00
C223   C     0.62290   0.82810   0.41310   0.01267  Uiso   1.00
C224   C     0.42380   0.90010   0.66640   0.01267  Uiso   1.00
C225   C     0.66500   0.09150   0.31530   0.01267  Uiso   1.00
C226   C     0.51890   0.76840   0.21230   0.01267  Uiso   1.00
C227   C     0.63620   0.76903   0.83280   0.01267  Uiso   1.00
C228   C     0.38040   0.88496   0.76340   0.01267  Uiso   1.00
C229   C     0.90610   0.53960   0.39230   0.01267  Uiso   1.00
C230   C     0.22960   0.49840   0.65660   0.01267  Uiso   1.00
C231   C     0.20770   0.25150   0.06030   0.01267  Uiso   1.00
C232   C     0.97450   0.76060   0.77960   0.01267  Uiso   1.00
C233   C     0.78130   0.62860   0.66230   0.01267  Uiso   1.00
C234   C     0.79480   0.33220   0.88980   0.01267  Uiso   1.00
C235   C     0.21870   0.37140   0.33770   0.01267  Uiso   1.00
C236   C     0.29230   0.44725   0.76309   0.01267  Uiso   1.00
C237   C     0.66700   0.01990   0.66648   0.01267  Uiso   1.00
C238   C     0.61960   0.11504   0.23660   0.01267  Uiso   1.00
C239   C     0.57490   0.25180   0.72490   0.01267  Uiso   1.00
C240   C     0.70440   0.14210   0.61760   0.01267  Uiso   1.00
C241   C     0.78630   0.14870   0.80740   0.01267  Uiso   1.00
C242   C     0.86090   0.72700   0.17870   0.01267  Uiso   1.00
C243   C     0.30720   0.03820   0.35835   0.01267  Uiso   1.00
C244   C     0.21270   0.43671   0.78447   0.01267  Uiso   1.00
C245   C     0.35140   0.85290   0.91200   0.01267  Uiso   1.00
C246   C     0.91820   0.08330   0.80648   0.01267  Uiso   1.00
C247   C     0.72930   0.45080   0.69678   0.01267  Uiso   1.00
C248   C     0.48630   0.88420   0.69700   0.01267  Uiso   1.00
C249   C     0.81580   0.15240   0.09300   0.01267  Uiso   1.00
C250   C     0.70800   0.85480   0.34820   0.01267  Uiso   1.00
C251   C     0.45370   0.15520   0.60750   0.01267  Uiso   1.00
C252   C     0.40610   0.96040   0.10770   0.01267  Uiso   1.00
C253   C     0.02090   0.85398   0.78170   0.01267  Uiso   1.00
C254   C     0.20770   0.94725   0.26309   0.01267  Uiso   1.00
C255   C     0.97910   0.14602   0.21830   0.01267  Uiso   1.00
C256   C     0.80100   0.30430   0.20570   0.01267  Uiso   1.00
C257   C     0.21030   0.18910   0.59150   0.01267  Uiso   1.00
C258   C     0.97860   0.10580   0.67660   0.01267  Uiso   1.00
C259   C     0.31460   0.22950   0.90400   0.01267  Uiso   1.00
C260   C     0.33380   0.14090   0.42840   0.01267  Uiso   1.00
C261   C     0.47450   0.73940   0.72040   0.01267  Uiso   1.00
C262   C     0.79230   0.74850   0.93970   0.01267  Uiso   1.00
C263   C     0.05380   0.51420   0.63470   0.01267  Uiso   1.00
C264   C     0.78970   0.81090   0.40850   0.01267  Uiso   1.00
C265   C     0.27600   0.10079   0.23090   0.01267  Uiso   1.00
C266   C     0.68510   0.94900   0.81540   0.01267  Uiso   1.00
C267   C     0.22870   0.39560   0.58350   0.01267  Uiso   1.00
C268   C     0.18540   0.72950   0.40400   0.01267  Uiso   1.00
C269   C     0.64860   0.14710   0.08800   0.01267  Uiso   1.00
C270   C     0.83190   0.85303   0.69811   0.01267  Uiso   1.00
C271   C     0.18420   0.84760   0.90700   0.01267  Uiso   1.00
C272   C     0.95370   0.34480   0.89250   0.01267  Uiso   1.00
C273   C     0.81350   0.36080   0.38930   0.01267  Uiso   1.00
C274   C     0.19280   0.53820   0.85835   0.01267  Uiso   1.00
C275   C     0.25860   0.32650   0.90480   0.01267  Uiso   1.00
C276   C     0.74790   0.73360   0.11580   0.01267  Uiso   1.00
C277   C     0.37120   0.12830   0.67040   0.01267  Uiso   1.00
C278   C     0.02140   0.89420   0.32340   0.01267  Uiso   1.00
C279   C     0.22930   0.04920   0.80322   0.01267  Uiso   1.00
C280   C     0.05020   0.49550   0.89640   0.01267  Uiso   1.00
C281   C     0.14290   0.57638   0.90259   0.01267  Uiso   1.00
C282   C     0.42080   0.26464   0.21480   0.01267  Uiso   1.00
C283   C     0.86570   0.62582   0.68450   0.01267  Uiso   1.00
C284   C     0.28130   0.87140   0.83770   0.01267  Uiso   1.00
C285   C     0.57070   0.94620   0.57820   0.01267  Uiso   1.00
C286   C     0.80510   0.90120   0.74430   0.01267  Uiso   1.00
C287   C     0.71270   0.06329   0.71553   0.01267  Uiso   1.00
C288   C     0.81070   0.43643   0.72378   0.01267  Uiso   1.00
N1     N     0.53960   0.90525   0.27073   0.01267  Uiso   1.00
N2     N     0.64570   0.16783   0.65877   0.01267  Uiso   1.00
N3     N     0.46890   0.23246   0.23758   0.01267  Uiso   1.00
N4     N     0.66910   0.11519   0.73889   0.01267  Uiso   1.00
N5     N     0.36470   0.17247   0.15363   0.01267  Uiso   1.00
N6     N     0.93960   0.63459   0.65995   0.01267  Uiso   1.00
N7     N     0.53590   0.21205   0.74305   0.01267  Uiso   1.00
N8     N     0.46650   0.87718   0.74533   0.01267  Uiso   1.00
N9     N     0.03590   0.28795   0.75695   0.01267  Uiso   1.00
N10    N     0.85430   0.66783   0.15877   0.01267  Uiso   1.00
N11    N     0.54800   0.86532   0.35118   0.01267  Uiso   1.00
N12    N     0.63530   0.82753   0.84637   0.01267  Uiso   1.00
N13    N     0.45200   0.13468   0.64882   0.01267  Uiso   1.00
N14    N     0.59610   0.04143   0.64784   0.01267  Uiso   1.00
N15    N     0.53110   0.76754   0.76242   0.01267  Uiso   1.00
N16    N     0.32960   0.14907   0.25022   0.01267  Uiso   1.00
N17    N     0.59950   0.93991   0.82871   0.01267  Uiso   1.00
N18    N     0.03350   0.37718   0.24533   0.01267  Uiso   1.00
N19    N     0.86470   0.32753   0.34637   0.01267  Uiso   1.00
N20    N     0.82960   0.35093   0.24978   0.01267  Uiso   1.00
N21    N     0.06040   0.36541   0.34005   0.01267  Uiso   1.00
N22    N     0.96040   0.40525   0.77073   0.01267  Uiso   1.00
N23    N     0.96410   0.71205   0.24305   0.01267  Uiso   1.00
N24    N     0.09950   0.56009   0.67129   0.01267  Uiso   1.00
N25    N     0.67040   0.85093   0.74978   0.01267  Uiso   1.00
N26    N     0.04800   0.63468   0.14882   0.01267  Uiso   1.00
N27    N     0.90390   0.54143   0.14784   0.01267  Uiso   1.00
N28    N     0.03110   0.73246   0.73758   0.01267  Uiso   1.00
N29    N     0.56040   0.13459   0.15995   0.01267  Uiso   1.00
N30    N     0.35430   0.83217   0.34123   0.01267  Uiso   1.00
N31    N     0.40050   0.06009   0.17129   0.01267  Uiso   1.00
N32    N     0.43960   0.86541   0.84005   0.01267  Uiso   1.00
N33    N     0.46410   0.78795   0.25695   0.01267  Uiso   1.00
N34    N     0.13530   0.67247   0.65363   0.01267  Uiso   1.00
N35    N     0.53350   0.12282   0.25467   0.01267  Uiso   1.00
N36    N     0.90050   0.43991   0.32871   0.01267  Uiso   1.00
N37    N     0.40390   0.95857   0.35216   0.01267  Uiso   1.00
N38    N     0.83090   0.61519   0.23889   0.01267  Uiso   1.00
N39    N     0.14570   0.33217   0.84123   0.01267  Uiso   1.00
N40    N     0.09610   0.45857   0.85216   0.01267  Uiso   1.00
N41    N     0.95200   0.36532   0.85118   0.01267  Uiso   1.00
N42    N     0.96650   0.62282   0.75467   0.01267  Uiso   1.00
N43    N     0.33090   0.88481   0.26111   0.01267  Uiso   1.00
N44    N     0.16910   0.38481   0.76111   0.01267  Uiso   1.00
N45    N     0.03960   0.59475   0.22927   0.01267  Uiso   1.00
N46    N     0.96890   0.26754   0.26242   0.01267  Uiso   1.00
N47    N     0.46040   0.09475   0.72927   0.01267  Uiso   1.00
N48    N     0.17040   0.64907   0.75022   0.01267  Uiso   1.00
O1     O     0.08060   0.94430   0.78750   0.01267  Uiso   1.00
O2     O     0.54120   0.62388   0.34360   0.01267  Uiso   1.00
O3     O     0.86620   0.77360   0.96000   0.01267  Uiso   1.00
O4     O     0.97210   0.94545   0.84690   0.01267  Uiso   1.00
O5     O     0.88720   0.24722   0.57544   0.01267  Uiso   1.00
O6     O     0.06280   0.91330   0.36800   0.01267  Uiso   1.00
O7     O     0.68120   0.14704   0.94180   0.01267  Uiso   1.00
O8     O     0.81880   0.64704   0.44180   0.01267  Uiso   1.00
O9     O     0.11760   0.86940   0.89382   0.01267  Uiso   1.00
O10    O     0.28130   0.71686   0.05877   0.01267  Uiso   1.00
O11    O     0.89250   0.32500   0.04177   0.01267  Uiso   1.00
O12    O     0.31880   0.85296   0.05820   0.01267  Uiso   1.00
O13    O     0.21870   0.21686   0.55877   0.01267  Uiso   1.00
O14    O     0.84620   0.94286   0.21573   0.01267  Uiso   1.00
O15    O     0.71870   0.28314   0.94123   0.01267  Uiso   1.00
O16    O     0.18360   0.92240   0.66690   0.01267  Uiso   1.00
O17    O     0.99140   0.92490   0.29880   0.01267  Uiso   1.00
O18    O     0.78130   0.78314   0.44123   0.01267  Uiso   1.00
O19    O     0.47210   0.55455   0.65310   0.01267  Uiso   1.00
O20    O     0.95880   0.12388   0.84360   0.01267  Uiso   1.00
O21    O     0.04120   0.87612   0.15640   0.01267  Uiso   1.00
O22    O     0.68360   0.68460   0.56520   0.01267  Uiso   1.00
O23    O     0.02790   0.05455   0.15310   0.01267  Uiso   1.00
O24    O     0.26110   0.53255   0.34291   0.01267  Uiso   1.00
O25    O     0.76110   0.96745   0.15709   0.01267  Uiso   1.00
O26    O     0.24110   0.65731   0.91976   0.01267  Uiso   1.00
O27    O     0.13380   0.22640   0.04000   0.01267  Uiso   1.00
O28    O     0.11640   0.25012   0.47100   0.01267  Uiso   1.00
O29    O     0.20900   0.67874   0.39550   0.01267  Uiso   1.00
O30    O     0.44620   0.69020   0.86851   0.01267  Uiso   1.00
O31    O     0.29100   0.17874   0.89550   0.01267  Uiso   1.00
O32    O     0.94400   0.03103   0.78775   0.01267  Uiso   1.00
O33    O     0.23830   0.29550   0.05560   0.01267  Uiso   1.00
O34    O     0.76170   0.70450   0.94440   0.01267  Uiso   1.00
O35    O     0.81640   0.07760   0.33310   0.01267  Uiso   1.00
O36    O     0.81640   0.18460   0.06520   0.01267  Uiso   1.00
O37    O     0.73890   0.46745   0.65709   0.01267  Uiso   1.00
O38    O     0.91940   0.05570   0.21250   0.01267  Uiso   1.00
O39    O     0.39250   0.17500   0.45823   0.01267  Uiso   1.00
O40    O     0.34620   0.55714   0.28427   0.01267  Uiso   1.00
O41    O     0.86310   0.82260   0.39240   0.01267  Uiso   1.00
O42    O     0.61640   0.24988   0.02900   0.01267  Uiso   1.00
O43    O     0.05380   0.19020   0.36851   0.01267  Uiso   1.00
O44    O     0.79100   0.32126   0.60450   0.01267  Uiso   1.00
O45    O     0.63690   0.32260   0.89240   0.01267  Uiso   1.00
O46    O     0.18120   0.35296   0.55820   0.01267  Uiso   1.00
O47    O     0.04720   0.09530   0.31790   0.01267  Uiso   1.00
O48    O     0.68980   0.60770   0.41510   0.01267  Uiso   1.00
O49    O     0.45880   0.37612   0.65640   0.01267  Uiso   1.00
O50    O     0.36310   0.67740   0.10760   0.01267  Uiso   1.00
O51    O     0.31020   0.39230   0.58490   0.01267  Uiso   1.00
O52    O     0.54720   0.40470   0.18210   0.01267  Uiso   1.00
O53    O     0.41940   0.44430   0.28750   0.01267  Uiso   1.00
O54    O     0.28880   0.94590   0.61680   0.01267  Uiso   1.00
O55    O     0.49140   0.57510   0.20120   0.01267  Uiso   1.00
O56    O     0.43720   0.41330   0.86800   0.01267  Uiso   1.00
O57    O     0.74110   0.84269   0.58024   0.01267  Uiso   1.00
O58    O     0.61760   0.63060   0.60618   0.01267  Uiso   1.00
O59    O     0.93720   0.08670   0.63200   0.01267  Uiso   1.00
O60    O     0.44400   0.46897   0.71225   0.01267  Uiso   1.00
O61    O     0.88360   0.74988   0.52900   0.01267  Uiso   1.00
O62    O     0.11280   0.75278   0.42456   0.01267  Uiso   1.00
O63    O     0.52790   0.44545   0.34690   0.01267  Uiso   1.00
O64    O     0.05600   0.96897   0.21225   0.01267  Uiso   1.00
O65    O     0.15380   0.05714   0.78427   0.01267  Uiso   1.00
O66    O     0.21120   0.44590   0.11680   0.01267  Uiso   1.00
O67    O     0.75890   0.34269   0.08024   0.01267  Uiso   1.00
O68    O     0.65380   0.44286   0.71573   0.01267  Uiso   1.00
O69    O     0.81020   0.10770   0.91510   0.01267  Uiso   1.00
O70    O     0.31640   0.42240   0.16690   0.01267  Uiso   1.00
O71    O     0.55600   0.53103   0.28775   0.01267  Uiso   1.00
O72    O     0.38360   0.75012   0.97100   0.01267  Uiso   1.00
O73    O     0.88240   0.13060   0.10618   0.01267  Uiso   1.00
O74    O     0.95280   0.90470   0.68210   0.01267  Uiso   1.00
O75    O     0.36620   0.72640   0.54000   0.01267  Uiso   1.00
O76    O     0.38720   0.25278   0.92456   0.01267  Uiso   1.00
O77    O     0.25890   0.15731   0.41976   0.01267  Uiso   1.00
O78    O     0.45280   0.59530   0.81790   0.01267  Uiso   1.00
O79    O     0.00860   0.07510   0.70120   0.01267  Uiso   1.00
O80    O     0.18980   0.89230   0.08490   0.01267  Uiso   1.00
O81    O     0.63380   0.27360   0.46000   0.01267  Uiso   1.00
O82    O     0.73830   0.20450   0.44440   0.01267  Uiso   1.00
O83    O     0.13690   0.17740   0.60760   0.01267  Uiso   1.00
O84    O     0.70900   0.82126   0.10450   0.01267  Uiso   1.00
O85    O     0.31640   0.31540   0.43480   0.01267  Uiso   1.00
O86    O     0.18360   0.81540   0.93480   0.01267  Uiso   1.00
O87    O     0.23890   0.03255   0.84291   0.01267  Uiso   1.00
O88    O     0.55380   0.30980   0.13149   0.01267  Uiso   1.00
O89    O     0.78880   0.55410   0.88320   0.01267  Uiso   1.00
O90    O     0.10750   0.67500   0.95823   0.01267  Uiso   1.00
O91    O     0.71120   0.05410   0.38320   0.01267  Uiso   1.00
O92    O     0.68360   0.57760   0.83310   0.01267  Uiso   1.00
O93    O     0.61280   0.74722   0.07544   0.01267  Uiso   1.00
O94    O     0.60750   0.82500   0.54177   0.01267  Uiso   1.00
O95    O     0.56280   0.58670   0.13200   0.01267  Uiso   1.00
O96    O     0.50860   0.42490   0.79880   0.01267  Uiso   1.00
O97    O     0.26170   0.79550   0.55560   0.01267  Uiso   1.00
O98    O     0.94620   0.80980   0.63149   0.01267  Uiso   1.00
O99    O     0.58060   0.55570   0.71250   0.01267  Uiso   1.00
O100   O     0.38240   0.36940   0.39382   0.01267  Uiso   1.00
