data_image0
_cell_length_a       9.8475
_cell_length_b       29.058
_cell_length_c       10.8151
_cell_angle_alpha    90
_cell_angle_beta     92.311
_cell_angle_gamma    90

_symmetry_space_group_name_H-M    "P 1"
_symmetry_int_tables_number       1

loop_
  _symmetry_equiv_pos_as_xyz
  'x, y, z'

loop_
  _atom_site_label
  _atom_site_occupancy
  _atom_site_fract_x
  _atom_site_fract_y
  _atom_site_fract_z
  _atom_site_thermal_displace_type
  _atom_site_B_iso_or_equiv
  _atom_site_type_symbol
  C1       1.0000 0.07640  0.34910  0.91230  Biso   1.000  C
  C2       1.0000 0.98350  0.38040  0.86620  Biso   1.000  C
  H1       1.0000 0.01440  0.40820  0.83040  Biso   1.000  H
  C3       1.0000 0.84320  0.37210  0.87100  Biso   1.000  C
  H2       1.0000 0.78080  0.39390  0.83600  Biso   1.000  H
  C4       1.0000 0.79500  0.33340  0.92480  Biso   1.000  C
  C5       1.0000 0.88840  0.30156  0.98420  Biso   1.000  C
  C6       1.0000 0.84500  0.26380  0.06000  Biso   1.000  C
  C7       1.0000 0.93700  0.23310  0.10740  Biso   1.000  C
  H3       1.0000 0.90770  0.20930  0.16030  Biso   1.000  H
  C8       1.0000 0.07510  0.23610  0.07940  Biso   1.000  C
  H4       1.0000 0.13650  0.21300  0.10890  Biso   1.000  H
  C9       1.0000 0.12230  0.27168  0.01040  Biso   1.000  C
  C10      1.0000 0.03190  0.30716  0.96740  Biso   1.000  C
  C11      1.0000 0.21930  0.36584  0.92000  Biso   1.000  C
  C12      1.0000 0.64790  0.32250  0.90170  Biso   1.000  C
  C13      1.0000 0.70420  0.26150  0.10600  Biso   1.000  C
  C14      1.0000 0.26820  0.26743  0.96970  Biso   1.000  C
  C15      1.0000 0.02620  0.48660  0.23040  Biso   1.000  C
  H5       1.0000 0.05760  0.48330  0.31410  Biso   1.000  H
  C16      1.0000 0.11820  0.48940  0.14020  Biso   1.000  C
  C17      1.0000 0.26350  0.47700  0.17310  Biso   1.000  C
  C18      1.0000 0.07140  0.49878  0.01400  Biso   1.000  C
  C19      1.0000 0.16150  0.50640  0.91700  Biso   1.000  C
  C20      1.0000 0.31120  0.51460  0.94100  Biso   1.000  C
  C21      1.0000 0.11360  0.51160  0.79760  Biso   1.000  C
  H6       1.0000 0.17580  0.51410  0.73300  Biso   1.000  H
  O1       1.0000 0.26440  0.39064  0.83350  Biso   1.000  O
  O2       1.0000 0.29300  0.35851  0.01520  Biso   1.000  O
  O3       1.0000 0.56340  0.35413  0.90390  Biso   1.000  O
  O4       1.0000 0.61730  0.28182  0.87120  Biso   1.000  O
  O5       1.0000 0.64660  0.29673  0.14760  Biso   1.000  O
  O6       1.0000 0.64620  0.22235  0.11260  Biso   1.000  O
  O7       1.0000 0.28820  0.27296  0.85780  Biso   1.000  O
  O8       1.0000 0.35750  0.25534  0.04920  Biso   1.000  O
  O9       1.0000 0.31550  0.49100  0.27500  Biso   1.000  O
  O10      1.0000 0.32210  0.45016  0.10160  Biso   1.000  O
  O11      1.0000 0.34000  0.54627  0.01520  Biso   1.000  O
  O12      1.0000 0.39500  0.49090  0.88390  Biso   1.000  O
  Er1      1.0000 0.45512  0.41877  0.95764  Biso   1.000  Er
  Er2      1.0000 0.46109  0.25170  0.23726  Biso   1.000  Er
  C22      1.0000 0.92360  0.84910  0.58770  Biso   1.000  C
  C23      1.0000 0.01650  0.88040  0.63380  Biso   1.000  C
  H7       1.0000 0.98560  0.90820  0.66960  Biso   1.000  H
  C24      1.0000 0.15680  0.87210  0.62900  Biso   1.000  C
  H8       1.0000 0.21920  0.89390  0.66400  Biso   1.000  H
  C25      1.0000 0.20500  0.83340  0.57520  Biso   1.000  C
  C26      1.0000 0.11160  0.80156  0.51580  Biso   1.000  C
  C27      1.0000 0.15500  0.76380  0.44000  Biso   1.000  C
  C28      1.0000 0.06300  0.73310  0.39260  Biso   1.000  C
  H9       1.0000 0.09230  0.70930  0.33970  Biso   1.000  H
  C29      1.0000 0.92490  0.73610  0.42060  Biso   1.000  C
  H10      1.0000 0.86350  0.71300  0.39110  Biso   1.000  H
  C30      1.0000 0.87770  0.77168  0.48960  Biso   1.000  C
  C31      1.0000 0.96810  0.80716  0.53260  Biso   1.000  C
  C32      1.0000 0.78070  0.86584  0.58000  Biso   1.000  C
  C33      1.0000 0.35210  0.82250  0.59830  Biso   1.000  C
  C34      1.0000 0.29580  0.76150  0.39400  Biso   1.000  C
  C35      1.0000 0.73180  0.76743  0.53030  Biso   1.000  C
  C36      1.0000 0.97380  0.98660  0.26960  Biso   1.000  C
  H11      1.0000 0.94240  0.98330  0.18590  Biso   1.000  H
  C37      1.0000 0.88180  0.98940  0.35980  Biso   1.000  C
  C38      1.0000 0.73650  0.97700  0.32690  Biso   1.000  C
  C39      1.0000 0.92860  0.99878  0.48600  Biso   1.000  C
  C40      1.0000 0.83850  0.00640  0.58300  Biso   1.000  C
  C41      1.0000 0.68880  0.01460  0.55900  Biso   1.000  C
  C42      1.0000 0.88640  0.01160  0.70240  Biso   1.000  C
  H12      1.0000 0.82420  0.01410  0.76700  Biso   1.000  H
  O13      1.0000 0.73560  0.89064  0.66650  Biso   1.000  O
  O14      1.0000 0.70700  0.85851  0.48480  Biso   1.000  O
  O15      1.0000 0.43660  0.85413  0.59610  Biso   1.000  O
  O16      1.0000 0.38270  0.78182  0.62880  Biso   1.000  O
  O17      1.0000 0.35340  0.79673  0.35240  Biso   1.000  O
  O18      1.0000 0.35380  0.72235  0.38740  Biso   1.000  O
  O19      1.0000 0.71180  0.77296  0.64220  Biso   1.000  O
  O20      1.0000 0.64250  0.75534  0.45080  Biso   1.000  O
  O21      1.0000 0.68450  0.99100  0.22500  Biso   1.000  O
  O22      1.0000 0.67790  0.95016  0.39840  Biso   1.000  O
  O23      1.0000 0.66000  0.04627  0.48480  Biso   1.000  O
  O24      1.0000 0.60500  0.99090  0.61610  Biso   1.000  O
  Er3      1.0000 0.54488  0.91877  0.54236  Biso   1.000  Er
  Er4      1.0000 0.53891  0.75170  0.26274  Biso   1.000  Er
  C43      1.0000 0.92360  0.65090  0.08770  Biso   1.000  C
  C44      1.0000 0.01650  0.61960  0.13380  Biso   1.000  C
  H13      1.0000 0.98560  0.59180  0.16960  Biso   1.000  H
  C45      1.0000 0.15680  0.62790  0.12900  Biso   1.000  C
  H14      1.0000 0.21920  0.60610  0.16400  Biso   1.000  H
  C46      1.0000 0.20500  0.66660  0.07520  Biso   1.000  C
  C47      1.0000 0.11160  0.69844  0.01580  Biso   1.000  C
  C48      1.0000 0.15500  0.73620  0.94000  Biso   1.000  C
  C49      1.0000 0.06300  0.76690  0.89260  Biso   1.000  C
  H15      1.0000 0.09230  0.79070  0.83970  Biso   1.000  H
  C50      1.0000 0.92490  0.76390  0.92060  Biso   1.000  C
  H16      1.0000 0.86350  0.78700  0.89110  Biso   1.000  H
  C51      1.0000 0.87770  0.72832  0.98960  Biso   1.000  C
  C52      1.0000 0.96810  0.69284  0.03260  Biso   1.000  C
  C53      1.0000 0.78070  0.63416  0.08000  Biso   1.000  C
  C54      1.0000 0.35210  0.67750  0.09830  Biso   1.000  C
  C55      1.0000 0.29580  0.73850  0.89400  Biso   1.000  C
  C56      1.0000 0.73180  0.73257  0.03030  Biso   1.000  C
  C57      1.0000 0.97380  0.51340  0.76960  Biso   1.000  C
  H17      1.0000 0.94240  0.51670  0.68590  Biso   1.000  H
  C58      1.0000 0.88180  0.51060  0.85980  Biso   1.000  C
  C59      1.0000 0.73650  0.52300  0.82690  Biso   1.000  C
  C60      1.0000 0.92860  0.50122  0.98600  Biso   1.000  C
  C61      1.0000 0.83850  0.49360  0.08300  Biso   1.000  C
  C62      1.0000 0.68880  0.48540  0.05900  Biso   1.000  C
  C63      1.0000 0.88640  0.48840  0.20240  Biso   1.000  C
  H18      1.0000 0.82420  0.48590  0.26700  Biso   1.000  H
  O25      1.0000 0.73560  0.60936  0.16650  Biso   1.000  O
  O26      1.0000 0.70700  0.64149  0.98480  Biso   1.000  O
  O27      1.0000 0.43660  0.64587  0.09610  Biso   1.000  O
  O28      1.0000 0.38270  0.71818  0.12880  Biso   1.000  O
  O29      1.0000 0.35340  0.70327  0.85240  Biso   1.000  O
  O30      1.0000 0.35380  0.77765  0.88740  Biso   1.000  O
  O31      1.0000 0.71180  0.72704  0.14220  Biso   1.000  O
  O32      1.0000 0.64250  0.74466  0.95080  Biso   1.000  O
  O33      1.0000 0.68450  0.50900  0.72500  Biso   1.000  O
  O34      1.0000 0.67790  0.54984  0.89840  Biso   1.000  O
  O35      1.0000 0.66000  0.45373  0.98480  Biso   1.000  O
  O36      1.0000 0.60500  0.50910  0.11610  Biso   1.000  O
  Er5      1.0000 0.54488  0.58123  0.04236  Biso   1.000  Er
  Er6      1.0000 0.53891  0.74830  0.76274  Biso   1.000  Er
  C64      1.0000 0.07640  0.15090  0.41230  Biso   1.000  C
  C65      1.0000 0.98350  0.11960  0.36620  Biso   1.000  C
  H19      1.0000 0.01440  0.09180  0.33040  Biso   1.000  H
  C66      1.0000 0.84320  0.12790  0.37100  Biso   1.000  C
  H20      1.0000 0.78080  0.10610  0.33600  Biso   1.000  H
  C67      1.0000 0.79500  0.16660  0.42480  Biso   1.000  C
  C68      1.0000 0.88840  0.19844  0.48420  Biso   1.000  C
  C69      1.0000 0.84500  0.23620  0.56000  Biso   1.000  C
  C70      1.0000 0.93700  0.26690  0.60740  Biso   1.000  C
  H21      1.0000 0.90770  0.29070  0.66030  Biso   1.000  H
  C71      1.0000 0.07510  0.26390  0.57940  Biso   1.000  C
  H22      1.0000 0.13650  0.28700  0.60890  Biso   1.000  H
  C72      1.0000 0.12230  0.22832  0.51040  Biso   1.000  C
  C73      1.0000 0.03190  0.19284  0.46740  Biso   1.000  C
  C74      1.0000 0.21930  0.13416  0.42000  Biso   1.000  C
  C75      1.0000 0.64790  0.17750  0.40170  Biso   1.000  C
  C76      1.0000 0.70420  0.23850  0.60600  Biso   1.000  C
  C77      1.0000 0.26820  0.23257  0.46970  Biso   1.000  C
  C78      1.0000 0.02620  0.01340  0.73040  Biso   1.000  C
  H23      1.0000 0.05760  0.01670  0.81410  Biso   1.000  H
  C79      1.0000 0.11820  0.01060  0.64020  Biso   1.000  C
  C80      1.0000 0.26350  0.02300  0.67310  Biso   1.000  C
  C81      1.0000 0.07140  0.00122  0.51400  Biso   1.000  C
  C82      1.0000 0.16150  0.99360  0.41700  Biso   1.000  C
  C83      1.0000 0.31120  0.98540  0.44100  Biso   1.000  C
  C84      1.0000 0.11360  0.98840  0.29760  Biso   1.000  C
  H24      1.0000 0.17580  0.98590  0.23300  Biso   1.000  H
  O37      1.0000 0.26440  0.10936  0.33350  Biso   1.000  O
  O38      1.0000 0.29300  0.14149  0.51520  Biso   1.000  O
  O39      1.0000 0.56340  0.14587  0.40390  Biso   1.000  O
  O40      1.0000 0.61730  0.21818  0.37120  Biso   1.000  O
  O41      1.0000 0.64660  0.20327  0.64760  Biso   1.000  O
  O42      1.0000 0.64620  0.27765  0.61260  Biso   1.000  O
  O43      1.0000 0.28820  0.22704  0.35780  Biso   1.000  O
  O44      1.0000 0.35750  0.24466  0.54920  Biso   1.000  O
  O45      1.0000 0.31550  0.00900  0.77500  Biso   1.000  O
  O46      1.0000 0.32210  0.04984  0.60160  Biso   1.000  O
  O47      1.0000 0.34000  0.95373  0.51520  Biso   1.000  O
  O48      1.0000 0.39500  0.00910  0.38390  Biso   1.000  O
  Er7      1.0000 0.45512  0.08123  0.45764  Biso   1.000  Er
  Er8      1.0000 0.46109  0.24830  0.73726  Biso   1.000  Er
