data_image0
_cell_length_a       31.936
_cell_length_b       10.664
_cell_length_c       12.361
_cell_angle_alpha    90
_cell_angle_beta     96.2
_cell_angle_gamma    90

_symmetry_space_group_name_H-M    "P 1"
_symmetry_int_tables_number       1

loop_
  _symmetry_equiv_pos_as_xyz
  'x, y, z'

loop_
  _atom_site_label
  _atom_site_occupancy
  _atom_site_fract_x
  _atom_site_fract_y
  _atom_site_fract_z
  _atom_site_thermal_displace_type
  _atom_site_B_iso_or_equiv
  _atom_site_type_symbol
  Mn1      1.0000 0.24953  0.25010  0.49958  Biso   1.000  Mn
  Cu1      1.0000 0.99565  0.25738  0.28498  Biso   1.000  Cu
  C1       1.0000 0.07450  0.25460  0.43450  Biso   1.000  C
  C2       1.0000 0.14510  0.24510  0.48470  Biso   1.000  C
  C3       1.0000 0.35260  0.25200  0.53840  Biso   1.000  C
  C4       1.0000 0.42010  0.23970  0.62670  Biso   1.000  C
  C5       1.0000 0.25530  0.95610  0.41090  Biso   1.000  C
  C6       1.0000 0.25050  0.54400  0.59050  Biso   1.000  C
  C7       1.0000 0.25270  0.67130  0.73830  Biso   1.000  C
  C8       1.0000 0.25180  0.82700  0.26520  Biso   1.000  C
  N1       1.0000 0.04310  0.25410  0.38000  Biso   1.000  N
  N2       1.0000 0.10618  0.25580  0.50340  Biso   1.000  N
  N3       1.0000 0.18040  0.23520  0.47990  Biso   1.000  N
  N4       1.0000 0.31800  0.26150  0.52160  Biso   1.000  N
  N5       1.0000 0.39260  0.23770  0.54330  Biso   1.000  N
  N6       1.0000 0.44860  0.24020  0.69000  Biso   1.000  N
  N7       1.0000 0.25050  0.84290  0.36900  Biso   1.000  N
  N8       1.0000 0.25620  0.04760  0.45540  Biso   1.000  N
  N9       1.0000 0.24610  0.45150  0.54400  Biso   1.000  N
  N10      1.0000 0.25630  0.65370  0.63520  Biso   1.000  N
  N11      1.0000 0.25110  0.69980  0.82560  Biso   1.000  N
  N12      1.0000 0.25120  0.79940  0.17520  Biso   1.000  N
  Mn2      1.0000 0.25047  0.75010  0.00042  Biso   1.000  Mn
  Cu2      1.0000 0.50435  0.75738  0.21502  Biso   1.000  Cu
  C9       1.0000 0.42550  0.75460  0.06550  Biso   1.000  C
  C10      1.0000 0.35490  0.74510  0.01530  Biso   1.000  C
  C11      1.0000 0.14740  0.75200  0.96160  Biso   1.000  C
  C12      1.0000 0.07990  0.73970  0.87330  Biso   1.000  C
  C13      1.0000 0.24470  0.45610  0.08910  Biso   1.000  C
  C14      1.0000 0.24950  0.04400  0.90950  Biso   1.000  C
  C15      1.0000 0.24730  0.17130  0.76170  Biso   1.000  C
  C16      1.0000 0.24820  0.32700  0.23480  Biso   1.000  C
  N13      1.0000 0.45690  0.75410  0.12000  Biso   1.000  N
  N14      1.0000 0.39382  0.75580  0.99660  Biso   1.000  N
  N15      1.0000 0.31960  0.73520  0.02010  Biso   1.000  N
  N16      1.0000 0.18200  0.76150  0.97840  Biso   1.000  N
  N17      1.0000 0.10740  0.73770  0.95670  Biso   1.000  N
  N18      1.0000 0.05140  0.74020  0.81000  Biso   1.000  N
  N19      1.0000 0.24950  0.34290  0.13100  Biso   1.000  N
  N20      1.0000 0.24380  0.54760  0.04460  Biso   1.000  N
  N21      1.0000 0.25390  0.95150  0.95600  Biso   1.000  N
  N22      1.0000 0.24370  0.15370  0.86480  Biso   1.000  N
  N23      1.0000 0.24890  0.19980  0.67440  Biso   1.000  N
  N24      1.0000 0.24880  0.29940  0.32480  Biso   1.000  N
  Mn3      1.0000 0.75047  0.74990  0.50042  Biso   1.000  Mn
  Cu3      1.0000 0.00435  0.74262  0.71502  Biso   1.000  Cu
  C17      1.0000 0.92550  0.74540  0.56550  Biso   1.000  C
  C18      1.0000 0.85490  0.75490  0.51530  Biso   1.000  C
  C19      1.0000 0.64740  0.74800  0.46160  Biso   1.000  C
  C20      1.0000 0.57990  0.76030  0.37330  Biso   1.000  C
  C21      1.0000 0.74470  0.04390  0.58910  Biso   1.000  C
  C22      1.0000 0.74950  0.45600  0.40950  Biso   1.000  C
  C23      1.0000 0.74730  0.32870  0.26170  Biso   1.000  C
  C24      1.0000 0.74820  0.17300  0.73480  Biso   1.000  C
  N25      1.0000 0.95690  0.74590  0.62000  Biso   1.000  N
  N26      1.0000 0.89382  0.74420  0.49660  Biso   1.000  N
  N27      1.0000 0.81960  0.76480  0.52010  Biso   1.000  N
  N28      1.0000 0.68200  0.73850  0.47840  Biso   1.000  N
  N29      1.0000 0.60740  0.76230  0.45670  Biso   1.000  N
  N30      1.0000 0.55140  0.75980  0.31000  Biso   1.000  N
  N31      1.0000 0.74950  0.15710  0.63100  Biso   1.000  N
  N32      1.0000 0.74380  0.95240  0.54460  Biso   1.000  N
  N33      1.0000 0.75390  0.54850  0.45600  Biso   1.000  N
  N34      1.0000 0.74370  0.34630  0.36480  Biso   1.000  N
  N35      1.0000 0.74890  0.30020  0.17440  Biso   1.000  N
  N36      1.0000 0.74880  0.20060  0.82480  Biso   1.000  N
  Mn4      1.0000 0.74953  0.24990  0.99958  Biso   1.000  Mn
  Cu4      1.0000 0.49565  0.24262  0.78498  Biso   1.000  Cu
  C25      1.0000 0.57450  0.24540  0.93450  Biso   1.000  C
  C26      1.0000 0.64510  0.25490  0.98470  Biso   1.000  C
  C27      1.0000 0.85260  0.24800  0.03840  Biso   1.000  C
  C28      1.0000 0.92010  0.26030  0.12670  Biso   1.000  C
  C29      1.0000 0.75530  0.54390  0.91090  Biso   1.000  C
  C30      1.0000 0.75050  0.95600  0.09050  Biso   1.000  C
  C31      1.0000 0.75270  0.82870  0.23830  Biso   1.000  C
  C32      1.0000 0.75180  0.67300  0.76520  Biso   1.000  C
  N37      1.0000 0.54310  0.24590  0.88000  Biso   1.000  N
  N38      1.0000 0.60618  0.24420  0.00340  Biso   1.000  N
  N39      1.0000 0.68040  0.26480  0.97990  Biso   1.000  N
  N40      1.0000 0.81800  0.23850  0.02160  Biso   1.000  N
  N41      1.0000 0.89260  0.26230  0.04330  Biso   1.000  N
  N42      1.0000 0.94860  0.25980  0.19000  Biso   1.000  N
  N43      1.0000 0.75050  0.65710  0.86900  Biso   1.000  N
  N44      1.0000 0.75620  0.45240  0.95540  Biso   1.000  N
  N45      1.0000 0.74610  0.04850  0.04400  Biso   1.000  N
  N46      1.0000 0.75630  0.84630  0.13520  Biso   1.000  N
  N47      1.0000 0.75110  0.80020  0.32560  Biso   1.000  N
  N48      1.0000 0.75120  0.70060  0.67520  Biso   1.000  N
