data_image0
_cell_length_a       17.6352
_cell_length_b       18.5555
_cell_length_c       20.3311
_cell_angle_alpha    90
_cell_angle_beta     90
_cell_angle_gamma    90

_symmetry_space_group_name_H-M    "P 1"
_symmetry_int_tables_number       1

loop_
  _symmetry_equiv_pos_as_xyz
  'x, y, z'

loop_
  _atom_site_label
  _atom_site_occupancy
  _atom_site_fract_x
  _atom_site_fract_y
  _atom_site_fract_z
  _atom_site_thermal_displace_type
  _atom_site_B_iso_or_equiv
  _atom_site_type_symbol
  Ag1      1.0000 0.32277  0.87405  0.85222  Biso   1.000  Ag
  Si1      1.0000 0.46335  0.67984  0.58176  Biso   1.000  Si
  Si2      1.0000 0.92850  0.82584  0.86605  Biso   1.000  Si
  N1       1.0000 0.36230  0.80200  0.76430  Biso   1.000  N
  N2       1.0000 0.60720  0.47640  0.64260  Biso   1.000  N
  N3       1.0000 0.19310  0.86340  0.86060  Biso   1.000  N
  N4       1.0000 0.86320  0.69630  0.05620  Biso   1.000  N
  C1       1.0000 0.53550  0.47210  0.62460  Biso   1.000  C
  H1       1.0000 0.51270  0.42570  0.62330  Biso   1.000  H
  C2       1.0000 0.49120  0.53080  0.60740  Biso   1.000  C
  H2       1.0000 0.43990  0.52410  0.59470  Biso   1.000  H
  C3       1.0000 0.52180  0.59880  0.60900  Biso   1.000  C
  C4       1.0000 0.59490  0.60390  0.62790  Biso   1.000  C
  H3       1.0000 0.61860  0.64990  0.62950  Biso   1.000  H
  C5       1.0000 0.63610  0.54280  0.64510  Biso   1.000  C
  H4       1.0000 0.68710  0.54860  0.65920  Biso   1.000  H
  C6       1.0000 0.38750  0.65100  0.52370  Biso   1.000  C
  H5       1.0000 0.35810  0.61080  0.54310  Biso   1.000  H
  H6       1.0000 0.35230  0.69160  0.51550  Biso   1.000  H
  C7       1.0000 0.42440  0.62610  0.45730  Biso   1.000  C
  H7       1.0000 0.38450  0.61070  0.42680  Biso   1.000  H
  H8       1.0000 0.45900  0.58580  0.46570  Biso   1.000  H
  H9       1.0000 0.45270  0.66630  0.43790  Biso   1.000  H
  C8       1.0000 0.52890  0.74670  0.54400  Biso   1.000  C
  H10      1.0000 0.49990  0.78890  0.52950  Biso   1.000  H
  H11      1.0000 0.55440  0.72480  0.50610  Biso   1.000  H
  H12      1.0000 0.56680  0.76150  0.57650  Biso   1.000  H
  C9       1.0000 0.42130  0.72370  0.65630  Biso   1.000  C
  C10      1.0000 0.35500  0.76320  0.65280  Biso   1.000  C
  H13      1.0000 0.32770  0.76460  0.61260  Biso   1.000  H
  C11      1.0000 0.32780  0.80040  0.70660  Biso   1.000  C
  H14      1.0000 0.28170  0.82640  0.70190  Biso   1.000  H
  C12      1.0000 0.42680  0.76390  0.76830  Biso   1.000  C
  H15      1.0000 0.45290  0.76300  0.80910  Biso   1.000  H
  C13      1.0000 0.45690  0.72620  0.71690  Biso   1.000  C
  H16      1.0000 0.50340  0.70120  0.72290  Biso   1.000  H
  C14      1.0000 0.16240  0.79780  0.85800  Biso   1.000  C
  H17      1.0000 0.19550  0.75760  0.85500  Biso   1.000  H
  C15      1.0000 0.08540  0.78480  0.85940  Biso   1.000  C
  H18      1.0000 0.06710  0.73670  0.85700  Biso   1.000  H
  C16      1.0000 0.03410  0.84240  0.86440  Biso   1.000  C
  C17      1.0000 0.06700  0.91020  0.86900  Biso   1.000  C
  H19      1.0000 0.03560  0.95140  0.87410  Biso   1.000  H
  C18      1.0000 0.14390  0.91850  0.86640  Biso   1.000  C
  H20      1.0000 0.16380  0.96600  0.86890  Biso   1.000  H
  C19      1.0000 0.90140  0.77070  0.79410  Biso   1.000  C
  H21      1.0000 0.93950  0.73210  0.78790  Biso   1.000  H
  H22      1.0000 0.85200  0.74740  0.80290  Biso   1.000  H
  C20      1.0000 0.89540  0.81450  0.73050  Biso   1.000  C
  H23      1.0000 0.88110  0.78260  0.69410  Biso   1.000  H
  H24      1.0000 0.94450  0.83700  0.72090  Biso   1.000  H
  H25      1.0000 0.85680  0.85210  0.73580  Biso   1.000  H
  C21      1.0000 0.87660  0.91340  0.86720  Biso   1.000  C
  H26      1.0000 0.88820  0.94050  0.82700  Biso   1.000  H
  H27      1.0000 0.89240  0.94150  0.90570  Biso   1.000  H
  H28      1.0000 0.82190  0.90430  0.86950  Biso   1.000  H
  C22      1.0000 0.90560  0.77430  0.94320  Biso   1.000  C
  C23      1.0000 0.95700  0.74610  0.98520  Biso   1.000  C
  H29      1.0000 0.00950  0.75160  0.97600  Biso   1.000  H
  C24      1.0000 0.93530  0.70960  0.04130  Biso   1.000  C
  H30      1.0000 0.97360  0.69310  0.07060  Biso   1.000  H
  C25      1.0000 0.81340  0.72250  0.01490  Biso   1.000  C
  H31      1.0000 0.76150  0.71480  0.02490  Biso   1.000  H
  C26      1.0000 0.82950  0.76020  0.95850  Biso   1.000  C
  H32      1.0000 0.78990  0.77630  0.93050  Biso   1.000  H
  Ag2      1.0000 0.17723  0.12595  0.35222  Biso   1.000  Ag
  Si3      1.0000 0.03665  0.32016  0.08176  Biso   1.000  Si
  Si4      1.0000 0.57150  0.17416  0.36605  Biso   1.000  Si
  N5       1.0000 0.13770  0.19800  0.26430  Biso   1.000  N
  N6       1.0000 0.89280  0.52360  0.14260  Biso   1.000  N
  N7       1.0000 0.30690  0.13660  0.36060  Biso   1.000  N
  N8       1.0000 0.63680  0.30370  0.55620  Biso   1.000  N
  C27      1.0000 0.96450  0.52790  0.12460  Biso   1.000  C
  H33      1.0000 0.98730  0.57430  0.12330  Biso   1.000  H
  C28      1.0000 0.00880  0.46920  0.10740  Biso   1.000  C
  H34      1.0000 0.06010  0.47590  0.09470  Biso   1.000  H
  C29      1.0000 0.97820  0.40120  0.10900  Biso   1.000  C
  C30      1.0000 0.90510  0.39610  0.12790  Biso   1.000  C
  H35      1.0000 0.88140  0.35010  0.12950  Biso   1.000  H
  C31      1.0000 0.86390  0.45720  0.14510  Biso   1.000  C
  H36      1.0000 0.81290  0.45140  0.15920  Biso   1.000  H
  C32      1.0000 0.11250  0.34900  0.02370  Biso   1.000  C
  H37      1.0000 0.14190  0.38920  0.04310  Biso   1.000  H
  H38      1.0000 0.14770  0.30840  0.01550  Biso   1.000  H
  C33      1.0000 0.07560  0.37390  0.95730  Biso   1.000  C
  H39      1.0000 0.11550  0.38930  0.92680  Biso   1.000  H
  H40      1.0000 0.04100  0.41420  0.96570  Biso   1.000  H
  H41      1.0000 0.04730  0.33370  0.93790  Biso   1.000  H
  C34      1.0000 0.97110  0.25330  0.04400  Biso   1.000  C
  H42      1.0000 0.00010  0.21110  0.02950  Biso   1.000  H
  H43      1.0000 0.94560  0.27520  0.00610  Biso   1.000  H
  H44      1.0000 0.93320  0.23850  0.07650  Biso   1.000  H
  C35      1.0000 0.07870  0.27630  0.15630  Biso   1.000  C
  C36      1.0000 0.14500  0.23680  0.15280  Biso   1.000  C
  H45      1.0000 0.17230  0.23540  0.11260  Biso   1.000  H
  C37      1.0000 0.17220  0.19960  0.20660  Biso   1.000  C
  H46      1.0000 0.21830  0.17360  0.20190  Biso   1.000  H
  C38      1.0000 0.07320  0.23610  0.26830  Biso   1.000  C
  H47      1.0000 0.04710  0.23700  0.30910  Biso   1.000  H
  C39      1.0000 0.04310  0.27380  0.21690  Biso   1.000  C
  H48      1.0000 0.99660  0.29880  0.22290  Biso   1.000  H
  C40      1.0000 0.33760  0.20220  0.35800  Biso   1.000  C
  H49      1.0000 0.30450  0.24240  0.35500  Biso   1.000  H
  C41      1.0000 0.41460  0.21520  0.35940  Biso   1.000  C
  H50      1.0000 0.43290  0.26330  0.35700  Biso   1.000  H
  C42      1.0000 0.46590  0.15760  0.36440  Biso   1.000  C
  C43      1.0000 0.43300  0.08980  0.36900  Biso   1.000  C
  H51      1.0000 0.46440  0.04860  0.37410  Biso   1.000  H
  C44      1.0000 0.35610  0.08150  0.36640  Biso   1.000  C
  H52      1.0000 0.33620  0.03400  0.36890  Biso   1.000  H
  C45      1.0000 0.59860  0.22930  0.29410  Biso   1.000  C
  H53      1.0000 0.56050  0.26790  0.28790  Biso   1.000  H
  H54      1.0000 0.64800  0.25260  0.30290  Biso   1.000  H
  C46      1.0000 0.60460  0.18550  0.23050  Biso   1.000  C
  H55      1.0000 0.61890  0.21740  0.19410  Biso   1.000  H
  H56      1.0000 0.55550  0.16300  0.22090  Biso   1.000  H
  H57      1.0000 0.64320  0.14790  0.23580  Biso   1.000  H
  C47      1.0000 0.62340  0.08660  0.36720  Biso   1.000  C
  H58      1.0000 0.61180  0.05950  0.32700  Biso   1.000  H
  H59      1.0000 0.60760  0.05850  0.40570  Biso   1.000  H
  H60      1.0000 0.67810  0.09570  0.36950  Biso   1.000  H
  C48      1.0000 0.59440  0.22570  0.44320  Biso   1.000  C
  C49      1.0000 0.54300  0.25390  0.48520  Biso   1.000  C
  H61      1.0000 0.49050  0.24840  0.47600  Biso   1.000  H
  C50      1.0000 0.56470  0.29040  0.54130  Biso   1.000  C
  H62      1.0000 0.52640  0.30690  0.57060  Biso   1.000  H
  C51      1.0000 0.68660  0.27750  0.51490  Biso   1.000  C
  H63      1.0000 0.73850  0.28520  0.52490  Biso   1.000  H
  C52      1.0000 0.67050  0.23980  0.45850  Biso   1.000  C
  H64      1.0000 0.71010  0.22370  0.43050  Biso   1.000  H
  Ag3      1.0000 0.67723  0.37405  0.64778  Biso   1.000  Ag
  Si5      1.0000 0.53665  0.17984  0.91824  Biso   1.000  Si
  Si6      1.0000 0.07150  0.32584  0.63395  Biso   1.000  Si
  N9       1.0000 0.63770  0.30200  0.73570  Biso   1.000  N
  N10      1.0000 0.39280  0.97640  0.85740  Biso   1.000  N
  N11      1.0000 0.80690  0.36340  0.63940  Biso   1.000  N
  N12      1.0000 0.13680  0.19630  0.44380  Biso   1.000  N
  C53      1.0000 0.46450  0.97210  0.87540  Biso   1.000  C
  H65      1.0000 0.48730  0.92570  0.87670  Biso   1.000  H
  C54      1.0000 0.50880  0.03080  0.89260  Biso   1.000  C
  H66      1.0000 0.56010  0.02410  0.90530  Biso   1.000  H
  C55      1.0000 0.47820  0.09880  0.89100  Biso   1.000  C
  C56      1.0000 0.40510  0.10390  0.87210  Biso   1.000  C
  H67      1.0000 0.38140  0.14990  0.87050  Biso   1.000  H
  C57      1.0000 0.36390  0.04280  0.85490  Biso   1.000  C
  H68      1.0000 0.31290  0.04860  0.84080  Biso   1.000  H
  C58      1.0000 0.61250  0.15100  0.97630  Biso   1.000  C
  H69      1.0000 0.64190  0.11080  0.95690  Biso   1.000  H
  H70      1.0000 0.64770  0.19160  0.98450  Biso   1.000  H
  C59      1.0000 0.57560  0.12610  0.04270  Biso   1.000  C
  H71      1.0000 0.61550  0.11070  0.07320  Biso   1.000  H
  H72      1.0000 0.54100  0.08580  0.03430  Biso   1.000  H
  H73      1.0000 0.54730  0.16630  0.06210  Biso   1.000  H
  C60      1.0000 0.47110  0.24670  0.95600  Biso   1.000  C
  H74      1.0000 0.50010  0.28890  0.97050  Biso   1.000  H
  H75      1.0000 0.44560  0.22480  0.99390  Biso   1.000  H
  H76      1.0000 0.43320  0.26150  0.92350  Biso   1.000  H
  C61      1.0000 0.57870  0.22370  0.84370  Biso   1.000  C
  C62      1.0000 0.64500  0.26320  0.84720  Biso   1.000  C
  H77      1.0000 0.67230  0.26460  0.88740  Biso   1.000  H
  C63      1.0000 0.67220  0.30040  0.79340  Biso   1.000  C
  H78      1.0000 0.71830  0.32640  0.79810  Biso   1.000  H
  C64      1.0000 0.57320  0.26390  0.73170  Biso   1.000  C
  H79      1.0000 0.54710  0.26300  0.69090  Biso   1.000  H
  C65      1.0000 0.54310  0.22620  0.78310  Biso   1.000  C
  H80      1.0000 0.49660  0.20120  0.77710  Biso   1.000  H
  C66      1.0000 0.83760  0.29780  0.64200  Biso   1.000  C
  H81      1.0000 0.80450  0.25760  0.64500  Biso   1.000  H
  C67      1.0000 0.91460  0.28480  0.64060  Biso   1.000  C
  H82      1.0000 0.93290  0.23670  0.64300  Biso   1.000  H
  C68      1.0000 0.96590  0.34240  0.63560  Biso   1.000  C
  C69      1.0000 0.93300  0.41020  0.63100  Biso   1.000  C
  H83      1.0000 0.96440  0.45140  0.62590  Biso   1.000  H
  C70      1.0000 0.85610  0.41850  0.63360  Biso   1.000  C
  H84      1.0000 0.83620  0.46600  0.63110  Biso   1.000  H
  C71      1.0000 0.09860  0.27070  0.70590  Biso   1.000  C
  H85      1.0000 0.06050  0.23210  0.71210  Biso   1.000  H
  H86      1.0000 0.14800  0.24740  0.69710  Biso   1.000  H
  C72      1.0000 0.10460  0.31450  0.76950  Biso   1.000  C
  H87      1.0000 0.11890  0.28260  0.80590  Biso   1.000  H
  H88      1.0000 0.05550  0.33700  0.77910  Biso   1.000  H
  H89      1.0000 0.14320  0.35210  0.76420  Biso   1.000  H
  C73      1.0000 0.12340  0.41340  0.63280  Biso   1.000  C
  H90      1.0000 0.11180  0.44050  0.67300  Biso   1.000  H
  H91      1.0000 0.10760  0.44150  0.59430  Biso   1.000  H
  H92      1.0000 0.17810  0.40430  0.63050  Biso   1.000  H
  C74      1.0000 0.09440  0.27430  0.55680  Biso   1.000  C
  C75      1.0000 0.04300  0.24610  0.51480  Biso   1.000  C
  H93      1.0000 0.99050  0.25160  0.52400  Biso   1.000  H
  C76      1.0000 0.06470  0.20960  0.45870  Biso   1.000  C
  H94      1.0000 0.02640  0.19310  0.42940  Biso   1.000  H
  C77      1.0000 0.18660  0.22250  0.48510  Biso   1.000  C
  H95      1.0000 0.23850  0.21480  0.47510  Biso   1.000  H
  C78      1.0000 0.17050  0.26020  0.54150  Biso   1.000  C
  H96      1.0000 0.21010  0.27630  0.56950  Biso   1.000  H
  Ag4      1.0000 0.82277  0.62595  0.14778  Biso   1.000  Ag
  Si7      1.0000 0.96335  0.82016  0.41824  Biso   1.000  Si
  Si8      1.0000 0.42850  0.67416  0.13395  Biso   1.000  Si
  N13      1.0000 0.86230  0.69800  0.23570  Biso   1.000  N
  N14      1.0000 0.10720  0.02360  0.35740  Biso   1.000  N
  N15      1.0000 0.69310  0.63660  0.13940  Biso   1.000  N
  N16      1.0000 0.36320  0.80370  0.94380  Biso   1.000  N
  C79      1.0000 0.03550  0.02790  0.37540  Biso   1.000  C
  H97      1.0000 0.01270  0.07430  0.37670  Biso   1.000  H
  C80      1.0000 0.99120  0.96920  0.39260  Biso   1.000  C
  H98      1.0000 0.93990  0.97590  0.40530  Biso   1.000  H
  C81      1.0000 0.02180  0.90120  0.39100  Biso   1.000  C
  C82      1.0000 0.09490  0.89610  0.37210  Biso   1.000  C
  H99      1.0000 0.11860  0.85010  0.37050  Biso   1.000  H
  C83      1.0000 0.13610  0.95720  0.35490  Biso   1.000  C
  H100     1.0000 0.18710  0.95140  0.34080  Biso   1.000  H
  C84      1.0000 0.88750  0.84900  0.47630  Biso   1.000  C
  H101     1.0000 0.85810  0.88920  0.45690  Biso   1.000  H
  H102     1.0000 0.85230  0.80840  0.48450  Biso   1.000  H
  C85      1.0000 0.92440  0.87390  0.54270  Biso   1.000  C
  H103     1.0000 0.88450  0.88930  0.57320  Biso   1.000  H
  H104     1.0000 0.95900  0.91420  0.53430  Biso   1.000  H
  H105     1.0000 0.95270  0.83370  0.56210  Biso   1.000  H
  C86      1.0000 0.02890  0.75330  0.45600  Biso   1.000  C
  H106     1.0000 0.99990  0.71110  0.47050  Biso   1.000  H
  H107     1.0000 0.05440  0.77520  0.49390  Biso   1.000  H
  H108     1.0000 0.06680  0.73850  0.42350  Biso   1.000  H
  C87      1.0000 0.92130  0.77630  0.34370  Biso   1.000  C
  C88      1.0000 0.85500  0.73680  0.34720  Biso   1.000  C
  H109     1.0000 0.82770  0.73540  0.38740  Biso   1.000  H
  C89      1.0000 0.82780  0.69960  0.29340  Biso   1.000  C
  H110     1.0000 0.78170  0.67360  0.29810  Biso   1.000  H
  C90      1.0000 0.92680  0.73610  0.23170  Biso   1.000  C
  H111     1.0000 0.95290  0.73700  0.19090  Biso   1.000  H
  C91      1.0000 0.95690  0.77380  0.28310  Biso   1.000  C
  H112     1.0000 0.00340  0.79880  0.27710  Biso   1.000  H
  C92      1.0000 0.66240  0.70220  0.14200  Biso   1.000  C
  H113     1.0000 0.69550  0.74240  0.14500  Biso   1.000  H
  C93      1.0000 0.58540  0.71520  0.14060  Biso   1.000  C
  H114     1.0000 0.56710  0.76330  0.14300  Biso   1.000  H
  C94      1.0000 0.53410  0.65760  0.13560  Biso   1.000  C
  C95      1.0000 0.56700  0.58980  0.13100  Biso   1.000  C
  H115     1.0000 0.53560  0.54860  0.12590  Biso   1.000  H
  C96      1.0000 0.64390  0.58150  0.13360  Biso   1.000  C
  H116     1.0000 0.66380  0.53400  0.13110  Biso   1.000  H
  C97      1.0000 0.40140  0.72930  0.20590  Biso   1.000  C
  H117     1.0000 0.43950  0.76790  0.21210  Biso   1.000  H
  H118     1.0000 0.35200  0.75260  0.19710  Biso   1.000  H
  C98      1.0000 0.39540  0.68550  0.26950  Biso   1.000  C
  H119     1.0000 0.38110  0.71740  0.30590  Biso   1.000  H
  H120     1.0000 0.44450  0.66300  0.27910  Biso   1.000  H
  H121     1.0000 0.35680  0.64790  0.26420  Biso   1.000  H
  C99      1.0000 0.37660  0.58660  0.13280  Biso   1.000  C
  H122     1.0000 0.38820  0.55950  0.17300  Biso   1.000  H
  H123     1.0000 0.39240  0.55850  0.09430  Biso   1.000  H
  H124     1.0000 0.32190  0.59570  0.13050  Biso   1.000  H
  C100     1.0000 0.40560  0.72570  0.05680  Biso   1.000  C
  C101     1.0000 0.45700  0.75390  0.01480  Biso   1.000  C
  H125     1.0000 0.50950  0.74840  0.02400  Biso   1.000  H
  C102     1.0000 0.43530  0.79040  0.95870  Biso   1.000  C
  H126     1.0000 0.47360  0.80690  0.92940  Biso   1.000  H
  C103     1.0000 0.31340  0.77750  0.98510  Biso   1.000  C
  H127     1.0000 0.26150  0.78520  0.97510  Biso   1.000  H
  C104     1.0000 0.32950  0.73980  0.04150  Biso   1.000  C
  H128     1.0000 0.28990  0.72370  0.06950  Biso   1.000  H
  Ag5      1.0000 0.83788  0.11989  0.84555  Biso   1.000  Ag
  Si9      1.0000 0.86096  0.49769  0.85960  Biso   1.000  Si
  Si10     1.0000 0.53562  0.02406  0.64114  Biso   1.000  Si
  N17      1.0000 0.86130  0.24410  0.85950  Biso   1.000  N
  N18      1.0000 0.06080  0.58880  0.72900  Biso   1.000  N
  N19      1.0000 0.73770  0.08520  0.78270  Biso   1.000  N
  N20      1.0000 0.63370  0.91780  0.44990  Biso   1.000  N
  C105     1.0000 0.83180  0.28210  0.90920  Biso   1.000  C
  H129     1.0000 0.80930  0.25670  0.94480  Biso   1.000  H
  C106     1.0000 0.83240  0.35660  0.91130  Biso   1.000  C
  H130     1.0000 0.80970  0.38090  0.94740  Biso   1.000  H
  C107     1.0000 0.86600  0.39610  0.86110  Biso   1.000  C
  C108     1.0000 0.89800  0.35610  0.81080  Biso   1.000  C
  H131     1.0000 0.92240  0.38030  0.77550  Biso   1.000  H
  C109     1.0000 0.89490  0.28110  0.81090  Biso   1.000  C
  H132     1.0000 0.91740  0.25540  0.77560  Biso   1.000  H
  C110     1.0000 0.76470  0.51730  0.81760  Biso   1.000  C
  H133     1.0000 0.76740  0.50210  0.77090  Biso   1.000  H
  H134     1.0000 0.72470  0.48840  0.83930  Biso   1.000  H
  C111     1.0000 0.74280  0.59830  0.82070  Biso   1.000  C
  H135     1.0000 0.69400  0.60560  0.79880  Biso   1.000  H
  H136     1.0000 0.78180  0.62710  0.79870  Biso   1.000  H
  H137     1.0000 0.73880  0.61340  0.86680  Biso   1.000  H
  C112     1.0000 0.87400  0.53240  0.94710  Biso   1.000  C
  H138     1.0000 0.92470  0.51930  0.96300  Biso   1.000  H
  H139     1.0000 0.83560  0.51070  0.97580  Biso   1.000  H
  H140     1.0000 0.86860  0.58490  0.94760  Biso   1.000  H
  C113     1.0000 0.94040  0.53320  0.80640  Biso   1.000  C
  C114     1.0000 0.01500  0.52560  0.82420  Biso   1.000  C
  H141     1.0000 0.02720  0.50140  0.86400  Biso   1.000  H
  C115     1.0000 0.07250  0.55240  0.78530  Biso   1.000  C
  H142     1.0000 0.12340  0.54480  0.79910  Biso   1.000  H
  C116     1.0000 0.98850  0.59700  0.71230  Biso   1.000  C
  H143     1.0000 0.97700  0.62340  0.67350  Biso   1.000  H
  C117     1.0000 0.92920  0.56940  0.74840  Biso   1.000  C
  H144     1.0000 0.87890  0.57560  0.73270  Biso   1.000  H
  C118     1.0000 0.72320  0.12040  0.72750  Biso   1.000  C
  H145     1.0000 0.75520  0.15980  0.71650  Biso   1.000  H
  C119     1.0000 0.66450  0.10370  0.68450  Biso   1.000  C
  H146     1.0000 0.65740  0.13160  0.64580  Biso   1.000  H
  C120     1.0000 0.61650  0.04710  0.69780  Biso   1.000  C
  C121     1.0000 0.63320  0.00990  0.75540  Biso   1.000  C
  H147     1.0000 0.60270  0.96950  0.76670  Biso   1.000  H
  C122     1.0000 0.69170  0.02870  0.79670  Biso   1.000  C
  H148     1.0000 0.69990  0.00170  0.83580  Biso   1.000  H
  C123     1.0000 0.48600  0.10820  0.61730  Biso   1.000  C
  H149     1.0000 0.46370  0.12960  0.65750  Biso   1.000  H
  H150     1.0000 0.52440  0.14250  0.60050  Biso   1.000  H
  C124     1.0000 0.42260  0.10140  0.56520  Biso   1.000  C
  H151     1.0000 0.40060  0.14910  0.55670  Biso   1.000  H
  H152     1.0000 0.38300  0.06890  0.58150  Biso   1.000  H
  H153     1.0000 0.44390  0.08200  0.52440  Biso   1.000  H
  C125     1.0000 0.47080  0.95890  0.68080  Biso   1.000  C
  H154     1.0000 0.49890  0.91500  0.69200  Biso   1.000  H
  H155     1.0000 0.42950  0.94690  0.65050  Biso   1.000  H
  H156     1.0000 0.44980  0.98020  0.72090  Biso   1.000  H
  C126     1.0000 0.57710  0.98110  0.56570  Biso   1.000  C
  C127     1.0000 0.53190  0.94190  0.52360  Biso   1.000  C
  H157     1.0000 0.47980  0.93500  0.53380  Biso   1.000  H
  C128     1.0000 0.56090  0.91300  0.46740  Biso   1.000  C
  H158     1.0000 0.52730  0.88790  0.43890  Biso   1.000  H
  C129     1.0000 0.67770  0.95390  0.48970  Biso   1.000  C
  H159     1.0000 0.72970  0.95880  0.47830  Biso   1.000  H
  C130     1.0000 0.65290  0.98570  0.54790  Biso   1.000  C
  H160     1.0000 0.68770  0.01050  0.57540  Biso   1.000  H
  Ag6      1.0000 0.66212  0.88011  0.34555  Biso   1.000  Ag
  Si11     1.0000 0.63904  0.50231  0.35960  Biso   1.000  Si
  Si12     1.0000 0.96438  0.97594  0.14114  Biso   1.000  Si
  N21      1.0000 0.63870  0.75590  0.35950  Biso   1.000  N
  N22      1.0000 0.43920  0.41120  0.22900  Biso   1.000  N
  N23      1.0000 0.76230  0.91480  0.28270  Biso   1.000  N
  N24      1.0000 0.86630  0.08220  0.94990  Biso   1.000  N
  C131     1.0000 0.66820  0.71790  0.40920  Biso   1.000  C
  H161     1.0000 0.69070  0.74330  0.44480  Biso   1.000  H
  C132     1.0000 0.66760  0.64340  0.41130  Biso   1.000  C
  H162     1.0000 0.69030  0.61910  0.44740  Biso   1.000  H
  C133     1.0000 0.63400  0.60390  0.36110  Biso   1.000  C
  C134     1.0000 0.60200  0.64390  0.31080  Biso   1.000  C
  H163     1.0000 0.57760  0.61970  0.27550  Biso   1.000  H
  C135     1.0000 0.60510  0.71890  0.31090  Biso   1.000  C
  H164     1.0000 0.58260  0.74460  0.27560  Biso   1.000  H
  C136     1.0000 0.73530  0.48270  0.31760  Biso   1.000  C
  H165     1.0000 0.73260  0.49790  0.27090  Biso   1.000  H
  H166     1.0000 0.77530  0.51160  0.33930  Biso   1.000  H
  C137     1.0000 0.75720  0.40170  0.32070  Biso   1.000  C
  H167     1.0000 0.80600  0.39440  0.29880  Biso   1.000  H
  H168     1.0000 0.71820  0.37290  0.29870  Biso   1.000  H
  H169     1.0000 0.76120  0.38660  0.36680  Biso   1.000  H
  C138     1.0000 0.62600  0.46760  0.44710  Biso   1.000  C
  H170     1.0000 0.57530  0.48070  0.46300  Biso   1.000  H
  H171     1.0000 0.66440  0.48930  0.47580  Biso   1.000  H
  H172     1.0000 0.63140  0.41510  0.44760  Biso   1.000  H
  C139     1.0000 0.55960  0.46680  0.30640  Biso   1.000  C
  C140     1.0000 0.48500  0.47440  0.32420  Biso   1.000  C
  H173     1.0000 0.47280  0.49860  0.36400  Biso   1.000  H
  C141     1.0000 0.42750  0.44760  0.28530  Biso   1.000  C
  H174     1.0000 0.37660  0.45520  0.29910  Biso   1.000  H
  C142     1.0000 0.51150  0.40300  0.21230  Biso   1.000  C
  H175     1.0000 0.52300  0.37660  0.17350  Biso   1.000  H
  C143     1.0000 0.57080  0.43060  0.24840  Biso   1.000  C
  H176     1.0000 0.62110  0.42440  0.23270  Biso   1.000  H
  C144     1.0000 0.77680  0.87960  0.22750  Biso   1.000  C
  H177     1.0000 0.74480  0.84020  0.21650  Biso   1.000  H
  C145     1.0000 0.83550  0.89630  0.18450  Biso   1.000  C
  H178     1.0000 0.84260  0.86840  0.14580  Biso   1.000  H
  C146     1.0000 0.88350  0.95290  0.19780  Biso   1.000  C
  C147     1.0000 0.86680  0.99010  0.25540  Biso   1.000  C
  H179     1.0000 0.89730  0.03050  0.26670  Biso   1.000  H
  C148     1.0000 0.80830  0.97130  0.29670  Biso   1.000  C
  H180     1.0000 0.80010  0.99830  0.33580  Biso   1.000  H
  C149     1.0000 0.01400  0.89180  0.11730  Biso   1.000  C
  H181     1.0000 0.03630  0.87040  0.15750  Biso   1.000  H
  H182     1.0000 0.97560  0.85750  0.10050  Biso   1.000  H
  C150     1.0000 0.07740  0.89860  0.06520  Biso   1.000  C
  H183     1.0000 0.09940  0.85090  0.05670  Biso   1.000  H
  H184     1.0000 0.11700  0.93110  0.08150  Biso   1.000  H
  H185     1.0000 0.05610  0.91800  0.02440  Biso   1.000  H
  C151     1.0000 0.02920  0.04110  0.18080  Biso   1.000  C
  H186     1.0000 0.00110  0.08500  0.19200  Biso   1.000  H
  H187     1.0000 0.07050  0.05310  0.15050  Biso   1.000  H
  H188     1.0000 0.05020  0.01980  0.22090  Biso   1.000  H
  C152     1.0000 0.92290  0.01890  0.06570  Biso   1.000  C
  C153     1.0000 0.96810  0.05810  0.02360  Biso   1.000  C
  H189     1.0000 0.02020  0.06500  0.03380  Biso   1.000  H
  C154     1.0000 0.93910  0.08700  0.96740  Biso   1.000  C
  H190     1.0000 0.97270  0.11210  0.93890  Biso   1.000  H
  C155     1.0000 0.82230  0.04610  0.98970  Biso   1.000  C
  H191     1.0000 0.77030  0.04120  0.97830  Biso   1.000  H
  C156     1.0000 0.84710  0.01430  0.04790  Biso   1.000  C
  H192     1.0000 0.81230  0.98950  0.07540  Biso   1.000  H
  Ag7      1.0000 0.16212  0.61989  0.65445  Biso   1.000  Ag
  Si13     1.0000 0.13904  0.99769  0.64040  Biso   1.000  Si
  Si14     1.0000 0.46438  0.52406  0.85886  Biso   1.000  Si
  N25      1.0000 0.13870  0.74410  0.64050  Biso   1.000  N
  N26      1.0000 0.93920  0.08880  0.77100  Biso   1.000  N
  N27      1.0000 0.26230  0.58520  0.71730  Biso   1.000  N
  N28      1.0000 0.36630  0.41780  0.05010  Biso   1.000  N
  C157     1.0000 0.16820  0.78210  0.59080  Biso   1.000  C
  H193     1.0000 0.19070  0.75670  0.55520  Biso   1.000  H
  C158     1.0000 0.16760  0.85660  0.58870  Biso   1.000  C
  H194     1.0000 0.19030  0.88090  0.55260  Biso   1.000  H
  C159     1.0000 0.13400  0.89610  0.63890  Biso   1.000  C
  C160     1.0000 0.10200  0.85610  0.68920  Biso   1.000  C
  H195     1.0000 0.07760  0.88030  0.72450  Biso   1.000  H
  C161     1.0000 0.10510  0.78110  0.68910  Biso   1.000  C
  H196     1.0000 0.08260  0.75540  0.72440  Biso   1.000  H
  C162     1.0000 0.23530  0.01730  0.68240  Biso   1.000  C
  H197     1.0000 0.23260  0.00210  0.72910  Biso   1.000  H
  H198     1.0000 0.27530  0.98840  0.66070  Biso   1.000  H
  C163     1.0000 0.25720  0.09830  0.67930  Biso   1.000  C
  H199     1.0000 0.30600  0.10560  0.70120  Biso   1.000  H
  H200     1.0000 0.21820  0.12710  0.70130  Biso   1.000  H
  H201     1.0000 0.26120  0.11340  0.63320  Biso   1.000  H
  C164     1.0000 0.12600  0.03240  0.55290  Biso   1.000  C
  H202     1.0000 0.07530  0.01930  0.53700  Biso   1.000  H
  H203     1.0000 0.16440  0.01070  0.52420  Biso   1.000  H
  H204     1.0000 0.13140  0.08490  0.55240  Biso   1.000  H
  C165     1.0000 0.05960  0.03320  0.69360  Biso   1.000  C
  C166     1.0000 0.98500  0.02560  0.67580  Biso   1.000  C
  H205     1.0000 0.97280  0.00140  0.63600  Biso   1.000  H
  C167     1.0000 0.92750  0.05240  0.71470  Biso   1.000  C
  H206     1.0000 0.87660  0.04480  0.70090  Biso   1.000  H
  C168     1.0000 0.01150  0.09700  0.78770  Biso   1.000  C
  H207     1.0000 0.02300  0.12340  0.82650  Biso   1.000  H
  C169     1.0000 0.07080  0.06940  0.75160  Biso   1.000  C
  H208     1.0000 0.12110  0.07560  0.76730  Biso   1.000  H
  C170     1.0000 0.27680  0.62040  0.77250  Biso   1.000  C
  H209     1.0000 0.24480  0.65980  0.78350  Biso   1.000  H
  C171     1.0000 0.33550  0.60370  0.81550  Biso   1.000  C
  H210     1.0000 0.34260  0.63160  0.85420  Biso   1.000  H
  C172     1.0000 0.38350  0.54710  0.80220  Biso   1.000  C
  C173     1.0000 0.36680  0.50990  0.74460  Biso   1.000  C
  H211     1.0000 0.39730  0.46950  0.73330  Biso   1.000  H
  C174     1.0000 0.30830  0.52870  0.70330  Biso   1.000  C
  H212     1.0000 0.30010  0.50170  0.66420  Biso   1.000  H
  C175     1.0000 0.51400  0.60820  0.88270  Biso   1.000  C
  H213     1.0000 0.53630  0.62960  0.84250  Biso   1.000  H
  H214     1.0000 0.47560  0.64250  0.89950  Biso   1.000  H
  C176     1.0000 0.57740  0.60140  0.93480  Biso   1.000  C
  H215     1.0000 0.59940  0.64910  0.94330  Biso   1.000  H
  H216     1.0000 0.61700  0.56890  0.91850  Biso   1.000  H
  H217     1.0000 0.55610  0.58200  0.97560  Biso   1.000  H
  C177     1.0000 0.52920  0.45890  0.81920  Biso   1.000  C
  H218     1.0000 0.50110  0.41500  0.80800  Biso   1.000  H
  H219     1.0000 0.57050  0.44690  0.84950  Biso   1.000  H
  H220     1.0000 0.55020  0.48020  0.77910  Biso   1.000  H
  C178     1.0000 0.42290  0.48110  0.93430  Biso   1.000  C
  C179     1.0000 0.46810  0.44190  0.97640  Biso   1.000  C
  H221     1.0000 0.52020  0.43500  0.96620  Biso   1.000  H
  C180     1.0000 0.43910  0.41300  0.03260  Biso   1.000  C
  H222     1.0000 0.47270  0.38790  0.06110  Biso   1.000  H
  C181     1.0000 0.32230  0.45390  0.01030  Biso   1.000  C
  H223     1.0000 0.27030  0.45880  0.02170  Biso   1.000  H
  C182     1.0000 0.34710  0.48570  0.95210  Biso   1.000  C
  H224     1.0000 0.31230  0.51050  0.92460  Biso   1.000  H
  Ag8      1.0000 0.33788  0.38011  0.15445  Biso   1.000  Ag
  Si15     1.0000 0.36096  0.00231  0.14040  Biso   1.000  Si
  Si16     1.0000 0.03562  0.47594  0.35886  Biso   1.000  Si
  N29      1.0000 0.36130  0.25590  0.14050  Biso   1.000  N
  N30      1.0000 0.56080  0.91120  0.27100  Biso   1.000  N
  N31      1.0000 0.23770  0.41480  0.21730  Biso   1.000  N
  N32      1.0000 0.13370  0.58220  0.55010  Biso   1.000  N
  C183     1.0000 0.33180  0.21790  0.09080  Biso   1.000  C
  H225     1.0000 0.30930  0.24330  0.05520  Biso   1.000  H
  C184     1.0000 0.33240  0.14340  0.08870  Biso   1.000  C
  H226     1.0000 0.30970  0.11910  0.05260  Biso   1.000  H
  C185     1.0000 0.36600  0.10390  0.13890  Biso   1.000  C
  C186     1.0000 0.39800  0.14390  0.18920  Biso   1.000  C
  H227     1.0000 0.42240  0.11970  0.22450  Biso   1.000  H
  C187     1.0000 0.39490  0.21890  0.18910  Biso   1.000  C
  H228     1.0000 0.41740  0.24460  0.22440  Biso   1.000  H
  C188     1.0000 0.26470  0.98270  0.18240  Biso   1.000  C
  H229     1.0000 0.26740  0.99790  0.22910  Biso   1.000  H
  H230     1.0000 0.22470  0.01160  0.16070  Biso   1.000  H
  C189     1.0000 0.24280  0.90170  0.17930  Biso   1.000  C
  H231     1.0000 0.19400  0.89440  0.20120  Biso   1.000  H
  H232     1.0000 0.28180  0.87290  0.20130  Biso   1.000  H
  H233     1.0000 0.23880  0.88660  0.13320  Biso   1.000  H
  C190     1.0000 0.37400  0.96760  0.05290  Biso   1.000  C
  H234     1.0000 0.42470  0.98070  0.03700  Biso   1.000  H
  H235     1.0000 0.33560  0.98930  0.02420  Biso   1.000  H
  H236     1.0000 0.36860  0.91510  0.05240  Biso   1.000  H
  C191     1.0000 0.44040  0.96680  0.19360  Biso   1.000  C
  C192     1.0000 0.51500  0.97440  0.17580  Biso   1.000  C
  H237     1.0000 0.52720  0.99860  0.13600  Biso   1.000  H
  C193     1.0000 0.57250  0.94760  0.21470  Biso   1.000  C
  H238     1.0000 0.62340  0.95520  0.20090  Biso   1.000  H
  C194     1.0000 0.48850  0.90300  0.28770  Biso   1.000  C
  H239     1.0000 0.47700  0.87660  0.32650  Biso   1.000  H
  C195     1.0000 0.42920  0.93060  0.25160  Biso   1.000  C
  H240     1.0000 0.37890  0.92440  0.26730  Biso   1.000  H
  C196     1.0000 0.22320  0.37960  0.27250  Biso   1.000  C
  H241     1.0000 0.25520  0.34020  0.28350  Biso   1.000  H
  C197     1.0000 0.16450  0.39630  0.31550  Biso   1.000  C
  H242     1.0000 0.15740  0.36840  0.35420  Biso   1.000  H
  C198     1.0000 0.11650  0.45290  0.30220  Biso   1.000  C
  C199     1.0000 0.13320  0.49010  0.24460  Biso   1.000  C
  H243     1.0000 0.10270  0.53050  0.23330  Biso   1.000  H
  C200     1.0000 0.19170  0.47130  0.20330  Biso   1.000  C
  H244     1.0000 0.19990  0.49830  0.16420  Biso   1.000  H
  C201     1.0000 0.98600  0.39180  0.38270  Biso   1.000  C
  H245     1.0000 0.96370  0.37040  0.34250  Biso   1.000  H
  H246     1.0000 0.02440  0.35750  0.39950  Biso   1.000  H
  C202     1.0000 0.92260  0.39860  0.43480  Biso   1.000  C
  H247     1.0000 0.90060  0.35090  0.44330  Biso   1.000  H
  H248     1.0000 0.88300  0.43110  0.41850  Biso   1.000  H
  H249     1.0000 0.94390  0.41800  0.47560  Biso   1.000  H
  C203     1.0000 0.97080  0.54110  0.31920  Biso   1.000  C
  H250     1.0000 0.99890  0.58500  0.30800  Biso   1.000  H
  H251     1.0000 0.92950  0.55310  0.34950  Biso   1.000  H
  H252     1.0000 0.94980  0.51980  0.27910  Biso   1.000  H
  C204     1.0000 0.07710  0.51890  0.43430  Biso   1.000  C
  C205     1.0000 0.03190  0.55810  0.47640  Biso   1.000  C
  H253     1.0000 0.97980  0.56500  0.46620  Biso   1.000  H
  C206     1.0000 0.06090  0.58700  0.53260  Biso   1.000  C
  H254     1.0000 0.02730  0.61210  0.56110  Biso   1.000  H
  C207     1.0000 0.17770  0.54610  0.51030  Biso   1.000  C
  H255     1.0000 0.22970  0.54120  0.52170  Biso   1.000  H
  C208     1.0000 0.15290  0.51430  0.45210  Biso   1.000  C
  H256     1.0000 0.18770  0.48950  0.42460  Biso   1.000  H
