data_image0
_cell_length_a       17.9304
_cell_length_b       18.8321
_cell_length_c       20.2922
_cell_angle_alpha    90
_cell_angle_beta     90
_cell_angle_gamma    90

_symmetry_space_group_name_H-M    "P 1"
_symmetry_int_tables_number       1

loop_
  _symmetry_equiv_pos_as_xyz
  'x, y, z'

loop_
  _atom_site_label
  _atom_site_occupancy
  _atom_site_fract_x
  _atom_site_fract_y
  _atom_site_fract_z
  _atom_site_thermal_displace_type
  _atom_site_B_iso_or_equiv
  _atom_site_type_symbol
  Ag1      1.0000 0.16479  0.63298  0.15193  Biso   1.000  Ag
  Si1      1.0000 0.55284  0.67456  0.12986  Biso   1.000  Si
  Si2      1.0000 0.02887  0.82370  0.42317  Biso   1.000  Si
  N1       1.0000 0.29310  0.64050  0.13950  Biso   1.000  N
  N2       1.0000 0.62160  0.79410  0.93520  Biso   1.000  N
  N3       1.0000 0.13210  0.70430  0.24160  Biso   1.000  N
  N4       1.0000 0.89690  0.02810  0.35710  Biso   1.000  N
  C1       1.0000 0.32480  0.70450  0.14260  Biso   1.000  C
  H1       1.0000 0.29280  0.74430  0.14730  Biso   1.000  H
  C2       1.0000 0.40040  0.71720  0.13950  Biso   1.000  C
  H2       1.0000 0.41880  0.76440  0.14270  Biso   1.000  H
  C3       1.0000 0.44970  0.66070  0.13150  Biso   1.000  C
  C4       1.0000 0.41670  0.59470  0.12380  Biso   1.000  C
  H3       1.0000 0.44650  0.55410  0.11510  Biso   1.000  H
  C5       1.0000 0.33820  0.58820  0.12900  Biso   1.000  C
  H4       1.0000 0.31720  0.54210  0.12440  Biso   1.000  H
  C6       1.0000 0.60160  0.58460  0.13260  Biso   1.000  C
  H5       1.0000 0.58570  0.55600  0.09480  Biso   1.000  H
  H6       1.0000 0.58830  0.56010  0.17360  Biso   1.000  H
  H7       1.0000 0.65570  0.59160  0.13100  Biso   1.000  H
  C7       1.0000 0.58050  0.73620  0.19920  Biso   1.000  C
  H8       1.0000 0.62460  0.76380  0.18480  Biso   1.000  H
  H9       1.0000 0.53930  0.77040  0.20630  Biso   1.000  H
  C8       1.0000 0.59650  0.70620  0.25660  Biso   1.000  C
  H10      1.0000 0.58380  0.73890  0.29250  Biso   1.000  H
  H11      1.0000 0.64990  0.69520  0.25840  Biso   1.000  H
  H12      1.0000 0.56770  0.66230  0.26150  Biso   1.000  H
  C9       1.0000 0.57680  0.72090  0.04970  Biso   1.000  C
  C10      1.0000 0.65270  0.72480  0.02930  Biso   1.000  C
  H13      1.0000 0.69140  0.70370  0.05460  Biso   1.000  H
  C11      1.0000 0.66740  0.75940  0.97330  Biso   1.000  C
  H14      1.0000 0.71790  0.75860  0.95940  Biso   1.000  H
  C12      1.0000 0.55010  0.79230  0.95520  Biso   1.000  C
  H15      1.0000 0.51380  0.81700  0.92990  Biso   1.000  H
  C13      1.0000 0.52690  0.75550  0.01170  Biso   1.000  C
  H16      1.0000 0.47550  0.75490  0.02330  Biso   1.000  H
  C14      1.0000 0.07450  0.75190  0.23330  Biso   1.000  C
  H17      1.0000 0.05430  0.75920  0.19050  Biso   1.000  H
  C15      1.0000 0.04600  0.78860  0.28540  Biso   1.000  C
  H18      1.0000 0.00670  0.82130  0.27730  Biso   1.000  H
  C16      1.0000 0.07120  0.78060  0.34890  Biso   1.000  C
  C17      1.0000 0.13370  0.73520  0.35370  Biso   1.000  C
  H19      1.0000 0.15680  0.72790  0.39520  Biso   1.000  H
  C18      1.0000 0.16180  0.70110  0.29810  Biso   1.000  C
  H20      1.0000 0.20600  0.67380  0.30290  Biso   1.000  H
  C19      1.0000 0.10120  0.85010  0.48180  Biso   1.000  C
  H21      1.0000 0.13300  0.80870  0.49250  Biso   1.000  H
  H22      1.0000 0.13310  0.88730  0.46200  Biso   1.000  H
  C20      1.0000 0.06310  0.87960  0.54710  Biso   1.000  C
  H23      1.0000 0.10180  0.89430  0.57840  Biso   1.000  H
  H24      1.0000 0.03230  0.84230  0.56700  Biso   1.000  H
  H25      1.0000 0.03160  0.92050  0.53620  Biso   1.000  H
  C21      1.0000 0.96320  0.75950  0.46390  Biso   1.000  C
  H26      1.0000 0.99360  0.72100  0.48340  Biso   1.000  H
  H27      1.0000 0.93870  0.78470  0.50090  Biso   1.000  H
  C22      1.0000 0.89900  0.72330  0.42060  Biso   1.000  C
  H28      1.0000 0.87020  0.69050  0.44820  Biso   1.000  H
  H29      1.0000 0.92170  0.69700  0.38410  Biso   1.000  H
  H30      1.0000 0.86590  0.76010  0.40310  Biso   1.000  H
  C23      1.0000 0.97760  0.90620  0.39680  Biso   1.000  C
  C24      1.0000 0.90030  0.90470  0.37910  Biso   1.000  C
  H31      1.0000 0.87340  0.86130  0.38010  Biso   1.000  H
  C25      1.0000 0.86660  0.96440  0.36120  Biso   1.000  C
  H32      1.0000 0.81520  0.96090  0.35020  Biso   1.000  H
  C26      1.0000 0.97040  0.03020  0.37110  Biso   1.000  C
  H33      1.0000 0.99620  0.07400  0.36680  Biso   1.000  H
  C27      1.0000 0.01040  0.96970  0.39180  Biso   1.000  C
  H34      1.0000 0.06180  0.97420  0.40250  Biso   1.000  H
  Ag2      1.0000 0.33521  0.36702  0.65193  Biso   1.000  Ag
  Si3      1.0000 0.94716  0.32544  0.62986  Biso   1.000  Si
  Si4      1.0000 0.47113  0.17630  0.92317  Biso   1.000  Si
  N5       1.0000 0.20690  0.35950  0.63950  Biso   1.000  N
  N6       1.0000 0.87840  0.20590  0.43520  Biso   1.000  N
  N7       1.0000 0.36790  0.29570  0.74160  Biso   1.000  N
  N8       1.0000 0.60310  0.97190  0.85710  Biso   1.000  N
  C28      1.0000 0.17520  0.29550  0.64260  Biso   1.000  C
  H35      1.0000 0.20720  0.25570  0.64730  Biso   1.000  H
  C29      1.0000 0.09960  0.28280  0.63950  Biso   1.000  C
  H36      1.0000 0.08120  0.23560  0.64270  Biso   1.000  H
  C30      1.0000 0.05030  0.33930  0.63150  Biso   1.000  C
  C31      1.0000 0.08330  0.40530  0.62380  Biso   1.000  C
  H37      1.0000 0.05350  0.44590  0.61510  Biso   1.000  H
  C32      1.0000 0.16180  0.41180  0.62900  Biso   1.000  C
  H38      1.0000 0.18280  0.45790  0.62440  Biso   1.000  H
  C33      1.0000 0.89840  0.41540  0.63260  Biso   1.000  C
  H39      1.0000 0.91430  0.44400  0.59480  Biso   1.000  H
  H40      1.0000 0.91170  0.43990  0.67360  Biso   1.000  H
  H41      1.0000 0.84430  0.40840  0.63100  Biso   1.000  H
  C34      1.0000 0.91950  0.26380  0.69920  Biso   1.000  C
  H42      1.0000 0.87540  0.23620  0.68480  Biso   1.000  H
  H43      1.0000 0.96070  0.22960  0.70630  Biso   1.000  H
  C35      1.0000 0.90350  0.29380  0.75660  Biso   1.000  C
  H44      1.0000 0.91620  0.26110  0.79250  Biso   1.000  H
  H45      1.0000 0.85010  0.30480  0.75840  Biso   1.000  H
  H46      1.0000 0.93230  0.33770  0.76150  Biso   1.000  H
  C36      1.0000 0.92320  0.27910  0.54970  Biso   1.000  C
  C37      1.0000 0.84730  0.27520  0.52930  Biso   1.000  C
  H47      1.0000 0.80860  0.29630  0.55460  Biso   1.000  H
  C38      1.0000 0.83260  0.24060  0.47330  Biso   1.000  C
  H48      1.0000 0.78210  0.24140  0.45940  Biso   1.000  H
  C39      1.0000 0.94990  0.20770  0.45520  Biso   1.000  C
  H49      1.0000 0.98620  0.18300  0.42990  Biso   1.000  H
  C40      1.0000 0.97310  0.24450  0.51170  Biso   1.000  C
  H50      1.0000 0.02450  0.24510  0.52330  Biso   1.000  H
  C41      1.0000 0.42550  0.24810  0.73330  Biso   1.000  C
  H51      1.0000 0.44570  0.24080  0.69050  Biso   1.000  H
  C42      1.0000 0.45400  0.21140  0.78540  Biso   1.000  C
  H52      1.0000 0.49330  0.17870  0.77730  Biso   1.000  H
  C43      1.0000 0.42880  0.21940  0.84890  Biso   1.000  C
  C44      1.0000 0.36630  0.26480  0.85370  Biso   1.000  C
  H53      1.0000 0.34320  0.27210  0.89520  Biso   1.000  H
  C45      1.0000 0.33820  0.29890  0.79810  Biso   1.000  C
  H54      1.0000 0.29400  0.32620  0.80290  Biso   1.000  H
  C46      1.0000 0.39880  0.14990  0.98180  Biso   1.000  C
  H55      1.0000 0.36700  0.19130  0.99250  Biso   1.000  H
  H56      1.0000 0.36690  0.11270  0.96200  Biso   1.000  H
  C47      1.0000 0.43690  0.12040  0.04710  Biso   1.000  C
  H57      1.0000 0.39820  0.10570  0.07840  Biso   1.000  H
  H58      1.0000 0.46770  0.15770  0.06700  Biso   1.000  H
  H59      1.0000 0.46840  0.07950  0.03620  Biso   1.000  H
  C48      1.0000 0.53680  0.24050  0.96390  Biso   1.000  C
  H60      1.0000 0.50640  0.27900  0.98340  Biso   1.000  H
  H61      1.0000 0.56130  0.21530  0.00090  Biso   1.000  H
  C49      1.0000 0.60100  0.27670  0.92060  Biso   1.000  C
  H62      1.0000 0.62980  0.30950  0.94820  Biso   1.000  H
  H63      1.0000 0.57830  0.30300  0.88410  Biso   1.000  H
  H64      1.0000 0.63410  0.23990  0.90310  Biso   1.000  H
  C50      1.0000 0.52240  0.09380  0.89680  Biso   1.000  C
  C51      1.0000 0.59970  0.09530  0.87910  Biso   1.000  C
  H65      1.0000 0.62660  0.13870  0.88010  Biso   1.000  H
  C52      1.0000 0.63340  0.03560  0.86120  Biso   1.000  C
  H66      1.0000 0.68480  0.03910  0.85020  Biso   1.000  H
  C53      1.0000 0.52960  0.96980  0.87110  Biso   1.000  C
  H67      1.0000 0.50380  0.92600  0.86680  Biso   1.000  H
  C54      1.0000 0.48960  0.03030  0.89180  Biso   1.000  C
  H68      1.0000 0.43820  0.02580  0.90250  Biso   1.000  H
  Ag3      1.0000 0.83521  0.13298  0.34807  Biso   1.000  Ag
  Si5      1.0000 0.44716  0.17456  0.37014  Biso   1.000  Si
  Si6      1.0000 0.97113  0.32370  0.07683  Biso   1.000  Si
  N9       1.0000 0.70690  0.14050  0.36050  Biso   1.000  N
  N10      1.0000 0.37840  0.29410  0.56480  Biso   1.000  N
  N11      1.0000 0.86790  0.20430  0.25840  Biso   1.000  N
  N12      1.0000 0.10310  0.52810  0.14290  Biso   1.000  N
  C55      1.0000 0.67520  0.20450  0.35740  Biso   1.000  C
  H69      1.0000 0.70720  0.24430  0.35270  Biso   1.000  H
  C56      1.0000 0.59960  0.21720  0.36050  Biso   1.000  C
  H70      1.0000 0.58120  0.26440  0.35730  Biso   1.000  H
  C57      1.0000 0.55030  0.16070  0.36850  Biso   1.000  C
  C58      1.0000 0.58330  0.09470  0.37620  Biso   1.000  C
  H71      1.0000 0.55350  0.05410  0.38490  Biso   1.000  H
  C59      1.0000 0.66180  0.08820  0.37100  Biso   1.000  C
  H72      1.0000 0.68280  0.04210  0.37560  Biso   1.000  H
  C60      1.0000 0.39840  0.08460  0.36740  Biso   1.000  C
  H73      1.0000 0.41430  0.05600  0.40520  Biso   1.000  H
  H74      1.0000 0.41170  0.06010  0.32640  Biso   1.000  H
  H75      1.0000 0.34430  0.09160  0.36900  Biso   1.000  H
  C61      1.0000 0.41950  0.23620  0.30080  Biso   1.000  C
  H76      1.0000 0.37540  0.26380  0.31520  Biso   1.000  H
  H77      1.0000 0.46070  0.27040  0.29370  Biso   1.000  H
  C62      1.0000 0.40350  0.20620  0.24340  Biso   1.000  C
  H78      1.0000 0.41620  0.23890  0.20750  Biso   1.000  H
  H79      1.0000 0.35010  0.19520  0.24160  Biso   1.000  H
  H80      1.0000 0.43230  0.16230  0.23850  Biso   1.000  H
  C63      1.0000 0.42320  0.22090  0.45030  Biso   1.000  C
  C64      1.0000 0.34730  0.22480  0.47070  Biso   1.000  C
  H81      1.0000 0.30860  0.20370  0.44540  Biso   1.000  H
  C65      1.0000 0.33260  0.25940  0.52670  Biso   1.000  C
  H82      1.0000 0.28210  0.25860  0.54060  Biso   1.000  H
  C66      1.0000 0.44990  0.29230  0.54480  Biso   1.000  C
  H83      1.0000 0.48620  0.31700  0.57010  Biso   1.000  H
  C67      1.0000 0.47310  0.25550  0.48830  Biso   1.000  C
  H84      1.0000 0.52450  0.25490  0.47670  Biso   1.000  H
  C68      1.0000 0.92550  0.25190  0.26670  Biso   1.000  C
  H85      1.0000 0.94570  0.25920  0.30950  Biso   1.000  H
  C69      1.0000 0.95400  0.28860  0.21460  Biso   1.000  C
  H86      1.0000 0.99330  0.32130  0.22270  Biso   1.000  H
  C70      1.0000 0.92880  0.28060  0.15110  Biso   1.000  C
  C71      1.0000 0.86630  0.23520  0.14630  Biso   1.000  C
  H87      1.0000 0.84320  0.22790  0.10480  Biso   1.000  H
  C72      1.0000 0.83820  0.20110  0.20190  Biso   1.000  C
  H88      1.0000 0.79400  0.17380  0.19710  Biso   1.000  H
  C73      1.0000 0.89880  0.35010  0.01820  Biso   1.000  C
  H89      1.0000 0.86700  0.30870  0.00750  Biso   1.000  H
  H90      1.0000 0.86690  0.38730  0.03800  Biso   1.000  H
  C74      1.0000 0.93690  0.37960  0.95290  Biso   1.000  C
  H91      1.0000 0.89820  0.39430  0.92160  Biso   1.000  H
  H92      1.0000 0.96770  0.34230  0.93300  Biso   1.000  H
  H93      1.0000 0.96840  0.42050  0.96380  Biso   1.000  H
  C75      1.0000 0.03680  0.25950  0.03610  Biso   1.000  C
  H94      1.0000 0.00640  0.22100  0.01660  Biso   1.000  H
  H95      1.0000 0.06130  0.28470  0.99910  Biso   1.000  H
  C76      1.0000 0.10100  0.22330  0.07940  Biso   1.000  C
  H96      1.0000 0.12980  0.19050  0.05180  Biso   1.000  H
  H97      1.0000 0.07830  0.19700  0.11590  Biso   1.000  H
  H98      1.0000 0.13410  0.26010  0.09690  Biso   1.000  H
  C77      1.0000 0.02240  0.40620  0.10320  Biso   1.000  C
  C78      1.0000 0.09970  0.40470  0.12090  Biso   1.000  C
  H99      1.0000 0.12660  0.36130  0.11990  Biso   1.000  H
  C79      1.0000 0.13340  0.46440  0.13880  Biso   1.000  C
  H100     1.0000 0.18480  0.46090  0.14980  Biso   1.000  H
  C80      1.0000 0.02960  0.53020  0.12890  Biso   1.000  C
  H101     1.0000 0.00380  0.57400  0.13320  Biso   1.000  H
  C81      1.0000 0.98960  0.46970  0.10820  Biso   1.000  C
  H102     1.0000 0.93820  0.47420  0.09750  Biso   1.000  H
  Ag4      1.0000 0.66479  0.86702  0.84807  Biso   1.000  Ag
  Si7      1.0000 0.05284  0.82544  0.87014  Biso   1.000  Si
  Si8      1.0000 0.52887  0.67630  0.57683  Biso   1.000  Si
  N13      1.0000 0.79310  0.85950  0.86050  Biso   1.000  N
  N14      1.0000 0.12160  0.70590  0.06480  Biso   1.000  N
  N15      1.0000 0.63210  0.79570  0.75840  Biso   1.000  N
  N16      1.0000 0.39690  0.47190  0.64290  Biso   1.000  N
  C82      1.0000 0.82480  0.79550  0.85740  Biso   1.000  C
  H103     1.0000 0.79280  0.75570  0.85270  Biso   1.000  H
  C83      1.0000 0.90040  0.78280  0.86050  Biso   1.000  C
  H104     1.0000 0.91880  0.73560  0.85730  Biso   1.000  H
  C84      1.0000 0.94970  0.83930  0.86850  Biso   1.000  C
  C85      1.0000 0.91670  0.90530  0.87620  Biso   1.000  C
  H105     1.0000 0.94650  0.94590  0.88490  Biso   1.000  H
  C86      1.0000 0.83820  0.91180  0.87100  Biso   1.000  C
  H106     1.0000 0.81720  0.95790  0.87560  Biso   1.000  H
  C87      1.0000 0.10160  0.91540  0.86740  Biso   1.000  C
  H107     1.0000 0.08570  0.94400  0.90520  Biso   1.000  H
  H108     1.0000 0.08830  0.93990  0.82640  Biso   1.000  H
  H109     1.0000 0.15570  0.90840  0.86900  Biso   1.000  H
  C88      1.0000 0.08050  0.76380  0.80080  Biso   1.000  C
  H110     1.0000 0.12460  0.73620  0.81520  Biso   1.000  H
  H111     1.0000 0.03930  0.72960  0.79370  Biso   1.000  H
  C89      1.0000 0.09650  0.79380  0.74340  Biso   1.000  C
  H112     1.0000 0.08380  0.76110  0.70750  Biso   1.000  H
  H113     1.0000 0.14990  0.80480  0.74160  Biso   1.000  H
  H114     1.0000 0.06770  0.83770  0.73850  Biso   1.000  H
  C90      1.0000 0.07680  0.77910  0.95030  Biso   1.000  C
  C91      1.0000 0.15270  0.77520  0.97070  Biso   1.000  C
  H115     1.0000 0.19140  0.79630  0.94540  Biso   1.000  H
  C92      1.0000 0.16740  0.74060  0.02670  Biso   1.000  C
  H116     1.0000 0.21790  0.74140  0.04060  Biso   1.000  H
  C93      1.0000 0.05010  0.70770  0.04480  Biso   1.000  C
  H117     1.0000 0.01380  0.68300  0.07010  Biso   1.000  H
  C94      1.0000 0.02690  0.74450  0.98830  Biso   1.000  C
  H118     1.0000 0.97550  0.74510  0.97670  Biso   1.000  H
  C95      1.0000 0.57450  0.74810  0.76670  Biso   1.000  C
  H119     1.0000 0.55430  0.74080  0.80950  Biso   1.000  H
  C96      1.0000 0.54600  0.71140  0.71460  Biso   1.000  C
  H120     1.0000 0.50670  0.67870  0.72270  Biso   1.000  H
  C97      1.0000 0.57120  0.71940  0.65110  Biso   1.000  C
  C98      1.0000 0.63370  0.76480  0.64630  Biso   1.000  C
  H121     1.0000 0.65680  0.77210  0.60480  Biso   1.000  H
  C99      1.0000 0.66180  0.79890  0.70190  Biso   1.000  C
  H122     1.0000 0.70600  0.82620  0.69710  Biso   1.000  H
  C100     1.0000 0.60120  0.64990  0.51820  Biso   1.000  C
  H123     1.0000 0.63300  0.69130  0.50750  Biso   1.000  H
  H124     1.0000 0.63310  0.61270  0.53800  Biso   1.000  H
  C101     1.0000 0.56310  0.62040  0.45290  Biso   1.000  C
  H125     1.0000 0.60180  0.60570  0.42160  Biso   1.000  H
  H126     1.0000 0.53230  0.65770  0.43300  Biso   1.000  H
  H127     1.0000 0.53160  0.57950  0.46380  Biso   1.000  H
  C102     1.0000 0.46320  0.74050  0.53610  Biso   1.000  C
  H128     1.0000 0.49360  0.77900  0.51660  Biso   1.000  H
  H129     1.0000 0.43870  0.71530  0.49910  Biso   1.000  H
  C103     1.0000 0.39900  0.77670  0.57940  Biso   1.000  C
  H130     1.0000 0.37020  0.80950  0.55180  Biso   1.000  H
  H131     1.0000 0.42170  0.80300  0.61590  Biso   1.000  H
  H132     1.0000 0.36590  0.73990  0.59690  Biso   1.000  H
  C104     1.0000 0.47760  0.59380  0.60320  Biso   1.000  C
  C105     1.0000 0.40030  0.59530  0.62090  Biso   1.000  C
  H133     1.0000 0.37340  0.63870  0.61990  Biso   1.000  H
  C106     1.0000 0.36660  0.53560  0.63880  Biso   1.000  C
  H134     1.0000 0.31520  0.53910  0.64980  Biso   1.000  H
  C107     1.0000 0.47040  0.46980  0.62890  Biso   1.000  C
  H135     1.0000 0.49620  0.42600  0.63320  Biso   1.000  H
  C108     1.0000 0.51040  0.53030  0.60820  Biso   1.000  C
  H136     1.0000 0.56180  0.52580  0.59750  Biso   1.000  H
  Ag5      1.0000 0.65779  0.37394  0.15935  Biso   1.000  Ag
  Si9      1.0000 0.95767  0.47640  0.36210  Biso   1.000  Si
  Si10     1.0000 0.35608  0.50131  0.35362  Biso   1.000  Si
  N17      1.0000 0.55740  0.40580  0.23220  Biso   1.000  N
  N18      1.0000 0.35820  0.75080  0.35370  Biso   1.000  N
  N19      1.0000 0.75690  0.41320  0.22080  Biso   1.000  N
  N20      1.0000 0.86780  0.58570  0.55420  Biso   1.000  N
  C109     1.0000 0.80330  0.46550  0.20610  Biso   1.000  C
  H137     1.0000 0.79810  0.48760  0.16430  Biso   1.000  H
  C110     1.0000 0.85890  0.49030  0.24760  Biso   1.000  C
  H138     1.0000 0.88620  0.53170  0.23580  Biso   1.000  H
  C111     1.0000 0.87570  0.45480  0.30730  Biso   1.000  C
  C112     1.0000 0.82870  0.40080  0.32120  Biso   1.000  C
  H139     1.0000 0.83550  0.37410  0.36050  Biso   1.000  H
  C113     1.0000 0.77060  0.38370  0.27890  Biso   1.000  C
  H140     1.0000 0.73750  0.34740  0.29290  Biso   1.000  H
  C114     1.0000 0.02010  0.54210  0.31700  Biso   1.000  C
  H141     1.0000 0.06310  0.55380  0.34470  Biso   1.000  H
  H142     1.0000 0.99180  0.58540  0.30730  Biso   1.000  H
  H143     1.0000 0.03740  0.52080  0.27560  Biso   1.000  H
  C115     1.0000 0.00500  0.39580  0.38390  Biso   1.000  C
  H144     1.0000 0.96760  0.36160  0.40080  Biso   1.000  H
  H145     1.0000 0.02690  0.37510  0.34340  Biso   1.000  H
  C116     1.0000 0.07130  0.40420  0.43910  Biso   1.000  C
  H146     1.0000 0.09570  0.35810  0.44590  Biso   1.000  H
  H147     1.0000 0.04970  0.42050  0.48080  Biso   1.000  H
  H148     1.0000 0.10810  0.43880  0.42370  Biso   1.000  H
  C117     1.0000 0.91950  0.52020  0.43760  Biso   1.000  C
  C118     1.0000 0.84280  0.51980  0.45610  Biso   1.000  C
  H149     1.0000 0.80610  0.49710  0.42970  Biso   1.000  H
  C119     1.0000 0.82340  0.55550  0.51690  Biso   1.000  C
  H150     1.0000 0.77230  0.55570  0.52920  Biso   1.000  H
  C120     1.0000 0.93910  0.58740  0.53730  Biso   1.000  C
  H151     1.0000 0.97410  0.60720  0.56730  Biso   1.000  H
  C121     1.0000 0.96440  0.56160  0.47780  Biso   1.000  C
  H152     1.0000 0.01370  0.57250  0.46400  Biso   1.000  H
  C122     1.0000 0.56620  0.43960  0.29170  Biso   1.000  C
  H153     1.0000 0.61470  0.44370  0.31000  Biso   1.000  H
  C123     1.0000 0.50780  0.46710  0.32480  Biso   1.000  C
  H154     1.0000 0.51770  0.49000  0.36560  Biso   1.000  H
  C124     1.0000 0.43580  0.46450  0.30400  Biso   1.000  C
  C125     1.0000 0.42760  0.43230  0.24650  Biso   1.000  C
  H155     1.0000 0.37920  0.43100  0.22760  Biso   1.000  H
  C126     1.0000 0.48500  0.40090  0.21270  Biso   1.000  C
  H156     1.0000 0.47370  0.37460  0.17410  Biso   1.000  H
  C127     1.0000 0.36200  0.46360  0.43930  Biso   1.000  C
  H157     1.0000 0.31080  0.46230  0.45750  Biso   1.000  H
  H158     1.0000 0.37910  0.41370  0.43550  Biso   1.000  H
  C128     1.0000 0.41380  0.50190  0.49200  Biso   1.000  C
  H159     1.0000 0.46290  0.47890  0.49260  Biso   1.000  H
  H160     1.0000 0.39100  0.49830  0.53570  Biso   1.000  H
  H161     1.0000 0.41960  0.55200  0.48010  Biso   1.000  H
  C129     1.0000 0.26300  0.48430  0.30630  Biso   1.000  C
  H162     1.0000 0.23910  0.52180  0.28320  Biso   1.000  H
  C130     1.0000 0.23000  0.41180  0.30690  Biso   1.000  C
  H163     1.0000 0.18290  0.41210  0.28220  Biso   1.000  H
  H164     1.0000 0.22030  0.39720  0.35250  Biso   1.000  H
  H165     1.0000 0.26470  0.37830  0.28630  Biso   1.000  H
  C131     1.0000 0.36090  0.60160  0.35490  Biso   1.000  C
  C132     1.0000 0.32300  0.64000  0.40420  Biso   1.000  C
  H166     1.0000 0.29680  0.61610  0.43840  Biso   1.000  H
  C133     1.0000 0.32500  0.71280  0.40140  Biso   1.000  C
  H167     1.0000 0.30100  0.73830  0.43590  Biso   1.000  H
  C134     1.0000 0.39510  0.71440  0.31060  Biso   1.000  C
  H168     1.0000 0.42230  0.73950  0.27790  Biso   1.000  H
  C135     1.0000 0.39720  0.63930  0.30930  Biso   1.000  C
  H169     1.0000 0.42470  0.61560  0.27590  Biso   1.000  H
  Ag6      1.0000 0.84221  0.62606  0.65935  Biso   1.000  Ag
  Si11     1.0000 0.54233  0.52360  0.86210  Biso   1.000  Si
  Si12     1.0000 0.14392  0.49869  0.85362  Biso   1.000  Si
  N21      1.0000 0.94260  0.59420  0.73220  Biso   1.000  N
  N22      1.0000 0.14180  0.24920  0.85370  Biso   1.000  N
  N23      1.0000 0.74310  0.58680  0.72080  Biso   1.000  N
  N24      1.0000 0.63220  0.41430  0.05420  Biso   1.000  N
  C136     1.0000 0.69670  0.53450  0.70610  Biso   1.000  C
  H170     1.0000 0.70190  0.51240  0.66430  Biso   1.000  H
  C137     1.0000 0.64110  0.50970  0.74760  Biso   1.000  C
  H171     1.0000 0.61380  0.46830  0.73580  Biso   1.000  H
  C138     1.0000 0.62430  0.54520  0.80730  Biso   1.000  C
  C139     1.0000 0.67130  0.59920  0.82120  Biso   1.000  C
  H172     1.0000 0.66450  0.62590  0.86050  Biso   1.000  H
  C140     1.0000 0.72940  0.61630  0.77890  Biso   1.000  C
  H173     1.0000 0.76250  0.65260  0.79290  Biso   1.000  H
  C141     1.0000 0.47990  0.45790  0.81700  Biso   1.000  C
  H174     1.0000 0.43690  0.44620  0.84470  Biso   1.000  H
  H175     1.0000 0.50820  0.41460  0.80730  Biso   1.000  H
  H176     1.0000 0.46260  0.47920  0.77560  Biso   1.000  H
  C142     1.0000 0.49500  0.60420  0.88390  Biso   1.000  C
  H177     1.0000 0.53240  0.63840  0.90080  Biso   1.000  H
  H178     1.0000 0.47310  0.62490  0.84340  Biso   1.000  H
  C143     1.0000 0.42870  0.59580  0.93910  Biso   1.000  C
  H179     1.0000 0.40430  0.64190  0.94590  Biso   1.000  H
  H180     1.0000 0.45030  0.57950  0.98080  Biso   1.000  H
  H181     1.0000 0.39190  0.56120  0.92370  Biso   1.000  H
  C144     1.0000 0.58050  0.47980  0.93760  Biso   1.000  C
  C145     1.0000 0.65720  0.48020  0.95610  Biso   1.000  C
  H182     1.0000 0.69390  0.50290  0.92970  Biso   1.000  H
  C146     1.0000 0.67660  0.44450  0.01690  Biso   1.000  C
  H183     1.0000 0.72770  0.44430  0.02920  Biso   1.000  H
  C147     1.0000 0.56090  0.41260  0.03730  Biso   1.000  C
  H184     1.0000 0.52590  0.39280  0.06730  Biso   1.000  H
  C148     1.0000 0.53560  0.43840  0.97780  Biso   1.000  C
  H185     1.0000 0.48630  0.42750  0.96400  Biso   1.000  H
  C149     1.0000 0.93380  0.56040  0.79170  Biso   1.000  C
  H186     1.0000 0.88530  0.55630  0.81000  Biso   1.000  H
  C150     1.0000 0.99220  0.53290  0.82480  Biso   1.000  C
  H187     1.0000 0.98230  0.51000  0.86560  Biso   1.000  H
  C151     1.0000 0.06420  0.53550  0.80400  Biso   1.000  C
  C152     1.0000 0.07240  0.56770  0.74650  Biso   1.000  C
  H188     1.0000 0.12080  0.56900  0.72760  Biso   1.000  H
  C153     1.0000 0.01500  0.59910  0.71270  Biso   1.000  C
  H189     1.0000 0.02630  0.62540  0.67410  Biso   1.000  H
  C154     1.0000 0.13800  0.53640  0.93930  Biso   1.000  C
  H190     1.0000 0.18920  0.53770  0.95750  Biso   1.000  H
  H191     1.0000 0.12090  0.58630  0.93550  Biso   1.000  H
  C155     1.0000 0.08620  0.49810  0.99200  Biso   1.000  C
  H192     1.0000 0.03710  0.52110  0.99260  Biso   1.000  H
  H193     1.0000 0.10900  0.50170  0.03570  Biso   1.000  H
  H194     1.0000 0.08040  0.44800  0.98010  Biso   1.000  H
  C156     1.0000 0.23700  0.51570  0.80630  Biso   1.000  C
  H195     1.0000 0.26090  0.47820  0.78320  Biso   1.000  H
  C157     1.0000 0.27000  0.58820  0.80690  Biso   1.000  C
  H196     1.0000 0.31710  0.58790  0.78220  Biso   1.000  H
  H197     1.0000 0.27970  0.60280  0.85250  Biso   1.000  H
  H198     1.0000 0.23530  0.62170  0.78630  Biso   1.000  H
  C158     1.0000 0.13910  0.39840  0.85490  Biso   1.000  C
  C159     1.0000 0.17700  0.36000  0.90420  Biso   1.000  C
  H199     1.0000 0.20320  0.38390  0.93840  Biso   1.000  H
  C160     1.0000 0.17500  0.28720  0.90140  Biso   1.000  C
  H200     1.0000 0.19900  0.26170  0.93590  Biso   1.000  H
  C161     1.0000 0.10490  0.28560  0.81060  Biso   1.000  C
  H201     1.0000 0.07770  0.26050  0.77790  Biso   1.000  H
  C162     1.0000 0.10280  0.36070  0.80930  Biso   1.000  C
  H202     1.0000 0.07530  0.38440  0.77590  Biso   1.000  H
  Ag7      1.0000 0.34221  0.87394  0.34065  Biso   1.000  Ag
  Si13     1.0000 0.04233  0.97640  0.13790  Biso   1.000  Si
  Si14     1.0000 0.64392  0.00131  0.14638  Biso   1.000  Si
  N25      1.0000 0.44260  0.90580  0.26780  Biso   1.000  N
  N26      1.0000 0.64180  0.25080  0.14630  Biso   1.000  N
  N27      1.0000 0.24310  0.91320  0.27920  Biso   1.000  N
  N28      1.0000 0.13220  0.08570  0.94580  Biso   1.000  N
  C163     1.0000 0.19670  0.96550  0.29390  Biso   1.000  C
  H203     1.0000 0.20190  0.98760  0.33570  Biso   1.000  H
  C164     1.0000 0.14110  0.99030  0.25240  Biso   1.000  C
  H204     1.0000 0.11380  0.03170  0.26420  Biso   1.000  H
  C165     1.0000 0.12430  0.95480  0.19270  Biso   1.000  C
  C166     1.0000 0.17130  0.90080  0.17880  Biso   1.000  C
  H205     1.0000 0.16450  0.87410  0.13950  Biso   1.000  H
  C167     1.0000 0.22940  0.88370  0.22110  Biso   1.000  C
  H206     1.0000 0.26250  0.84740  0.20710  Biso   1.000  H
  C168     1.0000 0.97990  0.04210  0.18300  Biso   1.000  C
  H207     1.0000 0.93690  0.05380  0.15530  Biso   1.000  H
  H208     1.0000 0.00820  0.08540  0.19270  Biso   1.000  H
  H209     1.0000 0.96260  0.02080  0.22440  Biso   1.000  H
  C169     1.0000 0.99500  0.89580  0.11610  Biso   1.000  C
  H210     1.0000 0.03240  0.86160  0.09920  Biso   1.000  H
  H211     1.0000 0.97310  0.87510  0.15660  Biso   1.000  H
  C170     1.0000 0.92870  0.90420  0.06090  Biso   1.000  C
  H212     1.0000 0.90430  0.85810  0.05410  Biso   1.000  H
  H213     1.0000 0.95030  0.92050  0.01920  Biso   1.000  H
  H214     1.0000 0.89190  0.93880  0.07630  Biso   1.000  H
  C171     1.0000 0.08050  0.02020  0.06240  Biso   1.000  C
  C172     1.0000 0.15720  0.01980  0.04390  Biso   1.000  C
  H215     1.0000 0.19390  0.99710  0.07030  Biso   1.000  H
  C173     1.0000 0.17660  0.05550  0.98310  Biso   1.000  C
  H216     1.0000 0.22770  0.05570  0.97080  Biso   1.000  H
  C174     1.0000 0.06090  0.08740  0.96270  Biso   1.000  C
  H217     1.0000 0.02590  0.10720  0.93270  Biso   1.000  H
  C175     1.0000 0.03560  0.06160  0.02220  Biso   1.000  C
  H218     1.0000 0.98630  0.07250  0.03600  Biso   1.000  H
  C176     1.0000 0.43380  0.93960  0.20830  Biso   1.000  C
  H219     1.0000 0.38530  0.94370  0.19000  Biso   1.000  H
  C177     1.0000 0.49220  0.96710  0.17520  Biso   1.000  C
  H220     1.0000 0.48230  0.99000  0.13440  Biso   1.000  H
  C178     1.0000 0.56420  0.96450  0.19600  Biso   1.000  C
  C179     1.0000 0.57240  0.93230  0.25350  Biso   1.000  C
  H221     1.0000 0.62080  0.93100  0.27240  Biso   1.000  H
  C180     1.0000 0.51500  0.90090  0.28730  Biso   1.000  C
  H222     1.0000 0.52630  0.87460  0.32590  Biso   1.000  H
  C181     1.0000 0.63800  0.96360  0.06070  Biso   1.000  C
  H223     1.0000 0.68920  0.96230  0.04250  Biso   1.000  H
  H224     1.0000 0.62090  0.91370  0.06450  Biso   1.000  H
  C182     1.0000 0.58620  0.00190  0.00800  Biso   1.000  C
  H225     1.0000 0.53710  0.97890  0.00740  Biso   1.000  H
  H226     1.0000 0.60900  0.99830  0.96430  Biso   1.000  H
  H227     1.0000 0.58040  0.05200  0.01990  Biso   1.000  H
  C183     1.0000 0.73700  0.98430  0.19370  Biso   1.000  C
  H228     1.0000 0.76090  0.02180  0.21680  Biso   1.000  H
  C184     1.0000 0.77000  0.91180  0.19310  Biso   1.000  C
  H229     1.0000 0.81710  0.91210  0.21780  Biso   1.000  H
  H230     1.0000 0.77970  0.89720  0.14750  Biso   1.000  H
  H231     1.0000 0.73530  0.87830  0.21370  Biso   1.000  H
  C185     1.0000 0.63910  0.10160  0.14510  Biso   1.000  C
  C186     1.0000 0.67700  0.14000  0.09580  Biso   1.000  C
  H232     1.0000 0.70320  0.11610  0.06160  Biso   1.000  H
  C187     1.0000 0.67500  0.21280  0.09860  Biso   1.000  C
  H233     1.0000 0.69900  0.23830  0.06410  Biso   1.000  H
  C188     1.0000 0.60490  0.21440  0.18940  Biso   1.000  C
  H234     1.0000 0.57770  0.23950  0.22210  Biso   1.000  H
  C189     1.0000 0.60280  0.13930  0.19070  Biso   1.000  C
  H235     1.0000 0.57530  0.11560  0.22410  Biso   1.000  H
  Ag8      1.0000 0.15779  0.12606  0.84065  Biso   1.000  Ag
  Si15     1.0000 0.45767  0.02360  0.63790  Biso   1.000  Si
  Si16     1.0000 0.85608  0.99869  0.64638  Biso   1.000  Si
  N29      1.0000 0.05740  0.09420  0.76780  Biso   1.000  N
  N30      1.0000 0.85820  0.74920  0.64630  Biso   1.000  N
  N31      1.0000 0.25690  0.08680  0.77920  Biso   1.000  N
  N32      1.0000 0.36780  0.91430  0.44580  Biso   1.000  N
  C190     1.0000 0.30330  0.03450  0.79390  Biso   1.000  C
  H236     1.0000 0.29810  0.01240  0.83570  Biso   1.000  H
  C191     1.0000 0.35890  0.00970  0.75240  Biso   1.000  C
  H237     1.0000 0.38620  0.96830  0.76420  Biso   1.000  H
  C192     1.0000 0.37570  0.04520  0.69270  Biso   1.000  C
  C193     1.0000 0.32870  0.09920  0.67880  Biso   1.000  C
  H238     1.0000 0.33550  0.12590  0.63950  Biso   1.000  H
  C194     1.0000 0.27060  0.11630  0.72110  Biso   1.000  C
  H239     1.0000 0.23750  0.15260  0.70710  Biso   1.000  H
  C195     1.0000 0.52010  0.95790  0.68300  Biso   1.000  C
  H240     1.0000 0.56310  0.94620  0.65530  Biso   1.000  H
  H241     1.0000 0.49180  0.91460  0.69270  Biso   1.000  H
  H242     1.0000 0.53740  0.97920  0.72440  Biso   1.000  H
  C196     1.0000 0.50500  0.10420  0.61610  Biso   1.000  C
  H243     1.0000 0.46760  0.13840  0.59920  Biso   1.000  H
  H244     1.0000 0.52690  0.12490  0.65660  Biso   1.000  H
  C197     1.0000 0.57130  0.09580  0.56090  Biso   1.000  C
  H245     1.0000 0.59570  0.14190  0.55410  Biso   1.000  H
  H246     1.0000 0.54970  0.07950  0.51920  Biso   1.000  H
  H247     1.0000 0.60810  0.06120  0.57630  Biso   1.000  H
  C198     1.0000 0.41950  0.97980  0.56240  Biso   1.000  C
  C199     1.0000 0.34280  0.98020  0.54390  Biso   1.000  C
  H248     1.0000 0.30610  0.00290  0.57030  Biso   1.000  H
  C200     1.0000 0.32340  0.94450  0.48310  Biso   1.000  C
  H249     1.0000 0.27230  0.94430  0.47080  Biso   1.000  H
  C201     1.0000 0.43910  0.91260  0.46270  Biso   1.000  C
  H250     1.0000 0.47410  0.89280  0.43270  Biso   1.000  H
  C202     1.0000 0.46440  0.93840  0.52220  Biso   1.000  C
  H251     1.0000 0.51370  0.92750  0.53600  Biso   1.000  H
  C203     1.0000 0.06620  0.06040  0.70830  Biso   1.000  C
  H252     1.0000 0.11470  0.05630  0.69000  Biso   1.000  H
  C204     1.0000 0.00780  0.03290  0.67520  Biso   1.000  C
  H253     1.0000 0.01770  0.01000  0.63440  Biso   1.000  H
  C205     1.0000 0.93580  0.03550  0.69600  Biso   1.000  C
  C206     1.0000 0.92760  0.06770  0.75350  Biso   1.000  C
  H254     1.0000 0.87920  0.06900  0.77240  Biso   1.000  H
  C207     1.0000 0.98500  0.09910  0.78730  Biso   1.000  C
  H255     1.0000 0.97370  0.12540  0.82590  Biso   1.000  H
  C208     1.0000 0.86200  0.03640  0.56070  Biso   1.000  C
  H256     1.0000 0.81080  0.03770  0.54250  Biso   1.000  H
  H257     1.0000 0.87910  0.08630  0.56450  Biso   1.000  H
  C209     1.0000 0.91380  0.99810  0.50800  Biso   1.000  C
  H258     1.0000 0.96290  0.02110  0.50740  Biso   1.000  H
  H259     1.0000 0.89100  0.00170  0.46430  Biso   1.000  H
  H260     1.0000 0.91960  0.94800  0.51990  Biso   1.000  H
  C210     1.0000 0.76300  0.01570  0.69370  Biso   1.000  C
  H261     1.0000 0.73910  0.97820  0.71680  Biso   1.000  H
  C211     1.0000 0.73000  0.08820  0.69310  Biso   1.000  C
  H262     1.0000 0.68290  0.08790  0.71780  Biso   1.000  H
  H263     1.0000 0.72030  0.10280  0.64750  Biso   1.000  H
  H264     1.0000 0.76470  0.12170  0.71370  Biso   1.000  H
  C212     1.0000 0.86090  0.89840  0.64510  Biso   1.000  C
  C213     1.0000 0.82300  0.86000  0.59580  Biso   1.000  C
  H265     1.0000 0.79680  0.88390  0.56160  Biso   1.000  H
  C214     1.0000 0.82500  0.78720  0.59860  Biso   1.000  C
  H266     1.0000 0.80100  0.76170  0.56410  Biso   1.000  H
  C215     1.0000 0.89510  0.78560  0.68940  Biso   1.000  C
  H267     1.0000 0.92230  0.76050  0.72210  Biso   1.000  H
  C216     1.0000 0.89720  0.86070  0.69070  Biso   1.000  C
  H268     1.0000 0.92470  0.88440  0.72410  Biso   1.000  H
