data_QIYDEJ_clean
_audit_creation_date              2015-10-16
_audit_creation_method            'Materials Studio'
_symmetry_space_group_name_H-M    'P1'
_symmetry_Int_Tables_number       1
_symmetry_cell_setting            triclinic
loop_
_symmetry_equiv_pos_as_xyz
  x,y,z
_cell_length_a                    29.6425
_cell_length_b                    29.6425
_cell_length_c                    29.6425
_cell_angle_alpha                 101.4730
_cell_angle_beta                  113.6120
_cell_angle_gamma                 113.6120
loop_
_atom_site_label
_atom_site_type_symbol
_atom_site_fract_x
_atom_site_fract_y
_atom_site_fract_z
_atom_site_U_iso_or_equiv
_atom_site_adp_type
_atom_site_occupancy
Cu1    Cu    0.35037   0.52448   0.82589   0.01267  Uiso   1.00
Cu2    Cu    0.50000   0.78504   0.28504   0.01267  Uiso   1.00
Cu3    Cu    0.20631   0.74556   0.46075   0.01267  Uiso   1.00
Cu4    Cu    0.64963   0.47552   0.17411   0.01267  Uiso   1.00
Cu5    Cu    0.30141   0.82589   0.47552   0.01267  Uiso   1.00
Cu6    Cu    0.50000   0.28504   0.78504   0.01267  Uiso   1.00
Cu7    Cu    0.79369   0.25444   0.53925   0.01267  Uiso   1.00
Cu8    Cu    0.50000   0.21496   0.71496   0.01267  Uiso   1.00
Cu9    Cu    0.69859   0.17411   0.52448   0.01267  Uiso   1.00
Cu10   Cu    0.28481   0.53925   0.74556   0.01267  Uiso   1.00
Cu11   Cu    0.50000   0.71496   0.21496   0.01267  Uiso   1.00
Cu12   Cu    0.71519   0.46075   0.25444   0.01267  Uiso   1.00
H1     H     0.57560   0.19540   0.12800   0.01267  Uiso   1.00
H2     H     0.31690   0.19830   0.72360   0.01267  Uiso   1.00
H3     H     0.77910   0.97510   0.40960   0.01267  Uiso   1.00
H4     H     0.46980   0.69440   0.94440   0.01267  Uiso   1.00
H5     H     0.54720   0.98490   0.95810   0.01267  Uiso   1.00
H6     H     0.93260   0.12800   0.55240   0.01267  Uiso   1.00
H7     H     0.78130   0.46920   0.92030   0.01267  Uiso   1.00
H8     H     0.57560   0.44760   0.38020   0.01267  Uiso   1.00
H9     H     0.53020   0.47460   0.22460   0.01267  Uiso   1.00
H10    H     0.31950   0.69180   0.23370   0.01267  Uiso   1.00
H11    H     0.26360   0.52110   0.91510   0.01267  Uiso   1.00
H12    H     0.62740   0.28890   0.18110   0.01267  Uiso   1.00
H13    H     0.39170   0.88620   0.90770   0.01267  Uiso   1.00
H14    H     0.54110   0.56520   0.97590   0.01267  Uiso   1.00
H15    H     0.42510   0.95100   0.74410   0.01267  Uiso   1.00
H16    H     0.59470   0.55660   0.03810   0.01267  Uiso   1.00
H17    H     0.25000   0.94440   0.47460   0.01267  Uiso   1.00
H18    H     0.06740   0.61980   0.19540   0.01267  Uiso   1.00
H19    H     0.68050   0.91420   0.37230   0.01267  Uiso   1.00
H20    H     0.97850   0.49450   0.88620   0.01267  Uiso   1.00
H21    H     0.93260   0.38020   0.80460   0.01267  Uiso   1.00
H22    H     0.79090   0.00380   0.52730   0.01267  Uiso   1.00
H23    H     0.54190   0.62770   0.30820   0.01267  Uiso   1.00
H24    H     0.47650   0.47270   0.26360   0.01267  Uiso   1.00
H25    H     0.47470   0.27640   0.59330   0.01267  Uiso   1.00
H26    H     0.58930   0.02410   0.56520   0.01267  Uiso   1.00
H27    H     0.06740   0.87200   0.44760   0.01267  Uiso   1.00
H28    H     0.02680   0.43770   0.98490   0.01267  Uiso   1.00
H29    H     0.73640   0.47890   0.08490   0.01267  Uiso   1.00
H30    H     0.10600   0.28470   0.56930   0.01267  Uiso   1.00
H31    H     0.42440   0.55240   0.61980   0.01267  Uiso   1.00
H32    H     0.79310   0.74410   0.31900   0.01267  Uiso   1.00
H33    H     0.68050   0.30820   0.76630   0.01267  Uiso   1.00
H34    H     0.39170   0.48400   0.50550   0.01267  Uiso   1.00
H35    H     0.97320   0.56230   0.01510   0.01267  Uiso   1.00
H36    H     0.68310   0.40670   0.88140   0.01267  Uiso   1.00
H37    H     0.57030   0.47390   0.60160   0.01267  Uiso   1.00
H38    H     0.89220   0.33850   0.71110   0.01267  Uiso   1.00
H39    H     0.12770   0.09640   0.52610   0.01267  Uiso   1.00
H40    H     0.71540   0.43070   0.53670   0.01267  Uiso   1.00
H41    H     0.20910   0.99620   0.47270   0.01267  Uiso   1.00
H42    H     0.60830   0.51600   0.49450   0.01267  Uiso   1.00
H43    H     0.89400   0.71530   0.43070   0.01267  Uiso   1.00
H44    H     0.52300   0.42980   0.09320   0.01267  Uiso   1.00
H45    H     0.74760   0.21400   0.37480   0.01267  Uiso   1.00
H46    H     0.87230   0.90360   0.47390   0.01267  Uiso   1.00
H47    H     0.57490   0.04900   0.25590   0.01267  Uiso   1.00
H48    H     0.45810   0.37230   0.69180   0.01267  Uiso   1.00
H49    H     0.71540   0.17870   0.28470   0.01267  Uiso   1.00
H50    H     0.56550   0.19600   0.97510   0.01267  Uiso   1.00
H51    H     0.57490   0.31900   0.52590   0.01267  Uiso   1.00
H52    H     0.47650   0.21290   0.00380   0.01267  Uiso   1.00
H53    H     0.52350   0.78710   0.99620   0.01267  Uiso   1.00
H54    H     0.83920   0.62520   0.37280   0.01267  Uiso   1.00
H55    H     0.37260   0.55370   0.66150   0.01267  Uiso   1.00
H56    H     0.51850   0.96190   0.55660   0.01267  Uiso   1.00
H57    H     0.62740   0.44630   0.33850   0.01267  Uiso   1.00
H58    H     0.43750   0.89240   0.54510   0.01267  Uiso   1.00
H59    H     0.77910   0.36950   0.80400   0.01267  Uiso   1.00
H60    H     0.42440   0.80460   0.87200   0.01267  Uiso   1.00
H61    H     0.47470   0.88140   0.19830   0.01267  Uiso   1.00
H62    H     0.56250   0.10760   0.45490   0.01267  Uiso   1.00
H63    H     0.12770   0.60160   0.03130   0.01267  Uiso   1.00
H64    H     0.79090   0.26360   0.78710   0.01267  Uiso   1.00
H65    H     0.31950   0.08580   0.62770   0.01267  Uiso   1.00
H66    H     0.45280   0.41090   0.43770   0.01267  Uiso   1.00
H67    H     0.37260   0.71110   0.81890   0.01267  Uiso   1.00
H68    H     0.47700   0.57020   0.90680   0.01267  Uiso   1.00
H69    H     0.56550   0.59040   0.36950   0.01267  Uiso   1.00
H70    H     0.75000   0.05560   0.52540   0.01267  Uiso   1.00
H71    H     0.22090   0.02490   0.59040   0.01267  Uiso   1.00
H72    H     0.39400   0.74250   0.47890   0.01267  Uiso   1.00
H73    H     0.42970   0.52610   0.39840   0.01267  Uiso   1.00
H74    H     0.16080   0.53360   0.78600   0.01267  Uiso   1.00
H75    H     0.28460   0.82130   0.71530   0.01267  Uiso   1.00
H76    H     0.89220   0.18110   0.55370   0.01267  Uiso   1.00
H77    H     0.21870   0.13900   0.68790   0.01267  Uiso   1.00
H78    H     0.97320   0.95810   0.41090   0.01267  Uiso   1.00
H79    H     0.75000   0.22460   0.69440   0.01267  Uiso   1.00
H80    H     0.34730   0.45490   0.89240   0.01267  Uiso   1.00
H81    H     0.25000   0.77540   0.30560   0.01267  Uiso   1.00
H82    H     0.52530   0.11860   0.80170   0.01267  Uiso   1.00
H83    H     0.60600   0.25750   0.52110   0.01267  Uiso   1.00
H84    H     0.39400   0.91510   0.65150   0.01267  Uiso   1.00
H85    H     0.45110   0.31210   0.53080   0.01267  Uiso   1.00
H86    H     0.20690   0.52590   0.95100   0.01267  Uiso   1.00
H87    H     0.45280   0.01510   0.04190   0.01267  Uiso   1.00
H88    H     0.02150   0.90770   0.51600   0.01267  Uiso   1.00
H89    H     0.65270   0.54510   0.10760   0.01267  Uiso   1.00
H90    H     0.16080   0.37480   0.62720   0.01267  Uiso   1.00
H91    H     0.22090   0.63050   0.19600   0.01267  Uiso   1.00
H92    H     0.10780   0.66150   0.28890   0.01267  Uiso   1.00
H93    H     0.52530   0.72360   0.40670   0.01267  Uiso   1.00
H94    H     0.42510   0.68100   0.47410   0.01267  Uiso   1.00
H95    H     0.25240   0.62720   0.46640   0.01267  Uiso   1.00
H96    H     0.40530   0.44340   0.96190   0.01267  Uiso   1.00
H97    H     0.45810   0.76630   0.08580   0.01267  Uiso   1.00
H98    H     0.10600   0.53670   0.82130   0.01267  Uiso   1.00
H99    H     0.02680   0.04190   0.58910   0.01267  Uiso   1.00
H100   H     0.45890   0.43480   0.02410   0.01267  Uiso   1.00
H101   H     0.74760   0.37280   0.53360   0.01267  Uiso   1.00
H102   H     0.60600   0.08490   0.34850   0.01267  Uiso   1.00
H103   H     0.45110   0.92030   0.13900   0.01267  Uiso   1.00
H104   H     0.48150   0.03810   0.44340   0.01267  Uiso   1.00
H105   H     0.79310   0.47410   0.04900   0.01267  Uiso   1.00
H106   H     0.28460   0.56930   0.46330   0.01267  Uiso   1.00
H107   H     0.97850   0.09230   0.48400   0.01267  Uiso   1.00
H108   H     0.54190   0.23370   0.91420   0.01267  Uiso   1.00
H109   H     0.60830   0.11380   0.09230   0.01267  Uiso   1.00
H110   H     0.33660   0.90680   0.42980   0.01267  Uiso   1.00
H111   H     0.68310   0.80170   0.27640   0.01267  Uiso   1.00
H112   H     0.41070   0.97590   0.43480   0.01267  Uiso   1.00
H113   H     0.66340   0.09320   0.57020   0.01267  Uiso   1.00
H114   H     0.52350   0.52730   0.73640   0.01267  Uiso   1.00
H115   H     0.53020   0.30560   0.05560   0.01267  Uiso   1.00
H116   H     0.43450   0.40960   0.63050   0.01267  Uiso   1.00
H117   H     0.54720   0.58910   0.56230   0.01267  Uiso   1.00
H118   H     0.83920   0.46640   0.21400   0.01267  Uiso   1.00
H119   H     0.57030   0.96870   0.09640   0.01267  Uiso   1.00
H120   H     0.20910   0.73640   0.21290   0.01267  Uiso   1.00
H121   H     0.20690   0.25590   0.68100   0.01267  Uiso   1.00
H122   H     0.10780   0.81890   0.44630   0.01267  Uiso   1.00
H123   H     0.87230   0.39840   0.96870   0.01267  Uiso   1.00
H124   H     0.89400   0.46330   0.17870   0.01267  Uiso   1.00
H125   H     0.43450   0.80400   0.02490   0.01267  Uiso   1.00
H126   H     0.46980   0.52540   0.77540   0.01267  Uiso   1.00
H127   H     0.54890   0.68790   0.46920   0.01267  Uiso   1.00
H128   H     0.25240   0.78600   0.62520   0.01267  Uiso   1.00
H129   H     0.73640   0.65150   0.25750   0.01267  Uiso   1.00
H130   H     0.26360   0.34850   0.74250   0.01267  Uiso   1.00
H131   H     0.54890   0.07970   0.86100   0.01267  Uiso   1.00
H132   H     0.31690   0.59330   0.11860   0.01267  Uiso   1.00
H133   H     0.78130   0.86100   0.31210   0.01267  Uiso   1.00
H134   H     0.42970   0.03130   0.90360   0.01267  Uiso   1.00
H135   H     0.21870   0.53080   0.07970   0.01267  Uiso   1.00
H136   H     0.02150   0.50550   0.11380   0.01267  Uiso   1.00
C1     C     0.42240   0.47060   0.95180   0.01267  Uiso   1.00
C2     C     0.41630   0.53926   0.72222   0.01267  Uiso   1.00
C3     C     0.40300   0.54756   0.67658   0.01267  Uiso   1.00
C4     C     0.94506   0.41120   0.96836   0.01267  Uiso   1.00
C5     C     0.56932   0.60850   0.46146   0.01267  Uiso   1.00
C6     C     0.76006   0.37723   0.82037   0.01267  Uiso   1.00
C7     C     0.89211   0.02800   0.53905   0.01267  Uiso   1.00
C8     C     0.23994   0.06031   0.61717   0.01267  Uiso   1.00
C9     C     0.87098   0.14456   0.54756   0.01267  Uiso   1.00
C10    C     0.59558   0.52062   0.51846   0.01267  Uiso   1.00
C11    C     0.35718   0.89095   0.73845   0.01267  Uiso   1.00
C12    C     0.40695   0.50977   0.45128   0.01267  Uiso   1.00
C13    C     0.70266   0.39923   0.86559   0.01267  Uiso   1.00
C14    C     0.54336   0.20254   0.90336   0.01267  Uiso   1.00
C15    C     0.86155   0.46542   0.15901   0.01267  Uiso   1.00
C16    C     0.55686   0.17963   0.93969   0.01267  Uiso   1.00
C17    C     0.45664   0.36000   0.65918   0.01267  Uiso   1.00
C18    C     0.37420   0.91760   0.45660   0.01267  Uiso   1.00
C19    C     0.43405   0.78230   0.88699   0.01267  Uiso   1.00
C20    C     0.30641   0.84099   0.70254   0.01267  Uiso   1.00
C21    C     0.15250   0.26155   0.61873   0.01267  Uiso   1.00
C22    C     0.85296   0.96082   0.39150   0.01267  Uiso   1.00
C23    C     0.42109   0.44167   0.47532   0.01267  Uiso   1.00
C24    C     0.47882   0.80473   0.94005   0.01267  Uiso   1.00
C25    C     0.76144   0.43648   0.88948   0.01267  Uiso   1.00
C26    C     0.82935   0.64923   0.36166   0.01267  Uiso   1.00
C27    C     0.41880   0.95990   0.45890   0.01267  Uiso   1.00
C28    C     0.64282   0.38127   0.53377   0.01267  Uiso   1.00
C29    C     0.88102   0.79517   0.41817   0.01267  Uiso   1.00
C30    C     0.08675   0.58252   0.00933   0.01267  Uiso   1.00
C31    C     0.51876   0.49688   0.02188   0.01267  Uiso   1.00
C32    C     0.00216   0.48154   0.07712   0.01267  Uiso   1.00
C33    C     0.58120   0.04010   0.54110   0.01267  Uiso   1.00
C34    C     0.70316   0.27197   0.52735   0.01267  Uiso   1.00
C35    C     0.48895   0.46095   0.35306   0.01267  Uiso   1.00
C36    C     0.44239   0.36653   0.57580   0.01267  Uiso   1.00
C37    C     0.23856   0.56352   0.11052   0.01267  Uiso   1.00
C38    C     0.45300   0.32496   0.56352   0.01267  Uiso   1.00
C39    C     0.48120   0.95180   0.52940   0.01267  Uiso   1.00
C40    C     0.79073   0.42420   0.86659   0.01267  Uiso   1.00
C41    C     0.21014   0.84277   0.46211   0.01267  Uiso   1.00
C42    C     0.10789   0.97200   0.46095   0.01267  Uiso   1.00
C43    C     0.89211   0.35306   0.86411   0.01267  Uiso   1.00
C44    C     0.55716   0.96836   0.02330   0.01267  Uiso   1.00
C45    C     0.21797   0.52807   0.84756   0.01267  Uiso   1.00
C46    C     0.44079   0.99986   0.00507   0.01267  Uiso   1.00
C47    C     0.55761   0.63347   0.42420   0.01267  Uiso   1.00
C48    C     0.38780   0.47820   0.90960   0.01267  Uiso   1.00
C49    C     0.00521   0.44093   0.00014   0.01267  Uiso   1.00
C50    C     0.46628   0.46189   0.37739   0.01267  Uiso   1.00
C51    C     0.09174   0.15893   0.54931   0.01267  Uiso   1.00
C52    C     0.96635   0.02058   0.44167   0.01267  Uiso   1.00
C53    C     0.59558   0.07712   0.07496   0.01267  Uiso   1.00
C54    C     0.46636   0.86559   0.16293   0.01267  Uiso   1.00
C55    C     0.57760   0.52940   0.04820   0.01267  Uiso   1.00
C56    C     0.81175   0.27991   0.77200   0.01267  Uiso   1.00
C57    C     0.57891   0.55833   0.52468   0.01267  Uiso   1.00
C58    C     0.54700   0.11052   0.87196   0.01267  Uiso   1.00
C59    C     0.48053   0.79381   0.18540   0.01267  Uiso   1.00
C60    C     0.00216   0.92504   0.52062   0.01267  Uiso   1.00
C61    C     0.42681   0.50423   0.41748   0.01267  Uiso   1.00
C62    C     0.31949   0.84756   0.62959   0.01267  Uiso   1.00
C63    C     0.23994   0.62277   0.17963   0.01267  Uiso   1.00
C64    C     0.51105   0.53905   0.64694   0.01267  Uiso   1.00
C65    C     0.11898   0.53715   0.91415   0.01267  Uiso   1.00
C66    C     0.48895   0.13589   0.02800   0.01267  Uiso   1.00
C67    C     0.81175   0.03975   0.53184   0.01267  Uiso   1.00
C68    C     0.69359   0.39613   0.53458   0.01267  Uiso   1.00
C69    C     0.19808   0.52799   0.91759   0.01267  Uiso   1.00
C70    C     0.68051   0.31010   0.52807   0.01267  Uiso   1.00
C71    C     0.54700   0.67504   0.43648   0.01267  Uiso   1.00
C72    C     0.49209   0.77200   0.96025   0.01267  Uiso   1.00
C73    C     0.49209   0.53184   0.72009   0.01267  Uiso   1.00
C74    C     0.90826   0.84107   0.45069   0.01267  Uiso   1.00
C75    C     0.03365   0.97942   0.55833   0.01267  Uiso   1.00
C76    C     0.21014   0.74803   0.36737   0.01267  Uiso   1.00
C77    C     0.91325   0.41748   0.99067   0.01267  Uiso   1.00
C78    C     0.44079   0.43572   0.44093   0.01267  Uiso   1.00
C79    C     0.38066   0.63263   0.84277   0.01267  Uiso   1.00
C80    C     0.57891   0.05423   0.02058   0.01267  Uiso   1.00
C81    C     0.96635   0.52468   0.94577   0.01267  Uiso   1.00
C82    C     0.37138   0.89643   0.66415   0.01267  Uiso   1.00
C83    C     0.10469   0.88699   0.45294   0.01267  Uiso   1.00
C84    C     0.40695   0.95567   0.89718   0.01267  Uiso   1.00
C85    C     0.42373   0.41252   0.50921   0.01267  Uiso   1.00
C86    C     0.76144   0.87196   0.32496   0.01267  Uiso   1.00
C87    C     0.55761   0.13341   0.92414   0.01267  Uiso   1.00
C88    C     0.89531   0.34825   0.78230   0.01267  Uiso   1.00
C89    C     0.76772   0.66415   0.29277   0.01267  Uiso   1.00
C90    C     0.82935   0.46769   0.18012   0.01267  Uiso   1.00
C91    C     0.71243   0.18012   0.35077   0.01267  Uiso   1.00
C92    C     0.11898   0.20483   0.58183   0.01267  Uiso   1.00
C93    C     0.55921   0.00014   0.99493   0.01267  Uiso   1.00
C94    C     0.47500   0.97812   0.49688   0.01267  Uiso   1.00
C95    C     0.05494   0.58880   0.03164   0.01267  Uiso   1.00
C96    C     0.94151   0.89718   0.49023   0.01267  Uiso   1.00
C97    C     0.79073   0.92414   0.36653   0.01267  Uiso   1.00
C98    C     0.62580   0.08240   0.54340   0.01267  Uiso   1.00
C99    C     0.39159   0.18540   0.70487   0.01267  Uiso   1.00
C100   C     0.37700   0.91415   0.79517   0.01267  Uiso   1.00
C101   C     0.53221   0.18029   0.85236   0.01267  Uiso   1.00
C102   C     0.91550   0.00439   0.53811   0.01267  Uiso   1.00
C103   C     0.58370   0.30592   0.12296   0.01267  Uiso   1.00
C104   C     0.51880   0.04820   0.47060   0.01267  Uiso   1.00
C105   C     0.59305   0.04433   0.10282   0.01267  Uiso   1.00
C106   C     0.12902   0.67658   0.27358   0.01267  Uiso   1.00
C107   C     0.13532   0.67409   0.19527   0.01267  Uiso   1.00
C108   C     0.61040   0.08241   0.28049   0.01267  Uiso   1.00
C109   C     0.28757   0.81988   0.64923   0.01267  Uiso   1.00
C110   C     0.28757   0.63834   0.46769   0.01267  Uiso   1.00
C111   C     0.46100   0.54340   0.91760   0.01267  Uiso   1.00
C112   C     0.08450   0.99561   0.46189   0.01267  Uiso   1.00
C113   C     0.09174   0.54243   0.93281   0.01267  Uiso   1.00
C114   C     0.81704   0.12296   0.53926   0.01267  Uiso   1.00
C115   C     0.40442   0.92288   0.92504   0.01267  Uiso   1.00
C116   C     0.55921   0.56428   0.55907   0.01267  Uiso   1.00
C117   C     0.32793   0.64808   0.18029   0.01267  Uiso   1.00
C118   C     0.52118   0.46123   0.32591   0.01267  Uiso   1.00
C119   C     0.18825   0.96025   0.46816   0.01267  Uiso   1.00
C120   C     0.40300   0.72642   0.85544   0.01267  Uiso   1.00
C121   C     0.38960   0.91759   0.71951   0.01267  Uiso   1.00
C122   C     0.60841   0.81460   0.29513   0.01267  Uiso   1.00
C123   C     0.53372   0.91111   0.99561   0.01267  Uiso   1.00
C124   C     0.61934   0.46211   0.25197   0.01267  Uiso   1.00
C125   C     0.44284   0.46614   0.41120   0.01267  Uiso   1.00
C126   C     0.53221   0.67985   0.35192   0.01267  Uiso   1.00
C127   C     0.99479   0.55907   0.99986   0.01267  Uiso   1.00
C128   C     0.43068   0.39150   0.53854   0.01267  Uiso   1.00
C129   C     0.23228   0.52505   0.89643   0.01267  Uiso   1.00
C130   C     0.10789   0.64694   0.13589   0.01267  Uiso   1.00
C131   C     0.59700   0.27358   0.14456   0.01267  Uiso   1.00
C132   C     0.78986   0.25197   0.63263   0.01267  Uiso   1.00
C133   C     0.44239   0.86659   0.07586   0.01267  Uiso   1.00
C134   C     0.78757   0.25624   0.71669   0.01267  Uiso   1.00
C135   C     0.32793   0.14764   0.67985   0.01267  Uiso   1.00
C136   C     0.53955   0.46867   0.25624   0.01267  Uiso   1.00
C137   C     0.60841   0.31328   0.79381   0.01267  Uiso   1.00
C138   C     0.23228   0.33585   0.70723   0.01267  Uiso   1.00
C139   C     0.54336   0.64000   0.34082   0.01267  Uiso   1.00
C140   C     0.61220   0.52180   0.09040   0.01267  Uiso   1.00
C141   C     0.50791   0.46816   0.27991   0.01267  Uiso   1.00
C142   C     0.29918   0.65918   0.20254   0.01267  Uiso   1.00
C143   C     0.25538   0.52735   0.82419   0.01267  Uiso   1.00
C144   C     0.90331   0.98879   0.41252   0.01267  Uiso   1.00
C145   C     0.19808   0.28049   0.67009   0.01267  Uiso   1.00
C146   C     0.39038   0.93281   0.84107   0.01267  Uiso   1.00
C147   C     0.69359   0.15901   0.29746   0.01267  Uiso   1.00
C148   C     0.60962   0.45069   0.54243   0.01267  Uiso   1.00
C149   C     0.74462   0.47265   0.17581   0.01267  Uiso   1.00
C150   C     0.99784   0.51846   0.92288   0.01267  Uiso   1.00
C151   C     0.43405   0.54706   0.65175   0.01267  Uiso   1.00
C152   C     0.59700   0.45244   0.32342   0.01267  Uiso   1.00
C153   C     0.23856   0.12804   0.67504   0.01267  Uiso   1.00
C154   C     0.53372   0.53811   0.62261   0.01267  Uiso   1.00
C155   C     0.57319   0.99067   0.07742   0.01267  Uiso   1.00
C156   C     0.35718   0.61873   0.46623   0.01267  Uiso   1.00
C157   C     0.70266   0.83707   0.30343   0.01267  Uiso   1.00
C158   C     0.30641   0.60387   0.46542   0.01267  Uiso   1.00
C159   C     0.68051   0.15244   0.37041   0.01267  Uiso   1.00
C160   C     0.61040   0.32991   0.52799   0.01267  Uiso   1.00
C161   C     0.53900   0.45660   0.08240   0.01267  Uiso   1.00
C162   C     0.89531   0.11301   0.54706   0.01267  Uiso   1.00
C163   C     0.71243   0.36166   0.53231   0.01267  Uiso   1.00
C164   C     0.14704   0.53854   0.10786   0.01267  Uiso   1.00
C165   C     0.67207   0.85236   0.32015   0.01267  Uiso   1.00
C166   C     0.78203   0.47193   0.15244   0.01267  Uiso   1.00
C167   C     0.48053   0.29513   0.68672   0.01267  Uiso   1.00
C168   C     0.05849   0.54872   0.95567   0.01267  Uiso   1.00
C169   C     0.85296   0.46146   0.89214   0.01267  Uiso   1.00
C170   C     0.53364   0.13441   0.83707   0.01267  Uiso   1.00
C171   C     0.18825   0.72009   0.22800   0.01267  Uiso   1.00
C172   C     0.56860   0.09040   0.47820   0.01267  Uiso   1.00
C173   C     0.99479   0.99493   0.43572   0.01267  Uiso   1.00
C174   C     0.43140   0.90960   0.52180   0.01267  Uiso   1.00
C175   C     0.09669   0.50921   0.08548   0.01267  Uiso   1.00
C176   C     0.90826   0.45757   0.06719   0.01267  Uiso   1.00
C177   C     0.59305   0.49023   0.54872   0.01267  Uiso   1.00
C178   C     0.14704   0.03918   0.60850   0.01267  Uiso   1.00
C179   C     0.84750   0.46623   0.10905   0.01267  Uiso   1.00
C180   C     0.20927   0.07586   0.63347   0.01267  Uiso   1.00
C181   C     0.38066   0.53789   0.74803   0.01267  Uiso   1.00
C182   C     0.70316   0.17581   0.43119   0.01267  Uiso   1.00
C183   C     0.40442   0.47938   0.48154   0.01267  Uiso   1.00
C184   C     0.08675   0.07742   0.50423   0.01267  Uiso   1.00
C185   C     0.29734   0.16293   0.69657   0.01267  Uiso   1.00
C186   C     0.18296   0.72222   0.30592   0.01267  Uiso   1.00
C187   C     0.03365   0.47532   0.05423   0.01267  Uiso   1.00
C188   C     0.70082   0.34082   0.79746   0.01267  Uiso   1.00
C189   C     0.57627   0.58748   0.49079   0.01267  Uiso   1.00
C190   C     0.51947   0.20619   0.81460   0.01267  Uiso   1.00
C191   C     0.57319   0.49577   0.58252   0.01267  Uiso   1.00
C192   C     0.80192   0.47201   0.08241   0.01267  Uiso   1.00
C193   C     0.08450   0.62261   0.08889   0.01267  Uiso   1.00
C194   C     0.17065   0.35077   0.63834   0.01267  Uiso   1.00
C195   C     0.46628   0.08889   0.00439   0.01267  Uiso   1.00
C196   C     0.91325   0.92258   0.49577   0.01267  Uiso   1.00
C197   C     0.10469   0.65175   0.21770   0.01267  Uiso   1.00
C198   C     0.20927   0.57580   0.13341   0.01267  Uiso   1.00
C199   C     0.05849   0.10282   0.50977   0.01267  Uiso   1.00
C200   C     0.62862   0.10357   0.33585   0.01267  Uiso   1.00
C201   C     0.44314   0.82037   0.06031   0.01267  Uiso   1.00
C202   C     0.81704   0.27778   0.69408   0.01267  Uiso   1.00
C203   C     0.21243   0.92912   0.46867   0.01267  Uiso   1.00
C204   C     0.76772   0.47495   0.10357   0.01267  Uiso   1.00
C205   C     0.51105   0.86411   0.97200   0.01267  Uiso   1.00
C206   C     0.90331   0.49079   0.91452   0.01267  Uiso   1.00
C207   C     0.78757   0.07088   0.53133   0.01267  Uiso   1.00
C208   C     0.56932   0.10786   0.96082   0.01267  Uiso   1.00
C209   C     0.50100   0.54110   0.95990   0.01267  Uiso   1.00
C210   C     0.88102   0.46285   0.08585   0.01267  Uiso   1.00
C211   C     0.52118   0.19527   0.05995   0.01267  Uiso   1.00
C212   C     0.52500   0.02188   0.50312   0.01267  Uiso   1.00
C213   C     0.86155   0.70254   0.39613   0.01267  Uiso   1.00
C214   C     0.29684   0.82419   0.56881   0.01267  Uiso   1.00
C215   C     0.50791   0.22800   0.03975   0.01267  Uiso   1.00
C216   C     0.42681   0.00933   0.92258   0.01267  Uiso   1.00
C217   C     0.39038   0.54931   0.45757   0.01267  Uiso   1.00
C218   C     0.58370   0.46074   0.27778   0.01267  Uiso   1.00
C219   C     0.53364   0.69657   0.39923   0.01267  Uiso   1.00
C220   C     0.41630   0.69408   0.87704   0.01267  Uiso   1.00
C221   C     0.43068   0.89214   0.03918   0.01267  Uiso   1.00
C222   C     0.13532   0.94005   0.46123   0.01267  Uiso   1.00
C223   C     0.86468   0.32591   0.80473   0.01267  Uiso   1.00
C224   C     0.12902   0.85544   0.45244   0.01267  Uiso   1.00
C225   C     0.44284   0.03164   0.97670   0.01267  Uiso   1.00
C226   C     0.87098   0.32342   0.72642   0.01267  Uiso   1.00
C227   C     0.62300   0.41817   0.53715   0.01267  Uiso   1.00
C228   C     0.37700   0.58183   0.46285   0.01267  Uiso   1.00
C229   C     0.78986   0.15723   0.53789   0.01267  Uiso   1.00
C230   C     0.62862   0.29277   0.52505   0.01267  Uiso   1.00
C231   C     0.61934   0.36737   0.15723   0.01267  Uiso   1.00
C232   C     0.29684   0.72803   0.47265   0.01267  Uiso   1.00
C233   C     0.05494   0.02330   0.46614   0.01267  Uiso   1.00
C234   C     0.80192   0.71951   0.32991   0.01267  Uiso   1.00
C235   C     0.47882   0.53877   0.67409   0.01267  Uiso   1.00
C236   C     0.31949   0.68990   0.47193   0.01267  Uiso   1.00
C237   C     0.38960   0.67009   0.47201   0.01267  Uiso   1.00
C238   C     0.42373   0.91452   0.01121   0.01267  Uiso   1.00
C239   C     0.56595   0.21770   0.11301   0.01267  Uiso   1.00
C240   C     0.91550   0.37739   0.91111   0.01267  Uiso   1.00
C241   C     0.29918   0.09664   0.64000   0.01267  Uiso   1.00
C242   C     0.42109   0.94577   0.97942   0.01267  Uiso   1.00
C243   C     0.84750   0.73845   0.38127   0.01267  Uiso   1.00
C244   C     0.57627   0.08548   0.98879   0.01267  Uiso   1.00
C245   C     0.76006   0.93969   0.38283   0.01267  Uiso   1.00
C246   C     0.51947   0.70487   0.31328   0.01267  Uiso   1.00
C247   C     0.25538   0.43119   0.72803   0.01267  Uiso   1.00
C248   C     0.09669   0.01121   0.58748   0.01267  Uiso   1.00
C249   C     0.55686   0.61717   0.37723   0.01267  Uiso   1.00
C250   C     0.13845   0.29746   0.60387   0.01267  Uiso   1.00
C251   C     0.46045   0.53133   0.74376   0.01267  Uiso   1.00
C252   C     0.45300   0.88948   0.12804   0.01267  Uiso   1.00
C253   C     0.13845   0.53458   0.84099   0.01267  Uiso   1.00
C254   C     0.94151   0.45128   0.04433   0.01267  Uiso   1.00
C255   C     0.99784   0.07496   0.47938   0.01267  Uiso   1.00
C256   C     0.55716   0.53386   0.58880   0.01267  Uiso   1.00
C257   C     0.45664   0.79746   0.09664   0.01267  Uiso   1.00
C258   C     0.21797   0.37041   0.68990   0.01267  Uiso   1.00
C259   C     0.46779   0.81971   0.14764   0.01267  Uiso   1.00
C260   C     0.48124   0.50312   0.97812   0.01267  Uiso   1.00
C261   C     0.15250   0.53377   0.89095   0.01267  Uiso   1.00
C262   C     0.78203   0.62959   0.31010   0.01267  Uiso   1.00
C263   C     0.29734   0.60077   0.13441   0.01267  Uiso   1.00
C264   C     0.46779   0.32015   0.64808   0.01267  Uiso   1.00
C265   C     0.94506   0.97670   0.53386   0.01267  Uiso   1.00
C266   C     0.00521   0.00507   0.56428   0.01267  Uiso   1.00
C267   C     0.70082   0.90336   0.36000   0.01267  Uiso   1.00
C268   C     0.60962   0.06719   0.15893   0.01267  Uiso   1.00
C269   C     0.56595   0.45294   0.34825   0.01267  Uiso   1.00
C270   C     0.46636   0.30343   0.60077   0.01267  Uiso   1.00
C271   C     0.64282   0.10905   0.26155   0.01267  Uiso   1.00
C272   C     0.17065   0.53231   0.81988   0.01267  Uiso   1.00
C273   C     0.18296   0.87704   0.46074   0.01267  Uiso   1.00
C274   C     0.53955   0.28331   0.07088   0.01267  Uiso   1.00
C275   C     0.39159   0.68672   0.20619   0.01267  Uiso   1.00
C276   C     0.21243   0.74376   0.28331   0.01267  Uiso   1.00
C277   C     0.37138   0.70723   0.47495   0.01267  Uiso   1.00
C278   C     0.67207   0.35192   0.81971   0.01267  Uiso   1.00
C279   C     0.62300   0.08585   0.20483   0.01267  Uiso   1.00
C280   C     0.86468   0.05995   0.53877   0.01267  Uiso   1.00
C281   C     0.74462   0.56881   0.27197   0.01267  Uiso   1.00
C282   C     0.46045   0.71669   0.92912   0.01267  Uiso   1.00
C283   C     0.49900   0.45890   0.04010   0.01267  Uiso   1.00
C284   C     0.44314   0.38283   0.62277   0.01267  Uiso   1.00
N1     N     0.37603   0.89053   0.48550   0.01267  Uiso   1.00
N2     N     0.40503   0.51450   0.89053   0.01267  Uiso   1.00
N3     N     0.62397   0.10947   0.51450   0.01267  Uiso   1.00
N4     N     0.59497   0.48550   0.10947   0.01267  Uiso   1.00
O1     O     0.39412   0.60415   0.86365   0.01267  Uiso   1.00
O2     O     0.51481   0.18585   0.76920   0.01267  Uiso   1.00
O3     O     0.60588   0.46953   0.21003   0.01267  Uiso   1.00
O4     O     0.32786   0.84911   0.55285   0.01267  Uiso   1.00
O5     O     0.41665   0.23080   0.74561   0.01267  Uiso   1.00
O6     O     0.25950   0.78997   0.39585   0.01267  Uiso   1.00
O7     O     0.41632   0.17038   0.68582   0.01267  Uiso   1.00
O8     O     0.67214   0.15089   0.44715   0.01267  Uiso   1.00
O9     O     0.58368   0.26950   0.75406   0.01267  Uiso   1.00
O10    O     0.29626   0.44715   0.77501   0.01267  Uiso   1.00
O11    O     0.58368   0.82962   0.31418   0.01267  Uiso   1.00
O12    O     0.75918   0.53970   0.29254   0.01267  Uiso   1.00
O13    O     0.51544   0.24594   0.82962   0.01267  Uiso   1.00
O14    O     0.25950   0.86365   0.46953   0.01267  Uiso   1.00
O15    O     0.41632   0.73050   0.24594   0.01267  Uiso   1.00
O16    O     0.41665   0.67104   0.18585   0.01267  Uiso   1.00
O17    O     0.24082   0.53336   0.78052   0.01267  Uiso   1.00
O18    O     0.24716   0.78052   0.53970   0.01267  Uiso   1.00
O19    O     0.48456   0.31418   0.73050   0.01267  Uiso   1.00
O20    O     0.17886   0.79510   0.45636   0.01267  Uiso   1.00
O21    O     0.82114   0.27750   0.61624   0.01267  Uiso   1.00
O22    O     0.75918   0.46664   0.21948   0.01267  Uiso   1.00
O23    O     0.48519   0.81415   0.23080   0.01267  Uiso   1.00
O24    O     0.66126   0.45636   0.27750   0.01267  Uiso   1.00
O25    O     0.75284   0.21948   0.46030   0.01267  Uiso   1.00
O26    O     0.70374   0.47875   0.15089   0.01267  Uiso   1.00
O27    O     0.51481   0.74561   0.32896   0.01267  Uiso   1.00
O28    O     0.67214   0.22499   0.52125   0.01267  Uiso   1.00
O29    O     0.75284   0.29254   0.53336   0.01267  Uiso   1.00
O30    O     0.33874   0.54364   0.72250   0.01267  Uiso   1.00
O31    O     0.33874   0.61624   0.79510   0.01267  Uiso   1.00
O32    O     0.51544   0.68582   0.26950   0.01267  Uiso   1.00
O33    O     0.82114   0.20490   0.54364   0.01267  Uiso   1.00
O34    O     0.32786   0.77501   0.47875   0.01267  Uiso   1.00
O35    O     0.66126   0.38376   0.20490   0.01267  Uiso   1.00
O36    O     0.70374   0.55285   0.22499   0.01267  Uiso   1.00
O37    O     0.24082   0.46030   0.70746   0.01267  Uiso   1.00
O38    O     0.48456   0.75406   0.17038   0.01267  Uiso   1.00
O39    O     0.58335   0.76920   0.25439   0.01267  Uiso   1.00
O40    O     0.17886   0.72250   0.38376   0.01267  Uiso   1.00
O41    O     0.24716   0.70746   0.46664   0.01267  Uiso   1.00
O42    O     0.48519   0.25439   0.67104   0.01267  Uiso   1.00
O43    O     0.58335   0.32896   0.81415   0.01267  Uiso   1.00
O44    O     0.29626   0.52125   0.84911   0.01267  Uiso   1.00
O45    O     0.39412   0.53047   0.78997   0.01267  Uiso   1.00
O46    O     0.74050   0.21003   0.60415   0.01267  Uiso   1.00
O47    O     0.60588   0.39585   0.13635   0.01267  Uiso   1.00
O48    O     0.74050   0.13635   0.53047   0.01267  Uiso   1.00
