data_image0
_cell_length_a       41.0363
_cell_length_b       12.1733
_cell_length_c       14.1609
_cell_angle_alpha    90
_cell_angle_beta     100.869
_cell_angle_gamma    90

_symmetry_space_group_name_H-M    "P 1"
_symmetry_int_tables_number       1

loop_
  _symmetry_equiv_pos_as_xyz
  'x, y, z'

loop_
  _atom_site_label
  _atom_site_occupancy
  _atom_site_fract_x
  _atom_site_fract_y
  _atom_site_fract_z
  _atom_site_thermal_displace_type
  _atom_site_B_iso_or_equiv
  _atom_site_type_symbol
  Se1      1.0000 0.51636  0.04716  0.13802  Biso   1.000  Se
  Cu1      1.0000 0.72545  0.32085  0.49266  Biso   1.000  Cu
  Cu2      1.0000 0.56196  0.99722  0.95426  Biso   1.000  Cu
  Cu3      1.0000 0.54928  0.22512  0.07950  Biso   1.000  Cu
  Cu4      1.0000 0.54105  0.21816  0.32317  Biso   1.000  Cu
  O1       1.0000 0.70530  0.78650  0.06820  Biso   1.000  O
  O2       1.0000 0.74845  0.90310  0.08660  Biso   1.000  O
  O3       1.0000 0.74591  0.12440  0.39000  Biso   1.000  O
  O4       1.0000 0.70349  0.24290  0.37710  Biso   1.000  O
  O5       1.0000 0.60557  0.03760  0.01980  Biso   1.000  O
  O6       1.0000 0.59628  0.13050  0.14820  Biso   1.000  O
  O7       1.0000 0.55790  0.27640  0.95910  Biso   1.000  O
  O8       1.0000 0.55838  0.12280  0.87080  Biso   1.000  O
  O9       1.0000 0.55780  0.63080  0.63070  Biso   1.000  O
  O10      1.0000 0.54517  0.63140  0.77910  Biso   1.000  O
  O11      1.0000 0.54566  0.27670  0.45040  Biso   1.000  O
  O12      1.0000 0.56214  0.12730  0.54040  Biso   1.000  O
  O13      1.0000 0.52311  0.08990  0.02950  Biso   1.000  O
  O14      1.0000 0.53071  0.17110  0.19050  Biso   1.000  O
  O15      1.0000 0.47578  0.06990  0.13820  Biso   1.000  O
  C1       1.0000 0.71980  0.87590  0.09660  Biso   1.000  C
  C2       1.0000 0.70080  0.95670  0.14550  Biso   1.000  C
  C3       1.0000 0.66740  0.97520  0.10860  Biso   1.000  C
  H1       1.0000 0.65640  0.93310  0.05760  Biso   1.000  H
  C4       1.0000 0.65060  0.05700  0.14840  Biso   1.000  C
  C5       1.0000 0.66650  0.11850  0.22670  Biso   1.000  C
  H2       1.0000 0.65510  0.17260  0.25350  Biso   1.000  H
  C6       1.0000 0.69980  0.09740  0.26420  Biso   1.000  C
  C7       1.0000 0.71710  0.01780  0.22340  Biso   1.000  C
  H3       1.0000 0.73940  0.00540  0.24800  Biso   1.000  H
  C8       1.0000 0.71770  0.16000  0.35050  Biso   1.000  C
  C9       1.0000 0.61420  0.07710  0.10280  Biso   1.000  C
  C10      1.0000 0.55760  0.22440  0.88100  Biso   1.000  C
  C11      1.0000 0.55590  0.29110  0.79120  Biso   1.000  C
  C12      1.0000 0.55640  0.23550  0.70580  Biso   1.000  C
  H4       1.0000 0.55860  0.15950  0.70650  Biso   1.000  H
  C13      1.0000 0.55380  0.29200  0.61950  Biso   1.000  C
  C14      1.0000 0.55150  0.40490  0.61860  Biso   1.000  C
  H5       1.0000 0.55000  0.44310  0.56110  Biso   1.000  H
  C15      1.0000 0.55130  0.46230  0.70470  Biso   1.000  C
  C16      1.0000 0.55260  0.40500  0.79040  Biso   1.000  C
  H6       1.0000 0.55130  0.44260  0.84680  Biso   1.000  H
  C17      1.0000 0.55130  0.58560  0.70600  Biso   1.000  C
  C18      1.0000 0.55360  0.22660  0.52880  Biso   1.000  C
  Se2      1.0000 0.01636  0.54716  0.13802  Biso   1.000  Se
  Cu5      1.0000 0.22545  0.82085  0.49266  Biso   1.000  Cu
  Cu6      1.0000 0.06196  0.49722  0.95426  Biso   1.000  Cu
  Cu7      1.0000 0.04928  0.72512  0.07950  Biso   1.000  Cu
  Cu8      1.0000 0.04105  0.71816  0.32317  Biso   1.000  Cu
  O16      1.0000 0.20530  0.28650  0.06820  Biso   1.000  O
  O17      1.0000 0.24845  0.40310  0.08660  Biso   1.000  O
  O18      1.0000 0.24591  0.62440  0.39000  Biso   1.000  O
  O19      1.0000 0.20349  0.74290  0.37710  Biso   1.000  O
  O20      1.0000 0.10557  0.53760  0.01980  Biso   1.000  O
  O21      1.0000 0.09628  0.63050  0.14820  Biso   1.000  O
  O22      1.0000 0.05790  0.77640  0.95910  Biso   1.000  O
  O23      1.0000 0.05838  0.62280  0.87080  Biso   1.000  O
  O24      1.0000 0.05780  0.13080  0.63070  Biso   1.000  O
  O25      1.0000 0.04517  0.13140  0.77910  Biso   1.000  O
  O26      1.0000 0.04566  0.77670  0.45040  Biso   1.000  O
  O27      1.0000 0.06214  0.62730  0.54040  Biso   1.000  O
  O28      1.0000 0.02311  0.58990  0.02950  Biso   1.000  O
  O29      1.0000 0.03071  0.67110  0.19050  Biso   1.000  O
  O30      1.0000 0.97578  0.56990  0.13820  Biso   1.000  O
  C19      1.0000 0.21980  0.37590  0.09660  Biso   1.000  C
  C20      1.0000 0.20080  0.45670  0.14550  Biso   1.000  C
  C21      1.0000 0.16740  0.47520  0.10860  Biso   1.000  C
  H7       1.0000 0.15640  0.43310  0.05760  Biso   1.000  H
  C22      1.0000 0.15060  0.55700  0.14840  Biso   1.000  C
  C23      1.0000 0.16650  0.61850  0.22670  Biso   1.000  C
  H8       1.0000 0.15510  0.67260  0.25350  Biso   1.000  H
  C24      1.0000 0.19980  0.59740  0.26420  Biso   1.000  C
  C25      1.0000 0.21710  0.51780  0.22340  Biso   1.000  C
  H9       1.0000 0.23940  0.50540  0.24800  Biso   1.000  H
  C26      1.0000 0.21770  0.66000  0.35050  Biso   1.000  C
  C27      1.0000 0.11420  0.57710  0.10280  Biso   1.000  C
  C28      1.0000 0.05760  0.72440  0.88100  Biso   1.000  C
  C29      1.0000 0.05590  0.79110  0.79120  Biso   1.000  C
  C30      1.0000 0.05640  0.73550  0.70580  Biso   1.000  C
  H10      1.0000 0.05860  0.65950  0.70650  Biso   1.000  H
  C31      1.0000 0.05380  0.79200  0.61950  Biso   1.000  C
  C32      1.0000 0.05150  0.90490  0.61860  Biso   1.000  C
  H11      1.0000 0.05000  0.94310  0.56110  Biso   1.000  H
  C33      1.0000 0.05130  0.96230  0.70470  Biso   1.000  C
  C34      1.0000 0.05260  0.90500  0.79040  Biso   1.000  C
  H12      1.0000 0.05130  0.94260  0.84680  Biso   1.000  H
  C35      1.0000 0.05130  0.08560  0.70600  Biso   1.000  C
  C36      1.0000 0.05360  0.72660  0.52880  Biso   1.000  C
  Se3      1.0000 0.48364  0.04716  0.36198  Biso   1.000  Se
  Cu9      1.0000 0.27455  0.32085  0.00734  Biso   1.000  Cu
  Cu10     1.0000 0.43804  0.99722  0.54574  Biso   1.000  Cu
  Cu11     1.0000 0.45072  0.22512  0.42050  Biso   1.000  Cu
  Cu12     1.0000 0.45895  0.21816  0.17683  Biso   1.000  Cu
  O31      1.0000 0.29470  0.78650  0.43180  Biso   1.000  O
  O32      1.0000 0.25155  0.90310  0.41340  Biso   1.000  O
  O33      1.0000 0.25409  0.12440  0.11000  Biso   1.000  O
  O34      1.0000 0.29651  0.24290  0.12290  Biso   1.000  O
  O35      1.0000 0.39443  0.03760  0.48020  Biso   1.000  O
  O36      1.0000 0.40372  0.13050  0.35180  Biso   1.000  O
  O37      1.0000 0.44210  0.27640  0.54090  Biso   1.000  O
  O38      1.0000 0.44162  0.12280  0.62920  Biso   1.000  O
  O39      1.0000 0.44220  0.63080  0.86930  Biso   1.000  O
  O40      1.0000 0.45483  0.63140  0.72090  Biso   1.000  O
  O41      1.0000 0.45434  0.27670  0.04960  Biso   1.000  O
  O42      1.0000 0.43786  0.12730  0.95960  Biso   1.000  O
  O43      1.0000 0.47689  0.08990  0.47050  Biso   1.000  O
  O44      1.0000 0.46929  0.17110  0.30950  Biso   1.000  O
  O45      1.0000 0.52422  0.06990  0.36180  Biso   1.000  O
  C37      1.0000 0.28020  0.87590  0.40340  Biso   1.000  C
  C38      1.0000 0.29920  0.95670  0.35450  Biso   1.000  C
  C39      1.0000 0.33260  0.97520  0.39140  Biso   1.000  C
  H13      1.0000 0.34360  0.93310  0.44240  Biso   1.000  H
  C40      1.0000 0.34940  0.05700  0.35160  Biso   1.000  C
  C41      1.0000 0.33350  0.11850  0.27330  Biso   1.000  C
  H14      1.0000 0.34490  0.17260  0.24650  Biso   1.000  H
  C42      1.0000 0.30020  0.09740  0.23580  Biso   1.000  C
  C43      1.0000 0.28290  0.01780  0.27660  Biso   1.000  C
  H15      1.0000 0.26060  0.00540  0.25200  Biso   1.000  H
  C44      1.0000 0.28230  0.16000  0.14950  Biso   1.000  C
  C45      1.0000 0.38580  0.07710  0.39720  Biso   1.000  C
  C46      1.0000 0.44240  0.22440  0.61900  Biso   1.000  C
  C47      1.0000 0.44410  0.29110  0.70880  Biso   1.000  C
  C48      1.0000 0.44360  0.23550  0.79420  Biso   1.000  C
  H16      1.0000 0.44140  0.15950  0.79350  Biso   1.000  H
  C49      1.0000 0.44620  0.29200  0.88050  Biso   1.000  C
  C50      1.0000 0.44850  0.40490  0.88140  Biso   1.000  C
  H17      1.0000 0.45000  0.44310  0.93890  Biso   1.000  H
  C51      1.0000 0.44870  0.46230  0.79530  Biso   1.000  C
  C52      1.0000 0.44740  0.40500  0.70960  Biso   1.000  C
  H18      1.0000 0.44870  0.44260  0.65320  Biso   1.000  H
  C53      1.0000 0.44870  0.58560  0.79400  Biso   1.000  C
  C54      1.0000 0.44640  0.22660  0.97120  Biso   1.000  C
  Se4      1.0000 0.98364  0.54716  0.36198  Biso   1.000  Se
  Cu13     1.0000 0.77455  0.82085  0.00734  Biso   1.000  Cu
  Cu14     1.0000 0.93804  0.49722  0.54574  Biso   1.000  Cu
  Cu15     1.0000 0.95072  0.72512  0.42050  Biso   1.000  Cu
  Cu16     1.0000 0.95895  0.71816  0.17683  Biso   1.000  Cu
  O46      1.0000 0.79470  0.28650  0.43180  Biso   1.000  O
  O47      1.0000 0.75155  0.40310  0.41340  Biso   1.000  O
  O48      1.0000 0.75409  0.62440  0.11000  Biso   1.000  O
  O49      1.0000 0.79651  0.74290  0.12290  Biso   1.000  O
  O50      1.0000 0.89443  0.53760  0.48020  Biso   1.000  O
  O51      1.0000 0.90372  0.63050  0.35180  Biso   1.000  O
  O52      1.0000 0.94210  0.77640  0.54090  Biso   1.000  O
  O53      1.0000 0.94162  0.62280  0.62920  Biso   1.000  O
  O54      1.0000 0.94220  0.13080  0.86930  Biso   1.000  O
  O55      1.0000 0.95483  0.13140  0.72090  Biso   1.000  O
  O56      1.0000 0.95434  0.77670  0.04960  Biso   1.000  O
  O57      1.0000 0.93786  0.62730  0.95960  Biso   1.000  O
  O58      1.0000 0.97689  0.58990  0.47050  Biso   1.000  O
  O59      1.0000 0.96929  0.67110  0.30950  Biso   1.000  O
  O60      1.0000 0.02422  0.56990  0.36180  Biso   1.000  O
  C55      1.0000 0.78020  0.37590  0.40340  Biso   1.000  C
  C56      1.0000 0.79920  0.45670  0.35450  Biso   1.000  C
  C57      1.0000 0.83260  0.47520  0.39140  Biso   1.000  C
  H19      1.0000 0.84360  0.43310  0.44240  Biso   1.000  H
  C58      1.0000 0.84940  0.55700  0.35160  Biso   1.000  C
  C59      1.0000 0.83350  0.61850  0.27330  Biso   1.000  C
  H20      1.0000 0.84490  0.67260  0.24650  Biso   1.000  H
  C60      1.0000 0.80020  0.59740  0.23580  Biso   1.000  C
  C61      1.0000 0.78290  0.51780  0.27660  Biso   1.000  C
  H21      1.0000 0.76060  0.50540  0.25200  Biso   1.000  H
  C62      1.0000 0.78230  0.66000  0.14950  Biso   1.000  C
  C63      1.0000 0.88580  0.57710  0.39720  Biso   1.000  C
  C64      1.0000 0.94240  0.72440  0.61900  Biso   1.000  C
  C65      1.0000 0.94410  0.79110  0.70880  Biso   1.000  C
  C66      1.0000 0.94360  0.73550  0.79420  Biso   1.000  C
  H22      1.0000 0.94140  0.65950  0.79350  Biso   1.000  H
  C67      1.0000 0.94620  0.79200  0.88050  Biso   1.000  C
  C68      1.0000 0.94850  0.90490  0.88140  Biso   1.000  C
  H23      1.0000 0.95000  0.94310  0.93890  Biso   1.000  H
  C69      1.0000 0.94870  0.96230  0.79530  Biso   1.000  C
  C70      1.0000 0.94740  0.90500  0.70960  Biso   1.000  C
  H24      1.0000 0.94870  0.94260  0.65320  Biso   1.000  H
  C71      1.0000 0.94870  0.08560  0.79400  Biso   1.000  C
  C72      1.0000 0.94640  0.72660  0.97120  Biso   1.000  C
  Se5      1.0000 0.48364  0.95284  0.86198  Biso   1.000  Se
  Cu17     1.0000 0.27455  0.67915  0.50734  Biso   1.000  Cu
  Cu18     1.0000 0.43804  0.00278  0.04574  Biso   1.000  Cu
  Cu19     1.0000 0.45072  0.77488  0.92050  Biso   1.000  Cu
  Cu20     1.0000 0.45895  0.78184  0.67683  Biso   1.000  Cu
  O61      1.0000 0.29470  0.21350  0.93180  Biso   1.000  O
  O62      1.0000 0.25155  0.09690  0.91340  Biso   1.000  O
  O63      1.0000 0.25409  0.87560  0.61000  Biso   1.000  O
  O64      1.0000 0.29651  0.75710  0.62290  Biso   1.000  O
  O65      1.0000 0.39443  0.96240  0.98020  Biso   1.000  O
  O66      1.0000 0.40372  0.86950  0.85180  Biso   1.000  O
  O67      1.0000 0.44210  0.72360  0.04090  Biso   1.000  O
  O68      1.0000 0.44162  0.87720  0.12920  Biso   1.000  O
  O69      1.0000 0.44220  0.36920  0.36930  Biso   1.000  O
  O70      1.0000 0.45483  0.36860  0.22090  Biso   1.000  O
  O71      1.0000 0.45434  0.72330  0.54960  Biso   1.000  O
  O72      1.0000 0.43786  0.87270  0.45960  Biso   1.000  O
  O73      1.0000 0.47689  0.91010  0.97050  Biso   1.000  O
  O74      1.0000 0.46929  0.82890  0.80950  Biso   1.000  O
  O75      1.0000 0.52422  0.93010  0.86180  Biso   1.000  O
  C73      1.0000 0.28020  0.12410  0.90340  Biso   1.000  C
  C74      1.0000 0.29920  0.04330  0.85450  Biso   1.000  C
  C75      1.0000 0.33260  0.02480  0.89140  Biso   1.000  C
  H25      1.0000 0.34360  0.06690  0.94240  Biso   1.000  H
  C76      1.0000 0.34940  0.94300  0.85160  Biso   1.000  C
  C77      1.0000 0.33350  0.88150  0.77330  Biso   1.000  C
  H26      1.0000 0.34490  0.82740  0.74650  Biso   1.000  H
  C78      1.0000 0.30020  0.90260  0.73580  Biso   1.000  C
  C79      1.0000 0.28290  0.98220  0.77660  Biso   1.000  C
  H27      1.0000 0.26060  0.99460  0.75200  Biso   1.000  H
  C80      1.0000 0.28230  0.84000  0.64950  Biso   1.000  C
  C81      1.0000 0.38580  0.92290  0.89720  Biso   1.000  C
  C82      1.0000 0.44240  0.77560  0.11900  Biso   1.000  C
  C83      1.0000 0.44410  0.70890  0.20880  Biso   1.000  C
  C84      1.0000 0.44360  0.76450  0.29420  Biso   1.000  C
  H28      1.0000 0.44140  0.84050  0.29350  Biso   1.000  H
  C85      1.0000 0.44620  0.70800  0.38050  Biso   1.000  C
  C86      1.0000 0.44850  0.59510  0.38140  Biso   1.000  C
  H29      1.0000 0.45000  0.55690  0.43890  Biso   1.000  H
  C87      1.0000 0.44870  0.53770  0.29530  Biso   1.000  C
  C88      1.0000 0.44740  0.59500  0.20960  Biso   1.000  C
  H30      1.0000 0.44870  0.55740  0.15320  Biso   1.000  H
  C89      1.0000 0.44870  0.41440  0.29400  Biso   1.000  C
  C90      1.0000 0.44640  0.77340  0.47120  Biso   1.000  C
  Se6      1.0000 0.98364  0.45284  0.86198  Biso   1.000  Se
  Cu21     1.0000 0.77455  0.17915  0.50734  Biso   1.000  Cu
  Cu22     1.0000 0.93804  0.50278  0.04574  Biso   1.000  Cu
  Cu23     1.0000 0.95072  0.27488  0.92050  Biso   1.000  Cu
  Cu24     1.0000 0.95895  0.28184  0.67683  Biso   1.000  Cu
  O76      1.0000 0.79470  0.71350  0.93180  Biso   1.000  O
  O77      1.0000 0.75155  0.59690  0.91340  Biso   1.000  O
  O78      1.0000 0.75409  0.37560  0.61000  Biso   1.000  O
  O79      1.0000 0.79651  0.25710  0.62290  Biso   1.000  O
  O80      1.0000 0.89443  0.46240  0.98020  Biso   1.000  O
  O81      1.0000 0.90372  0.36950  0.85180  Biso   1.000  O
  O82      1.0000 0.94210  0.22360  0.04090  Biso   1.000  O
  O83      1.0000 0.94162  0.37720  0.12920  Biso   1.000  O
  O84      1.0000 0.94220  0.86920  0.36930  Biso   1.000  O
  O85      1.0000 0.95483  0.86860  0.22090  Biso   1.000  O
  O86      1.0000 0.95434  0.22330  0.54960  Biso   1.000  O
  O87      1.0000 0.93786  0.37270  0.45960  Biso   1.000  O
  O88      1.0000 0.97689  0.41010  0.97050  Biso   1.000  O
  O89      1.0000 0.96929  0.32890  0.80950  Biso   1.000  O
  O90      1.0000 0.02422  0.43010  0.86180  Biso   1.000  O
  C91      1.0000 0.78020  0.62410  0.90340  Biso   1.000  C
  C92      1.0000 0.79920  0.54330  0.85450  Biso   1.000  C
  C93      1.0000 0.83260  0.52480  0.89140  Biso   1.000  C
  H31      1.0000 0.84360  0.56690  0.94240  Biso   1.000  H
  C94      1.0000 0.84940  0.44300  0.85160  Biso   1.000  C
  C95      1.0000 0.83350  0.38150  0.77330  Biso   1.000  C
  H32      1.0000 0.84490  0.32740  0.74650  Biso   1.000  H
  C96      1.0000 0.80020  0.40260  0.73580  Biso   1.000  C
  C97      1.0000 0.78290  0.48220  0.77660  Biso   1.000  C
  H33      1.0000 0.76060  0.49460  0.75200  Biso   1.000  H
  C98      1.0000 0.78230  0.34000  0.64950  Biso   1.000  C
  C99      1.0000 0.88580  0.42290  0.89720  Biso   1.000  C
  C100     1.0000 0.94240  0.27560  0.11900  Biso   1.000  C
  C101     1.0000 0.94410  0.20890  0.20880  Biso   1.000  C
  C102     1.0000 0.94360  0.26450  0.29420  Biso   1.000  C
  H34      1.0000 0.94140  0.34050  0.29350  Biso   1.000  H
  C103     1.0000 0.94620  0.20800  0.38050  Biso   1.000  C
  C104     1.0000 0.94850  0.09510  0.38140  Biso   1.000  C
  H35      1.0000 0.95000  0.05690  0.43890  Biso   1.000  H
  C105     1.0000 0.94870  0.03770  0.29530  Biso   1.000  C
  C106     1.0000 0.94740  0.09500  0.20960  Biso   1.000  C
  H36      1.0000 0.94870  0.05740  0.15320  Biso   1.000  H
  C107     1.0000 0.94870  0.91440  0.29400  Biso   1.000  C
  C108     1.0000 0.94640  0.27340  0.47120  Biso   1.000  C
  Se7      1.0000 0.51636  0.95284  0.63802  Biso   1.000  Se
  Cu25     1.0000 0.72545  0.67915  0.99266  Biso   1.000  Cu
  Cu26     1.0000 0.56196  0.00278  0.45426  Biso   1.000  Cu
  Cu27     1.0000 0.54928  0.77488  0.57950  Biso   1.000  Cu
  Cu28     1.0000 0.54105  0.78184  0.82317  Biso   1.000  Cu
  O91      1.0000 0.70530  0.21350  0.56820  Biso   1.000  O
  O92      1.0000 0.74845  0.09690  0.58660  Biso   1.000  O
  O93      1.0000 0.74591  0.87560  0.89000  Biso   1.000  O
  O94      1.0000 0.70349  0.75710  0.87710  Biso   1.000  O
  O95      1.0000 0.60557  0.96240  0.51980  Biso   1.000  O
  O96      1.0000 0.59628  0.86950  0.64820  Biso   1.000  O
  O97      1.0000 0.55790  0.72360  0.45910  Biso   1.000  O
  O98      1.0000 0.55838  0.87720  0.37080  Biso   1.000  O
  O99      1.0000 0.55780  0.36920  0.13070  Biso   1.000  O
  O100     1.0000 0.54517  0.36860  0.27910  Biso   1.000  O
  O101     1.0000 0.54566  0.72330  0.95040  Biso   1.000  O
  O102     1.0000 0.56214  0.87270  0.04040  Biso   1.000  O
  O103     1.0000 0.52311  0.91010  0.52950  Biso   1.000  O
  O104     1.0000 0.53071  0.82890  0.69050  Biso   1.000  O
  O105     1.0000 0.47578  0.93010  0.63820  Biso   1.000  O
  C109     1.0000 0.71980  0.12410  0.59660  Biso   1.000  C
  C110     1.0000 0.70080  0.04330  0.64550  Biso   1.000  C
  C111     1.0000 0.66740  0.02480  0.60860  Biso   1.000  C
  H37      1.0000 0.65640  0.06690  0.55760  Biso   1.000  H
  C112     1.0000 0.65060  0.94300  0.64840  Biso   1.000  C
  C113     1.0000 0.66650  0.88150  0.72670  Biso   1.000  C
  H38      1.0000 0.65510  0.82740  0.75350  Biso   1.000  H
  C114     1.0000 0.69980  0.90260  0.76420  Biso   1.000  C
  C115     1.0000 0.71710  0.98220  0.72340  Biso   1.000  C
  H39      1.0000 0.73940  0.99460  0.74800  Biso   1.000  H
  C116     1.0000 0.71770  0.84000  0.85050  Biso   1.000  C
  C117     1.0000 0.61420  0.92290  0.60280  Biso   1.000  C
  C118     1.0000 0.55760  0.77560  0.38100  Biso   1.000  C
  C119     1.0000 0.55590  0.70890  0.29120  Biso   1.000  C
  C120     1.0000 0.55640  0.76450  0.20580  Biso   1.000  C
  H40      1.0000 0.55860  0.84050  0.20650  Biso   1.000  H
  C121     1.0000 0.55380  0.70800  0.11950  Biso   1.000  C
  C122     1.0000 0.55150  0.59510  0.11860  Biso   1.000  C
  H41      1.0000 0.55000  0.55690  0.06110  Biso   1.000  H
  C123     1.0000 0.55130  0.53770  0.20470  Biso   1.000  C
  C124     1.0000 0.55260  0.59500  0.29040  Biso   1.000  C
  H42      1.0000 0.55130  0.55740  0.34680  Biso   1.000  H
  C125     1.0000 0.55130  0.41440  0.20600  Biso   1.000  C
  C126     1.0000 0.55360  0.77340  0.02880  Biso   1.000  C
  Se8      1.0000 0.01636  0.45284  0.63802  Biso   1.000  Se
  Cu29     1.0000 0.22545  0.17915  0.99266  Biso   1.000  Cu
  Cu30     1.0000 0.06196  0.50278  0.45426  Biso   1.000  Cu
  Cu31     1.0000 0.04928  0.27488  0.57950  Biso   1.000  Cu
  Cu32     1.0000 0.04105  0.28184  0.82317  Biso   1.000  Cu
  O106     1.0000 0.20530  0.71350  0.56820  Biso   1.000  O
  O107     1.0000 0.24845  0.59690  0.58660  Biso   1.000  O
  O108     1.0000 0.24591  0.37560  0.89000  Biso   1.000  O
  O109     1.0000 0.20349  0.25710  0.87710  Biso   1.000  O
  O110     1.0000 0.10557  0.46240  0.51980  Biso   1.000  O
  O111     1.0000 0.09628  0.36950  0.64820  Biso   1.000  O
  O112     1.0000 0.05790  0.22360  0.45910  Biso   1.000  O
  O113     1.0000 0.05838  0.37720  0.37080  Biso   1.000  O
  O114     1.0000 0.05780  0.86920  0.13070  Biso   1.000  O
  O115     1.0000 0.04517  0.86860  0.27910  Biso   1.000  O
  O116     1.0000 0.04566  0.22330  0.95040  Biso   1.000  O
  O117     1.0000 0.06214  0.37270  0.04040  Biso   1.000  O
  O118     1.0000 0.02311  0.41010  0.52950  Biso   1.000  O
  O119     1.0000 0.03071  0.32890  0.69050  Biso   1.000  O
  O120     1.0000 0.97578  0.43010  0.63820  Biso   1.000  O
  C127     1.0000 0.21980  0.62410  0.59660  Biso   1.000  C
  C128     1.0000 0.20080  0.54330  0.64550  Biso   1.000  C
  C129     1.0000 0.16740  0.52480  0.60860  Biso   1.000  C
  H43      1.0000 0.15640  0.56690  0.55760  Biso   1.000  H
  C130     1.0000 0.15060  0.44300  0.64840  Biso   1.000  C
  C131     1.0000 0.16650  0.38150  0.72670  Biso   1.000  C
  H44      1.0000 0.15510  0.32740  0.75350  Biso   1.000  H
  C132     1.0000 0.19980  0.40260  0.76420  Biso   1.000  C
  C133     1.0000 0.21710  0.48220  0.72340  Biso   1.000  C
  H45      1.0000 0.23940  0.49460  0.74800  Biso   1.000  H
  C134     1.0000 0.21770  0.34000  0.85050  Biso   1.000  C
  C135     1.0000 0.11420  0.42290  0.60280  Biso   1.000  C
  C136     1.0000 0.05760  0.27560  0.38100  Biso   1.000  C
  C137     1.0000 0.05590  0.20890  0.29120  Biso   1.000  C
  C138     1.0000 0.05640  0.26450  0.20580  Biso   1.000  C
  H46      1.0000 0.05860  0.34050  0.20650  Biso   1.000  H
  C139     1.0000 0.05380  0.20800  0.11950  Biso   1.000  C
  C140     1.0000 0.05150  0.09510  0.11860  Biso   1.000  C
  H47      1.0000 0.05000  0.05690  0.06110  Biso   1.000  H
  C141     1.0000 0.05130  0.03770  0.20470  Biso   1.000  C
  C142     1.0000 0.05260  0.09500  0.29040  Biso   1.000  C
  H48      1.0000 0.05130  0.05740  0.34680  Biso   1.000  H
  C143     1.0000 0.05130  0.91440  0.20600  Biso   1.000  C
  C144     1.0000 0.05360  0.27340  0.02880  Biso   1.000  C
