data_image0
_cell_length_a       18.9381
_cell_length_b       18.9381
_cell_length_c       21.2008
_cell_angle_alpha    90
_cell_angle_beta     90
_cell_angle_gamma    90

_symmetry_space_group_name_H-M    "P 1"
_symmetry_int_tables_number       1

loop_
  _symmetry_equiv_pos_as_xyz
  'x, y, z'

loop_
  _atom_site_label
  _atom_site_occupancy
  _atom_site_fract_x
  _atom_site_fract_y
  _atom_site_fract_z
  _atom_site_thermal_displace_type
  _atom_site_B_iso_or_equiv
  _atom_site_type_symbol
  O1       1.0000 0.28506  0.56137  0.07599  Biso   1.000  O
  O2       1.0000 0.26460  0.62156  0.16366  Biso   1.000  O
  C1       1.0000 0.27910  0.61880  0.10650  Biso   1.000  C
  C2       1.0000 0.29230  0.68595  0.07039  Biso   1.000  C
  O3       1.0000 0.26662  0.59792  0.94017  Biso   1.000  O
  C3       1.0000 0.31190  0.68597  0.00658  Biso   1.000  C
  C4       1.0000 0.32260  0.62129  0.96587  Biso   1.000  C
  O4       1.0000 0.38171  0.59970  0.95516  Biso   1.000  O
  O5       1.0000 0.78506  0.06137  0.57599  Biso   1.000  O
  O6       1.0000 0.76460  0.12156  0.66366  Biso   1.000  O
  C5       1.0000 0.77910  0.11880  0.60650  Biso   1.000  C
  C6       1.0000 0.79230  0.18595  0.57039  Biso   1.000  C
  O7       1.0000 0.76662  0.09792  0.44017  Biso   1.000  O
  C7       1.0000 0.81190  0.18597  0.50658  Biso   1.000  C
  C8       1.0000 0.82260  0.12129  0.46587  Biso   1.000  C
  O8       1.0000 0.88171  0.09970  0.45516  Biso   1.000  O
  O9       1.0000 0.21494  0.43863  0.57599  Biso   1.000  O
  O10      1.0000 0.23540  0.37844  0.66366  Biso   1.000  O
  C9       1.0000 0.22090  0.38120  0.60650  Biso   1.000  C
  C10      1.0000 0.20770  0.31405  0.57039  Biso   1.000  C
  O11      1.0000 0.23338  0.40208  0.44017  Biso   1.000  O
  C11      1.0000 0.18810  0.31403  0.50658  Biso   1.000  C
  C12      1.0000 0.17740  0.37871  0.46587  Biso   1.000  C
  O12      1.0000 0.11829  0.40030  0.45516  Biso   1.000  O
  O13      1.0000 0.71494  0.93863  0.07599  Biso   1.000  O
  O14      1.0000 0.73540  0.87844  0.16366  Biso   1.000  O
  C13      1.0000 0.72090  0.88120  0.10650  Biso   1.000  C
  C14      1.0000 0.70770  0.81405  0.07039  Biso   1.000  C
  O15      1.0000 0.73338  0.90208  0.94017  Biso   1.000  O
  C15      1.0000 0.68810  0.81403  0.00658  Biso   1.000  C
  C16      1.0000 0.67740  0.87871  0.96587  Biso   1.000  C
  O16      1.0000 0.61829  0.90030  0.95516  Biso   1.000  O
  O17      1.0000 0.68863  0.03506  0.32599  Biso   1.000  O
  O18      1.0000 0.62844  0.01460  0.41366  Biso   1.000  O
  C17      1.0000 0.63120  0.02910  0.35650  Biso   1.000  C
  C18      1.0000 0.56405  0.04230  0.32039  Biso   1.000  C
  O19      1.0000 0.65208  0.01662  0.19017  Biso   1.000  O
  C19      1.0000 0.56403  0.06190  0.25658  Biso   1.000  C
  C20      1.0000 0.62871  0.07260  0.21587  Biso   1.000  C
  O20      1.0000 0.65030  0.13171  0.20516  Biso   1.000  O
  O21      1.0000 0.18863  0.53506  0.82599  Biso   1.000  O
  O22      1.0000 0.12844  0.51460  0.91366  Biso   1.000  O
  C21      1.0000 0.13120  0.52910  0.85650  Biso   1.000  C
  C22      1.0000 0.06405  0.54230  0.82039  Biso   1.000  C
  O23      1.0000 0.15208  0.51662  0.69017  Biso   1.000  O
  C23      1.0000 0.06403  0.56190  0.75658  Biso   1.000  C
  C24      1.0000 0.12871  0.57260  0.71587  Biso   1.000  C
  O24      1.0000 0.15030  0.63171  0.70516  Biso   1.000  O
  O25      1.0000 0.81137  0.96494  0.82599  Biso   1.000  O
  O26      1.0000 0.87156  0.98540  0.91366  Biso   1.000  O
  C25      1.0000 0.86880  0.97090  0.85650  Biso   1.000  C
  C26      1.0000 0.93595  0.95770  0.82039  Biso   1.000  C
  O27      1.0000 0.84792  0.98338  0.69017  Biso   1.000  O
  C27      1.0000 0.93597  0.93810  0.75658  Biso   1.000  C
  C28      1.0000 0.87129  0.92740  0.71587  Biso   1.000  C
  O28      1.0000 0.84970  0.86829  0.70516  Biso   1.000  O
  O29      1.0000 0.31137  0.46494  0.32599  Biso   1.000  O
  O30      1.0000 0.37156  0.48540  0.41366  Biso   1.000  O
  C29      1.0000 0.36880  0.47090  0.35650  Biso   1.000  C
  C30      1.0000 0.43595  0.45770  0.32039  Biso   1.000  C
  O31      1.0000 0.34792  0.48338  0.19017  Biso   1.000  O
  C31      1.0000 0.43597  0.43810  0.25658  Biso   1.000  C
  C32      1.0000 0.37129  0.42740  0.21587  Biso   1.000  C
  O32      1.0000 0.34970  0.36829  0.20516  Biso   1.000  O
  O33      1.0000 0.21494  0.56137  0.42401  Biso   1.000  O
  O34      1.0000 0.23540  0.62156  0.33634  Biso   1.000  O
  C33      1.0000 0.22090  0.61880  0.39350  Biso   1.000  C
  C34      1.0000 0.20770  0.68595  0.42961  Biso   1.000  C
  O35      1.0000 0.23338  0.59792  0.55983  Biso   1.000  O
  C35      1.0000 0.18810  0.68597  0.49342  Biso   1.000  C
  C36      1.0000 0.17740  0.62129  0.53413  Biso   1.000  C
  O36      1.0000 0.11829  0.59970  0.54484  Biso   1.000  O
  O37      1.0000 0.71494  0.06137  0.92401  Biso   1.000  O
  O38      1.0000 0.73540  0.12156  0.83634  Biso   1.000  O
  C37      1.0000 0.72090  0.11880  0.89350  Biso   1.000  C
  C38      1.0000 0.70770  0.18595  0.92961  Biso   1.000  C
  O39      1.0000 0.73338  0.09792  0.05983  Biso   1.000  O
  C39      1.0000 0.68810  0.18597  0.99342  Biso   1.000  C
  C40      1.0000 0.67740  0.12129  0.03413  Biso   1.000  C
  O40      1.0000 0.61829  0.09970  0.04484  Biso   1.000  O
  O41      1.0000 0.28506  0.43863  0.92401  Biso   1.000  O
  O42      1.0000 0.26460  0.37844  0.83634  Biso   1.000  O
  C41      1.0000 0.27910  0.38120  0.89350  Biso   1.000  C
  C42      1.0000 0.29230  0.31405  0.92961  Biso   1.000  C
  O43      1.0000 0.26662  0.40208  0.05983  Biso   1.000  O
  C43      1.0000 0.31190  0.31403  0.99342  Biso   1.000  C
  C44      1.0000 0.32260  0.37871  0.03413  Biso   1.000  C
  O44      1.0000 0.38171  0.40030  0.04484  Biso   1.000  O
  O45      1.0000 0.78506  0.93863  0.42401  Biso   1.000  O
  O46      1.0000 0.76460  0.87844  0.33634  Biso   1.000  O
  C45      1.0000 0.77910  0.88120  0.39350  Biso   1.000  C
  C46      1.0000 0.79230  0.81405  0.42961  Biso   1.000  C
  O47      1.0000 0.76662  0.90208  0.55983  Biso   1.000  O
  C47      1.0000 0.81190  0.81403  0.49342  Biso   1.000  C
  C48      1.0000 0.82260  0.87871  0.53413  Biso   1.000  C
  O48      1.0000 0.88171  0.90030  0.54484  Biso   1.000  O
  O49      1.0000 0.81137  0.03506  0.17401  Biso   1.000  O
  O50      1.0000 0.87156  0.01460  0.08634  Biso   1.000  O
  C49      1.0000 0.86880  0.02910  0.14350  Biso   1.000  C
  C50      1.0000 0.93595  0.04230  0.17961  Biso   1.000  C
  O51      1.0000 0.84792  0.01662  0.30983  Biso   1.000  O
  C51      1.0000 0.93597  0.06190  0.24342  Biso   1.000  C
  C52      1.0000 0.87129  0.07260  0.28413  Biso   1.000  C
  O52      1.0000 0.84970  0.13171  0.29484  Biso   1.000  O
  O53      1.0000 0.31137  0.53506  0.67401  Biso   1.000  O
  O54      1.0000 0.37156  0.51460  0.58634  Biso   1.000  O
  C53      1.0000 0.36880  0.52910  0.64350  Biso   1.000  C
  C54      1.0000 0.43595  0.54230  0.67961  Biso   1.000  C
  O55      1.0000 0.34792  0.51662  0.80983  Biso   1.000  O
  C55      1.0000 0.43597  0.56190  0.74342  Biso   1.000  C
  C56      1.0000 0.37129  0.57260  0.78413  Biso   1.000  C
  O56      1.0000 0.34970  0.63171  0.79484  Biso   1.000  O
  O57      1.0000 0.68863  0.96494  0.67401  Biso   1.000  O
  O58      1.0000 0.62844  0.98540  0.58634  Biso   1.000  O
  C57      1.0000 0.63120  0.97090  0.64350  Biso   1.000  C
  C58      1.0000 0.56405  0.95770  0.67961  Biso   1.000  C
  O59      1.0000 0.65208  0.98338  0.80983  Biso   1.000  O
  C59      1.0000 0.56403  0.93810  0.74342  Biso   1.000  C
  C60      1.0000 0.62871  0.92740  0.78413  Biso   1.000  C
  O60      1.0000 0.65030  0.86829  0.79484  Biso   1.000  O
  O61      1.0000 0.18863  0.46494  0.17401  Biso   1.000  O
  O62      1.0000 0.12844  0.48540  0.08634  Biso   1.000  O
  C61      1.0000 0.13120  0.47090  0.14350  Biso   1.000  C
  C62      1.0000 0.06405  0.45770  0.17961  Biso   1.000  C
  O63      1.0000 0.15208  0.48338  0.30983  Biso   1.000  O
  C63      1.0000 0.06403  0.43810  0.24342  Biso   1.000  C
  C64      1.0000 0.12871  0.42740  0.28413  Biso   1.000  C
  O64      1.0000 0.15030  0.36829  0.29484  Biso   1.000  O
  O65      1.0000 0.71494  0.43863  0.92401  Biso   1.000  O
  O66      1.0000 0.73540  0.37844  0.83634  Biso   1.000  O
  C65      1.0000 0.72090  0.38120  0.89350  Biso   1.000  C
  C66      1.0000 0.70770  0.31405  0.92961  Biso   1.000  C
  O67      1.0000 0.73338  0.40208  0.05983  Biso   1.000  O
  C67      1.0000 0.68810  0.31403  0.99342  Biso   1.000  C
  C68      1.0000 0.67740  0.37871  0.03413  Biso   1.000  C
  O68      1.0000 0.61829  0.40030  0.04484  Biso   1.000  O
  O69      1.0000 0.21494  0.93863  0.42401  Biso   1.000  O
  O70      1.0000 0.23540  0.87844  0.33634  Biso   1.000  O
  C69      1.0000 0.22090  0.88120  0.39350  Biso   1.000  C
  C70      1.0000 0.20770  0.81405  0.42961  Biso   1.000  C
  O71      1.0000 0.23338  0.90208  0.55983  Biso   1.000  O
  C71      1.0000 0.18810  0.81403  0.49342  Biso   1.000  C
  C72      1.0000 0.17740  0.87871  0.53413  Biso   1.000  C
  O72      1.0000 0.11829  0.90030  0.54484  Biso   1.000  O
  O73      1.0000 0.78506  0.56137  0.42401  Biso   1.000  O
  O74      1.0000 0.76460  0.62156  0.33634  Biso   1.000  O
  C73      1.0000 0.77910  0.61880  0.39350  Biso   1.000  C
  C74      1.0000 0.79230  0.68595  0.42961  Biso   1.000  C
  O75      1.0000 0.76662  0.59792  0.55983  Biso   1.000  O
  C75      1.0000 0.81190  0.68597  0.49342  Biso   1.000  C
  C76      1.0000 0.82260  0.62129  0.53413  Biso   1.000  C
  O76      1.0000 0.88171  0.59970  0.54484  Biso   1.000  O
  O77      1.0000 0.28506  0.06137  0.92401  Biso   1.000  O
  O78      1.0000 0.26460  0.12156  0.83634  Biso   1.000  O
  C77      1.0000 0.27910  0.11880  0.89350  Biso   1.000  C
  C78      1.0000 0.29230  0.18595  0.92961  Biso   1.000  C
  O79      1.0000 0.26662  0.09792  0.05983  Biso   1.000  O
  C79      1.0000 0.31190  0.18597  0.99342  Biso   1.000  C
  C80      1.0000 0.32260  0.12129  0.03413  Biso   1.000  C
  O80      1.0000 0.38171  0.09970  0.04484  Biso   1.000  O
  O81      1.0000 0.31137  0.96494  0.67401  Biso   1.000  O
  O82      1.0000 0.37156  0.98540  0.58634  Biso   1.000  O
  C81      1.0000 0.36880  0.97090  0.64350  Biso   1.000  C
  C82      1.0000 0.43595  0.95770  0.67961  Biso   1.000  C
  O83      1.0000 0.34792  0.98338  0.80983  Biso   1.000  O
  C83      1.0000 0.43597  0.93810  0.74342  Biso   1.000  C
  C84      1.0000 0.37129  0.92740  0.78413  Biso   1.000  C
  O84      1.0000 0.34970  0.86829  0.79484  Biso   1.000  O
  O85      1.0000 0.81137  0.46494  0.17401  Biso   1.000  O
  O86      1.0000 0.87156  0.48540  0.08634  Biso   1.000  O
  C85      1.0000 0.86880  0.47090  0.14350  Biso   1.000  C
  C86      1.0000 0.93595  0.45770  0.17961  Biso   1.000  C
  O87      1.0000 0.84792  0.48338  0.30983  Biso   1.000  O
  C87      1.0000 0.93597  0.43810  0.24342  Biso   1.000  C
  C88      1.0000 0.87129  0.42740  0.28413  Biso   1.000  C
  O88      1.0000 0.84970  0.36829  0.29484  Biso   1.000  O
  O89      1.0000 0.18863  0.03506  0.17401  Biso   1.000  O
  O90      1.0000 0.12844  0.01460  0.08634  Biso   1.000  O
  C89      1.0000 0.13120  0.02910  0.14350  Biso   1.000  C
  C90      1.0000 0.06405  0.04230  0.17961  Biso   1.000  C
  O91      1.0000 0.15208  0.01662  0.30983  Biso   1.000  O
  C91      1.0000 0.06403  0.06190  0.24342  Biso   1.000  C
  C92      1.0000 0.12871  0.07260  0.28413  Biso   1.000  C
  O92      1.0000 0.15030  0.13171  0.29484  Biso   1.000  O
  O93      1.0000 0.68863  0.53506  0.67401  Biso   1.000  O
  O94      1.0000 0.62844  0.51460  0.58634  Biso   1.000  O
  C93      1.0000 0.63120  0.52910  0.64350  Biso   1.000  C
  C94      1.0000 0.56405  0.54230  0.67961  Biso   1.000  C
  O95      1.0000 0.65208  0.51662  0.80983  Biso   1.000  O
  C95      1.0000 0.56403  0.56190  0.74342  Biso   1.000  C
  C96      1.0000 0.62871  0.57260  0.78413  Biso   1.000  C
  O96      1.0000 0.65030  0.63171  0.79484  Biso   1.000  O
  O97      1.0000 0.78506  0.43863  0.57599  Biso   1.000  O
  O98      1.0000 0.76460  0.37844  0.66366  Biso   1.000  O
  C97      1.0000 0.77910  0.38120  0.60650  Biso   1.000  C
  C98      1.0000 0.79230  0.31405  0.57039  Biso   1.000  C
  O99      1.0000 0.76662  0.40208  0.44017  Biso   1.000  O
  C99      1.0000 0.81190  0.31403  0.50658  Biso   1.000  C
  C100     1.0000 0.82260  0.37871  0.46587  Biso   1.000  C
  O100     1.0000 0.88171  0.40030  0.45516  Biso   1.000  O
  O101     1.0000 0.28506  0.93863  0.07599  Biso   1.000  O
  O102     1.0000 0.26460  0.87844  0.16366  Biso   1.000  O
  C101     1.0000 0.27910  0.88120  0.10650  Biso   1.000  C
  C102     1.0000 0.29230  0.81405  0.07039  Biso   1.000  C
  O103     1.0000 0.26662  0.90208  0.94017  Biso   1.000  O
  C103     1.0000 0.31190  0.81403  0.00658  Biso   1.000  C
  C104     1.0000 0.32260  0.87871  0.96587  Biso   1.000  C
  O104     1.0000 0.38171  0.90030  0.95516  Biso   1.000  O
  O105     1.0000 0.71494  0.56137  0.07599  Biso   1.000  O
  O106     1.0000 0.73540  0.62156  0.16366  Biso   1.000  O
  C105     1.0000 0.72090  0.61880  0.10650  Biso   1.000  C
  C106     1.0000 0.70770  0.68595  0.07039  Biso   1.000  C
  O107     1.0000 0.73338  0.59792  0.94017  Biso   1.000  O
  C107     1.0000 0.68810  0.68597  0.00658  Biso   1.000  C
  C108     1.0000 0.67740  0.62129  0.96587  Biso   1.000  C
  O108     1.0000 0.61829  0.59970  0.95516  Biso   1.000  O
  O109     1.0000 0.21494  0.06137  0.57599  Biso   1.000  O
  O110     1.0000 0.23540  0.12156  0.66366  Biso   1.000  O
  C109     1.0000 0.22090  0.11880  0.60650  Biso   1.000  C
  C110     1.0000 0.20770  0.18595  0.57039  Biso   1.000  C
  O111     1.0000 0.23338  0.09792  0.44017  Biso   1.000  O
  C111     1.0000 0.18810  0.18597  0.50658  Biso   1.000  C
  C112     1.0000 0.17740  0.12129  0.46587  Biso   1.000  C
  O112     1.0000 0.11829  0.09970  0.45516  Biso   1.000  O
  O113     1.0000 0.18863  0.96494  0.82599  Biso   1.000  O
  O114     1.0000 0.12844  0.98540  0.91366  Biso   1.000  O
  C113     1.0000 0.13120  0.97090  0.85650  Biso   1.000  C
  C114     1.0000 0.06405  0.95770  0.82039  Biso   1.000  C
  O115     1.0000 0.15208  0.98338  0.69017  Biso   1.000  O
  C115     1.0000 0.06403  0.93810  0.75658  Biso   1.000  C
  C116     1.0000 0.12871  0.92740  0.71587  Biso   1.000  C
  O116     1.0000 0.15030  0.86829  0.70516  Biso   1.000  O
  O117     1.0000 0.68863  0.46494  0.32599  Biso   1.000  O
  O118     1.0000 0.62844  0.48540  0.41366  Biso   1.000  O
  C117     1.0000 0.63120  0.47090  0.35650  Biso   1.000  C
  C118     1.0000 0.56405  0.45770  0.32039  Biso   1.000  C
  O119     1.0000 0.65208  0.48338  0.19017  Biso   1.000  O
  C119     1.0000 0.56403  0.43810  0.25658  Biso   1.000  C
  C120     1.0000 0.62871  0.42740  0.21587  Biso   1.000  C
  O120     1.0000 0.65030  0.36829  0.20516  Biso   1.000  O
  O121     1.0000 0.31137  0.03506  0.32599  Biso   1.000  O
  O122     1.0000 0.37156  0.01460  0.41366  Biso   1.000  O
  C121     1.0000 0.36880  0.02910  0.35650  Biso   1.000  C
  C122     1.0000 0.43595  0.04230  0.32039  Biso   1.000  C
  O123     1.0000 0.34792  0.01662  0.19017  Biso   1.000  O
  C123     1.0000 0.43597  0.06190  0.25658  Biso   1.000  C
  C124     1.0000 0.37129  0.07260  0.21587  Biso   1.000  C
  O124     1.0000 0.34970  0.13171  0.20516  Biso   1.000  O
  O125     1.0000 0.81137  0.53506  0.82599  Biso   1.000  O
  O126     1.0000 0.87156  0.51460  0.91366  Biso   1.000  O
  C125     1.0000 0.86880  0.52910  0.85650  Biso   1.000  C
  C126     1.0000 0.93595  0.54230  0.82039  Biso   1.000  C
  O127     1.0000 0.84792  0.51662  0.69017  Biso   1.000  O
  C127     1.0000 0.93597  0.56190  0.75658  Biso   1.000  C
  C128     1.0000 0.87129  0.57260  0.71587  Biso   1.000  C
  O128     1.0000 0.84970  0.63171  0.70516  Biso   1.000  O
  Zn1      1.0000 0.27647  0.47353  0.12500  Biso   1.000  Zn
  Zn2      1.0000 0.22353  0.52647  0.62500  Biso   1.000  Zn
  Zn3      1.0000 0.77647  0.02647  0.37500  Biso   1.000  Zn
  Zn4      1.0000 0.72353  0.97353  0.87500  Biso   1.000  Zn
  Zn5      1.0000 0.22353  0.47353  0.37500  Biso   1.000  Zn
  Zn6      1.0000 0.27647  0.52647  0.87500  Biso   1.000  Zn
  Zn7      1.0000 0.72353  0.02647  0.12500  Biso   1.000  Zn
  Zn8      1.0000 0.77647  0.97353  0.62500  Biso   1.000  Zn
  Zn9      1.0000 0.72353  0.52647  0.87500  Biso   1.000  Zn
  Zn10     1.0000 0.77647  0.47353  0.37500  Biso   1.000  Zn
  Zn11     1.0000 0.22353  0.97353  0.62500  Biso   1.000  Zn
  Zn12     1.0000 0.27647  0.02647  0.12500  Biso   1.000  Zn
  Zn13     1.0000 0.77647  0.52647  0.62500  Biso   1.000  Zn
  Zn14     1.0000 0.72353  0.47353  0.12500  Biso   1.000  Zn
  Zn15     1.0000 0.27647  0.97353  0.87500  Biso   1.000  Zn
  Zn16     1.0000 0.22353  0.02647  0.37500  Biso   1.000  Zn
  C129     1.0000 0.28360  0.75000  0.10020  Biso   1.000  C
  H1       1.0000 0.27120  0.75000  0.14270  Biso   1.000  H
  C130     1.0000 0.32120  0.75000  0.97630  Biso   1.000  C
  H2       1.0000 0.33420  0.75000  0.93400  Biso   1.000  H
  C131     1.0000 0.21640  0.25000  0.60020  Biso   1.000  C
  H3       1.0000 0.22880  0.25000  0.64270  Biso   1.000  H
  C132     1.0000 0.17880  0.25000  0.47630  Biso   1.000  C
  H4       1.0000 0.16580  0.25000  0.43400  Biso   1.000  H
  C133     1.0000 0.50000  0.03360  0.35020  Biso   1.000  C
  H5       1.0000 0.50000  0.02120  0.39270  Biso   1.000  H
  C134     1.0000 0.50000  0.07120  0.22630  Biso   1.000  C
  H6       1.0000 0.50000  0.08420  0.18400  Biso   1.000  H
  C135     1.0000 0.00000  0.53360  0.85020  Biso   1.000  C
  H7       1.0000 0.00000  0.52120  0.89270  Biso   1.000  H
  C136     1.0000 0.00000  0.57120  0.72630  Biso   1.000  C
  H8       1.0000 0.00000  0.58420  0.68400  Biso   1.000  H
  C137     1.0000 0.00000  0.96640  0.85020  Biso   1.000  C
  H9       1.0000 0.00000  0.97880  0.89270  Biso   1.000  H
  C138     1.0000 0.00000  0.92880  0.72630  Biso   1.000  C
  H10      1.0000 0.00000  0.91580  0.68400  Biso   1.000  H
  C139     1.0000 0.50000  0.46640  0.35020  Biso   1.000  C
  H11      1.0000 0.50000  0.47880  0.39270  Biso   1.000  H
  C140     1.0000 0.50000  0.42880  0.22630  Biso   1.000  C
  H12      1.0000 0.50000  0.41580  0.18400  Biso   1.000  H
  C141     1.0000 0.21640  0.75000  0.39980  Biso   1.000  C
  H13      1.0000 0.22880  0.75000  0.35730  Biso   1.000  H
  C142     1.0000 0.17880  0.75000  0.52370  Biso   1.000  C
  H14      1.0000 0.16580  0.75000  0.56600  Biso   1.000  H
  C143     1.0000 0.28360  0.25000  0.89980  Biso   1.000  C
  H15      1.0000 0.27120  0.25000  0.85730  Biso   1.000  H
  C144     1.0000 0.32120  0.25000  0.02370  Biso   1.000  C
  H16      1.0000 0.33420  0.25000  0.06600  Biso   1.000  H
  C145     1.0000 0.00000  0.03360  0.14980  Biso   1.000  C
  H17      1.0000 0.00000  0.02120  0.10730  Biso   1.000  H
  C146     1.0000 0.00000  0.07120  0.27370  Biso   1.000  C
  H18      1.0000 0.00000  0.08420  0.31600  Biso   1.000  H
  C147     1.0000 0.50000  0.53360  0.64980  Biso   1.000  C
  H19      1.0000 0.50000  0.52120  0.60730  Biso   1.000  H
  C148     1.0000 0.50000  0.57120  0.77370  Biso   1.000  C
  H20      1.0000 0.50000  0.58420  0.81600  Biso   1.000  H
  C149     1.0000 0.50000  0.96640  0.64980  Biso   1.000  C
  H21      1.0000 0.50000  0.97880  0.60730  Biso   1.000  H
  C150     1.0000 0.50000  0.92880  0.77370  Biso   1.000  C
  H22      1.0000 0.50000  0.91580  0.81600  Biso   1.000  H
  C151     1.0000 0.00000  0.46640  0.14980  Biso   1.000  C
  H23      1.0000 0.00000  0.47880  0.10730  Biso   1.000  H
  C152     1.0000 0.00000  0.42880  0.27370  Biso   1.000  C
  H24      1.0000 0.00000  0.41580  0.31600  Biso   1.000  H
  C153     1.0000 0.71640  0.25000  0.89980  Biso   1.000  C
  H25      1.0000 0.72880  0.25000  0.85730  Biso   1.000  H
  C154     1.0000 0.67880  0.25000  0.02370  Biso   1.000  C
  H26      1.0000 0.66580  0.25000  0.06600  Biso   1.000  H
  C155     1.0000 0.78360  0.75000  0.39980  Biso   1.000  C
  H27      1.0000 0.77120  0.75000  0.35730  Biso   1.000  H
  C156     1.0000 0.82120  0.75000  0.52370  Biso   1.000  C
  H28      1.0000 0.83420  0.75000  0.56600  Biso   1.000  H
  C157     1.0000 0.78360  0.25000  0.60020  Biso   1.000  C
  H29      1.0000 0.77120  0.25000  0.64270  Biso   1.000  H
  C158     1.0000 0.82120  0.25000  0.47630  Biso   1.000  C
  H30      1.0000 0.83420  0.25000  0.43400  Biso   1.000  H
  C159     1.0000 0.71640  0.75000  0.10020  Biso   1.000  C
  H31      1.0000 0.72880  0.75000  0.14270  Biso   1.000  H
  C160     1.0000 0.67880  0.75000  0.97630  Biso   1.000  C
  H32      1.0000 0.66580  0.75000  0.93400  Biso   1.000  H
