data_image0
_cell_length_a       25.0986
_cell_length_b       4.8666
_cell_length_c       24.0359
_cell_angle_alpha    90
_cell_angle_beta     117.2
_cell_angle_gamma    90

_symmetry_space_group_name_H-M    "P 1"
_symmetry_int_tables_number       1

loop_
  _symmetry_equiv_pos_as_xyz
  'x, y, z'

loop_
  _atom_site_label
  _atom_site_occupancy
  _atom_site_fract_x
  _atom_site_fract_y
  _atom_site_fract_z
  _atom_site_thermal_displace_type
  _atom_site_B_iso_or_equiv
  _atom_site_type_symbol
  Be1      1.0000 0.18285  0.67060  0.24933  Biso   1.000  Be
  Be2      1.0000 0.05990  0.65320  0.34050  Biso   1.000  Be
  Be3      1.0000 0.26060  0.51750  0.57071  Biso   1.000  Be
  P1       1.0000 0.23747  0.16266  0.31487  Biso   1.000  P
  P2       1.0000 0.06565  0.48725  0.22332  Biso   1.000  P
  P3       1.0000 0.17659  0.47397  0.43645  Biso   1.000  P
  O1       1.0000 0.21413  0.46280  0.31077  Biso   1.000  O
  O2       1.0000 0.26461  0.07280  0.38292  Biso   1.000  O
  O3       1.0000 0.28541  0.14720  0.29415  Biso   1.000  O
  O4       1.0000 0.18351  0.98320  0.27404  Biso   1.000  O
  O5       1.0000 0.11258  0.59450  0.20528  Biso   1.000  O
  O6       1.0000 0.06975  0.16700  0.22610  Biso   1.000  O
  H1       1.0000 0.10500  0.12010  0.24090  Biso   1.000  H
  O7       1.0000 0.00344  0.53590  0.17115  Biso   1.000  O
  O8       1.0000 0.07611  0.59900  0.28534  Biso   1.000  O
  O9       1.0000 0.11057  0.53500  0.40523  Biso   1.000  O
  O10      1.0000 0.20338  0.55860  0.50384  Biso   1.000  O
  O11      1.0000 0.20911  0.65720  0.40555  Biso   1.000  O
  O12      1.0000 0.18660  0.17650  0.42668  Biso   1.000  O
  O13      1.0000 0.05807  0.98750  0.35356  Biso   1.000  O
  H2       1.0000 0.02390  0.04550  0.33280  Biso   1.000  H
  Be4      1.0000 0.68285  0.17060  0.24933  Biso   1.000  Be
  Be5      1.0000 0.55990  0.15320  0.34050  Biso   1.000  Be
  Be6      1.0000 0.76060  0.01750  0.57071  Biso   1.000  Be
  P4       1.0000 0.73747  0.66266  0.31487  Biso   1.000  P
  P5       1.0000 0.56565  0.98725  0.22332  Biso   1.000  P
  P6       1.0000 0.67659  0.97397  0.43645  Biso   1.000  P
  O14      1.0000 0.71413  0.96280  0.31077  Biso   1.000  O
  O15      1.0000 0.76461  0.57280  0.38292  Biso   1.000  O
  O16      1.0000 0.78541  0.64720  0.29415  Biso   1.000  O
  O17      1.0000 0.68351  0.48320  0.27404  Biso   1.000  O
  O18      1.0000 0.61258  0.09450  0.20528  Biso   1.000  O
  O19      1.0000 0.56975  0.66700  0.22610  Biso   1.000  O
  H3       1.0000 0.60500  0.62010  0.24090  Biso   1.000  H
  O20      1.0000 0.50344  0.03590  0.17115  Biso   1.000  O
  O21      1.0000 0.57611  0.09900  0.28534  Biso   1.000  O
  O22      1.0000 0.61057  0.03500  0.40523  Biso   1.000  O
  O23      1.0000 0.70338  0.05860  0.50384  Biso   1.000  O
  O24      1.0000 0.70911  0.15720  0.40555  Biso   1.000  O
  O25      1.0000 0.68660  0.67650  0.42668  Biso   1.000  O
  O26      1.0000 0.55807  0.48750  0.35356  Biso   1.000  O
  H4       1.0000 0.52390  0.54550  0.33280  Biso   1.000  H
  Be7      1.0000 0.81715  0.67060  0.25067  Biso   1.000  Be
  Be8      1.0000 0.94010  0.65320  0.15950  Biso   1.000  Be
  Be9      1.0000 0.73940  0.51750  0.92929  Biso   1.000  Be
  P7       1.0000 0.76253  0.16266  0.18513  Biso   1.000  P
  P8       1.0000 0.93435  0.48725  0.27668  Biso   1.000  P
  P9       1.0000 0.82341  0.47397  0.06355  Biso   1.000  P
  O27      1.0000 0.78587  0.46280  0.18923  Biso   1.000  O
  O28      1.0000 0.73539  0.07280  0.11708  Biso   1.000  O
  O29      1.0000 0.71459  0.14720  0.20585  Biso   1.000  O
  O30      1.0000 0.81649  0.98320  0.22596  Biso   1.000  O
  O31      1.0000 0.88742  0.59450  0.29472  Biso   1.000  O
  O32      1.0000 0.93025  0.16700  0.27390  Biso   1.000  O
  H5       1.0000 0.89500  0.12010  0.25910  Biso   1.000  H
  O33      1.0000 0.99656  0.53590  0.32885  Biso   1.000  O
  O34      1.0000 0.92389  0.59900  0.21466  Biso   1.000  O
  O35      1.0000 0.88943  0.53500  0.09477  Biso   1.000  O
  O36      1.0000 0.79662  0.55860  0.99616  Biso   1.000  O
  O37      1.0000 0.79089  0.65720  0.09445  Biso   1.000  O
  O38      1.0000 0.81340  0.17650  0.07332  Biso   1.000  O
  O39      1.0000 0.94193  0.98750  0.14644  Biso   1.000  O
  H6       1.0000 0.97610  0.04550  0.16720  Biso   1.000  H
  Be10     1.0000 0.31715  0.17060  0.25067  Biso   1.000  Be
  Be11     1.0000 0.44010  0.15320  0.15950  Biso   1.000  Be
  Be12     1.0000 0.23940  0.01750  0.92929  Biso   1.000  Be
  P10      1.0000 0.26253  0.66266  0.18513  Biso   1.000  P
  P11      1.0000 0.43435  0.98725  0.27668  Biso   1.000  P
  P12      1.0000 0.32341  0.97397  0.06355  Biso   1.000  P
  O40      1.0000 0.28587  0.96280  0.18923  Biso   1.000  O
  O41      1.0000 0.23539  0.57280  0.11708  Biso   1.000  O
  O42      1.0000 0.21459  0.64720  0.20585  Biso   1.000  O
  O43      1.0000 0.31649  0.48320  0.22596  Biso   1.000  O
  O44      1.0000 0.38742  0.09450  0.29472  Biso   1.000  O
  O45      1.0000 0.43025  0.66700  0.27390  Biso   1.000  O
  H7       1.0000 0.39500  0.62010  0.25910  Biso   1.000  H
  O46      1.0000 0.49656  0.03590  0.32885  Biso   1.000  O
  O47      1.0000 0.42389  0.09900  0.21466  Biso   1.000  O
  O48      1.0000 0.38943  0.03500  0.09477  Biso   1.000  O
  O49      1.0000 0.29662  0.05860  0.99616  Biso   1.000  O
  O50      1.0000 0.29089  0.15720  0.09445  Biso   1.000  O
  O51      1.0000 0.31340  0.67650  0.07332  Biso   1.000  O
  O52      1.0000 0.44193  0.48750  0.14644  Biso   1.000  O
  H8       1.0000 0.47610  0.54550  0.16720  Biso   1.000  H
  Be13     1.0000 0.81715  0.32940  0.75067  Biso   1.000  Be
  Be14     1.0000 0.94010  0.34680  0.65950  Biso   1.000  Be
  Be15     1.0000 0.73940  0.48250  0.42929  Biso   1.000  Be
  P13      1.0000 0.76253  0.83734  0.68513  Biso   1.000  P
  P14      1.0000 0.93435  0.51275  0.77668  Biso   1.000  P
  P15      1.0000 0.82341  0.52603  0.56355  Biso   1.000  P
  O53      1.0000 0.78587  0.53720  0.68923  Biso   1.000  O
  O54      1.0000 0.73539  0.92720  0.61708  Biso   1.000  O
  O55      1.0000 0.71459  0.85280  0.70585  Biso   1.000  O
  O56      1.0000 0.81649  0.01680  0.72596  Biso   1.000  O
  O57      1.0000 0.88742  0.40550  0.79472  Biso   1.000  O
  O58      1.0000 0.93025  0.83300  0.77390  Biso   1.000  O
  H9       1.0000 0.89500  0.87990  0.75910  Biso   1.000  H
  O59      1.0000 0.99656  0.46410  0.82885  Biso   1.000  O
  O60      1.0000 0.92389  0.40100  0.71466  Biso   1.000  O
  O61      1.0000 0.88943  0.46500  0.59477  Biso   1.000  O
  O62      1.0000 0.79662  0.44140  0.49616  Biso   1.000  O
  O63      1.0000 0.79089  0.34280  0.59445  Biso   1.000  O
  O64      1.0000 0.81340  0.82350  0.57332  Biso   1.000  O
  O65      1.0000 0.94193  0.01250  0.64644  Biso   1.000  O
  H10      1.0000 0.97610  0.95450  0.66720  Biso   1.000  H
  Be16     1.0000 0.31715  0.82940  0.75067  Biso   1.000  Be
  Be17     1.0000 0.44010  0.84680  0.65950  Biso   1.000  Be
  Be18     1.0000 0.23940  0.98250  0.42929  Biso   1.000  Be
  P16      1.0000 0.26253  0.33734  0.68513  Biso   1.000  P
  P17      1.0000 0.43435  0.01275  0.77668  Biso   1.000  P
  P18      1.0000 0.32341  0.02603  0.56355  Biso   1.000  P
  O66      1.0000 0.28587  0.03720  0.68923  Biso   1.000  O
  O67      1.0000 0.23539  0.42720  0.61708  Biso   1.000  O
  O68      1.0000 0.21459  0.35280  0.70585  Biso   1.000  O
  O69      1.0000 0.31649  0.51680  0.72596  Biso   1.000  O
  O70      1.0000 0.38742  0.90550  0.79472  Biso   1.000  O
  O71      1.0000 0.43025  0.33300  0.77390  Biso   1.000  O
  H11      1.0000 0.39500  0.37990  0.75910  Biso   1.000  H
  O72      1.0000 0.49656  0.96410  0.82885  Biso   1.000  O
  O73      1.0000 0.42389  0.90100  0.71466  Biso   1.000  O
  O74      1.0000 0.38943  0.96500  0.59477  Biso   1.000  O
  O75      1.0000 0.29662  0.94140  0.49616  Biso   1.000  O
  O76      1.0000 0.29089  0.84280  0.59445  Biso   1.000  O
  O77      1.0000 0.31340  0.32350  0.57332  Biso   1.000  O
  O78      1.0000 0.44193  0.51250  0.64644  Biso   1.000  O
  H12      1.0000 0.47610  0.45450  0.66720  Biso   1.000  H
  Be19     1.0000 0.18285  0.32940  0.74933  Biso   1.000  Be
  Be20     1.0000 0.05990  0.34680  0.84050  Biso   1.000  Be
  Be21     1.0000 0.26060  0.48250  0.07071  Biso   1.000  Be
  P19      1.0000 0.23747  0.83734  0.81487  Biso   1.000  P
  P20      1.0000 0.06565  0.51275  0.72332  Biso   1.000  P
  P21      1.0000 0.17659  0.52603  0.93645  Biso   1.000  P
  O79      1.0000 0.21413  0.53720  0.81077  Biso   1.000  O
  O80      1.0000 0.26461  0.92720  0.88292  Biso   1.000  O
  O81      1.0000 0.28541  0.85280  0.79415  Biso   1.000  O
  O82      1.0000 0.18351  0.01680  0.77404  Biso   1.000  O
  O83      1.0000 0.11258  0.40550  0.70528  Biso   1.000  O
  O84      1.0000 0.06975  0.83300  0.72610  Biso   1.000  O
  H13      1.0000 0.10500  0.87990  0.74090  Biso   1.000  H
  O85      1.0000 0.00344  0.46410  0.67115  Biso   1.000  O
  O86      1.0000 0.07611  0.40100  0.78534  Biso   1.000  O
  O87      1.0000 0.11057  0.46500  0.90523  Biso   1.000  O
  O88      1.0000 0.20338  0.44140  0.00384  Biso   1.000  O
  O89      1.0000 0.20911  0.34280  0.90555  Biso   1.000  O
  O90      1.0000 0.18660  0.82350  0.92668  Biso   1.000  O
  O91      1.0000 0.05807  0.01250  0.85356  Biso   1.000  O
  H14      1.0000 0.02390  0.95450  0.83280  Biso   1.000  H
  Be22     1.0000 0.68285  0.82940  0.74933  Biso   1.000  Be
  Be23     1.0000 0.55990  0.84680  0.84050  Biso   1.000  Be
  Be24     1.0000 0.76060  0.98250  0.07071  Biso   1.000  Be
  P22      1.0000 0.73747  0.33734  0.81487  Biso   1.000  P
  P23      1.0000 0.56565  0.01275  0.72332  Biso   1.000  P
  P24      1.0000 0.67659  0.02603  0.93645  Biso   1.000  P
  O92      1.0000 0.71413  0.03720  0.81077  Biso   1.000  O
  O93      1.0000 0.76461  0.42720  0.88292  Biso   1.000  O
  O94      1.0000 0.78541  0.35280  0.79415  Biso   1.000  O
  O95      1.0000 0.68351  0.51680  0.77404  Biso   1.000  O
  O96      1.0000 0.61258  0.90550  0.70528  Biso   1.000  O
  O97      1.0000 0.56975  0.33300  0.72610  Biso   1.000  O
  H15      1.0000 0.60500  0.37990  0.74090  Biso   1.000  H
  O98      1.0000 0.50344  0.96410  0.67115  Biso   1.000  O
  O99      1.0000 0.57611  0.90100  0.78534  Biso   1.000  O
  O100     1.0000 0.61057  0.96500  0.90523  Biso   1.000  O
  O101     1.0000 0.70338  0.94140  0.00384  Biso   1.000  O
  O102     1.0000 0.70911  0.84280  0.90555  Biso   1.000  O
  O103     1.0000 0.68660  0.32350  0.92668  Biso   1.000  O
  O104     1.0000 0.55807  0.51250  0.85356  Biso   1.000  O
  H16      1.0000 0.52390  0.45450  0.83280  Biso   1.000  H
