data_image0
_cell_length_a       9.2994
_cell_length_b       9.751
_cell_length_c       14.3348
_cell_angle_alpha    90
_cell_angle_beta     90.974
_cell_angle_gamma    90

_symmetry_space_group_name_H-M    "P 1"
_symmetry_int_tables_number       1

loop_
  _symmetry_equiv_pos_as_xyz
  'x, y, z'

loop_
  _atom_site_label
  _atom_site_occupancy
  _atom_site_fract_x
  _atom_site_fract_y
  _atom_site_fract_z
  _atom_site_thermal_displace_type
  _atom_site_B_iso_or_equiv
  _atom_site_type_symbol
  Zn1      1.0000 0.53230  0.88530  0.26730  Biso   1.000  Zn
  Zn2      1.0000 0.22840  0.37690  0.37550  Biso   1.000  Zn
  Zn3      1.0000 0.75630  0.90400  0.87000  Biso   1.000  Zn
  Zn4      1.0000 0.92940  0.11350  0.24560  Biso   1.000  Zn
  Zn5      1.0000 0.92300  0.73960  0.22700  Biso   1.000  Zn
  P1       1.0000 0.79540  0.92620  0.39350  Biso   1.000  P
  P2       1.0000 0.75620  0.91650  0.09860  Biso   1.000  P
  P3       1.0000 0.95560  0.42890  0.23780  Biso   1.000  P
  P4       1.0000 0.26460  0.12200  0.24230  Biso   1.000  P
  P5       1.0000 0.44440  0.56280  0.27250  Biso   1.000  P
  O1       1.0000 0.62820  0.86060  0.15060  Biso   1.000  O
  O2       1.0000 0.63890  0.96990  0.37090  Biso   1.000  O
  O3       1.0000 0.47550  0.70450  0.30870  Biso   1.000  O
  O4       1.0000 0.36450  0.00120  0.24830  Biso   1.000  O
  O5       1.0000 0.24160  0.18570  0.33780  Biso   1.000  O
  O6       1.0000 0.41230  0.46290  0.35180  Biso   1.000  O
  O7       1.0000 0.81660  0.88830  0.49550  Biso   1.000  O
  O8       1.0000 0.05820  0.46080  0.31930  Biso   1.000  O
  O9       1.0000 0.03770  0.40740  0.14670  Biso   1.000  O
  O10      1.0000 0.71370  0.94010  0.99740  Biso   1.000  O
  O11      1.0000 0.32420  0.56180  0.19940  Biso   1.000  O
  O12      1.0000 0.32380  0.22920  0.17400  Biso   1.000  O
  O13      1.0000 0.89900  0.04430  0.37000  Biso   1.000  O
  O14      1.0000 0.86310  0.30250  0.25790  Biso   1.000  O
  O15      1.0000 0.11960  0.06990  0.20300  Biso   1.000  O
  O16      1.0000 0.80600  0.05400  0.14250  Biso   1.000  O
  O17      1.0000 0.83130  0.79870  0.33630  Biso   1.000  O
  O18      1.0000 0.88220  0.81350  0.10430  Biso   1.000  O
  O19      1.0000 0.85290  0.55110  0.22500  Biso   1.000  O
  O20      1.0000 0.58200  0.50240  0.22190  Biso   1.000  O
  H1       1.0000 0.56360  0.42320  0.20190  Biso   1.000  H
  Zn6      1.0000 0.46770  0.38530  0.73270  Biso   1.000  Zn
  Zn7      1.0000 0.77160  0.87690  0.62450  Biso   1.000  Zn
  Zn8      1.0000 0.24370  0.40400  0.13000  Biso   1.000  Zn
  Zn9      1.0000 0.07060  0.61350  0.75440  Biso   1.000  Zn
  Zn10     1.0000 0.07700  0.23960  0.77300  Biso   1.000  Zn
  P6       1.0000 0.20460  0.42620  0.60650  Biso   1.000  P
  P7       1.0000 0.24380  0.41650  0.90140  Biso   1.000  P
  P8       1.0000 0.04440  0.92890  0.76220  Biso   1.000  P
  P9       1.0000 0.73540  0.62200  0.75770  Biso   1.000  P
  P10      1.0000 0.55560  0.06280  0.72750  Biso   1.000  P
  O21      1.0000 0.37180  0.36060  0.84940  Biso   1.000  O
  O22      1.0000 0.36110  0.46990  0.62910  Biso   1.000  O
  O23      1.0000 0.52450  0.20450  0.69130  Biso   1.000  O
  O24      1.0000 0.63550  0.50120  0.75170  Biso   1.000  O
  O25      1.0000 0.75840  0.68570  0.66220  Biso   1.000  O
  O26      1.0000 0.58770  0.96290  0.64820  Biso   1.000  O
  O27      1.0000 0.18340  0.38830  0.50450  Biso   1.000  O
  O28      1.0000 0.94180  0.96080  0.68070  Biso   1.000  O
  O29      1.0000 0.96230  0.90740  0.85330  Biso   1.000  O
  O30      1.0000 0.28630  0.44010  0.00260  Biso   1.000  O
  O31      1.0000 0.67580  0.06180  0.80060  Biso   1.000  O
  O32      1.0000 0.67620  0.72920  0.82600  Biso   1.000  O
  O33      1.0000 0.10100  0.54430  0.63000  Biso   1.000  O
  O34      1.0000 0.13690  0.80250  0.74210  Biso   1.000  O
  O35      1.0000 0.88040  0.56990  0.79700  Biso   1.000  O
  O36      1.0000 0.19400  0.55400  0.85750  Biso   1.000  O
  O37      1.0000 0.16870  0.29870  0.66370  Biso   1.000  O
  O38      1.0000 0.11780  0.31350  0.89570  Biso   1.000  O
  O39      1.0000 0.14710  0.05110  0.77500  Biso   1.000  O
  O40      1.0000 0.41800  0.00240  0.77810  Biso   1.000  O
  H2       1.0000 0.43640  0.92320  0.79810  Biso   1.000  H
