data_image0
_cell_length_a       10.2
_cell_length_b       9.998
_cell_length_c       10.4471
_cell_angle_alpha    90
_cell_angle_beta     92.242
_cell_angle_gamma    90

_symmetry_space_group_name_H-M    "P 1"
_symmetry_int_tables_number       1

loop_
  _symmetry_equiv_pos_as_xyz
  'x, y, z'

loop_
  _atom_site_label
  _atom_site_occupancy
  _atom_site_fract_x
  _atom_site_fract_y
  _atom_site_fract_z
  _atom_site_thermal_displace_type
  _atom_site_B_iso_or_equiv
  _atom_site_type_symbol
  Zn1      1.0000 0.13720  0.42350  0.89270  Biso   1.000  Zn
  Zn2      1.0000 0.37240  0.09890  0.12110  Biso   1.000  Zn
  Zn3      1.0000 0.08300  0.15010  0.39880  Biso   1.000  Zn
  Zn4      1.0000 0.57920  0.81430  0.37500  Biso   1.000  Zn
  P1       1.0000 0.92820  0.67130  0.90580  Biso   1.000  P
  P2       1.0000 0.38410  0.06370  0.43130  Biso   1.000  P
  P3       1.0000 0.11440  0.39680  0.58780  Biso   1.000  P
  P4       1.0000 0.43270  0.35460  0.92930  Biso   1.000  P
  O1       1.0000 0.31940  0.45680  0.93090  Biso   1.000  O
  O2       1.0000 0.05910  0.59730  0.91700  Biso   1.000  O
  O3       1.0000 0.10090  0.34480  0.72420  Biso   1.000  O
  O4       1.0000 0.06180  0.28670  0.99890  Biso   1.000  O
  O5       1.0000 0.42970  0.26200  0.04590  Biso   1.000  O
  O6       1.0000 0.40840  0.13020  0.30220  Biso   1.000  O
  O7       1.0000 0.56310  0.42940  0.93840  Biso   1.000  O
  O8       1.0000 0.81550  0.57420  0.93760  Biso   1.000  O
  O9       1.0000 0.23670  0.05530  0.45660  Biso   1.000  O
  O10      1.0000 0.07060  0.53970  0.57660  Biso   1.000  O
  O11      1.0000 0.03270  0.30890  0.49670  Biso   1.000  O
  O12      1.0000 0.90400  0.72970  0.77190  Biso   1.000  O
  O13      1.0000 0.43450  0.92000  0.43450  Biso   1.000  O
  O14      1.0000 0.42360  0.26940  0.80570  Biso   1.000  O
  O15      1.0000 0.26100  0.39530  0.55270  Biso   1.000  O
  O16      1.0000 0.45480  0.14370  0.53720  Biso   1.000  O
  Zn5      1.0000 0.86280  0.92350  0.10730  Biso   1.000  Zn
  Zn6      1.0000 0.62760  0.59890  0.87890  Biso   1.000  Zn
  Zn7      1.0000 0.91700  0.65010  0.60120  Biso   1.000  Zn
  Zn8      1.0000 0.42080  0.31430  0.62500  Biso   1.000  Zn
  P5       1.0000 0.07180  0.17130  0.09420  Biso   1.000  P
  P6       1.0000 0.61590  0.56370  0.56870  Biso   1.000  P
  P7       1.0000 0.88560  0.89680  0.41220  Biso   1.000  P
  P8       1.0000 0.56730  0.85460  0.07070  Biso   1.000  P
  O17      1.0000 0.68060  0.95680  0.06910  Biso   1.000  O
  O18      1.0000 0.94090  0.09730  0.08300  Biso   1.000  O
  O19      1.0000 0.89910  0.84480  0.27580  Biso   1.000  O
  O20      1.0000 0.93820  0.78670  0.00110  Biso   1.000  O
  O21      1.0000 0.57030  0.76200  0.95410  Biso   1.000  O
  O22      1.0000 0.59160  0.63020  0.69780  Biso   1.000  O
  O23      1.0000 0.43690  0.92940  0.06160  Biso   1.000  O
  O24      1.0000 0.18450  0.07420  0.06240  Biso   1.000  O
  O25      1.0000 0.76330  0.55530  0.54340  Biso   1.000  O
  O26      1.0000 0.92940  0.03970  0.42340  Biso   1.000  O
  O27      1.0000 0.96730  0.80890  0.50330  Biso   1.000  O
  O28      1.0000 0.09600  0.22970  0.22810  Biso   1.000  O
  O29      1.0000 0.56550  0.42000  0.56550  Biso   1.000  O
  O30      1.0000 0.57640  0.76940  0.19430  Biso   1.000  O
  O31      1.0000 0.73900  0.89530  0.44730  Biso   1.000  O
  O32      1.0000 0.54520  0.64370  0.46280  Biso   1.000  O
