data_QODHUO_clean
_audit_creation_date              2015-10-16
_audit_creation_method            'Materials Studio'
_symmetry_space_group_name_H-M    'P1'
_symmetry_Int_Tables_number       1
_symmetry_cell_setting            triclinic
loop_
_symmetry_equiv_pos_as_xyz
  x,y,z
_cell_length_a                    13.7393
_cell_length_b                    13.7393
_cell_length_c                    24.5748
_cell_angle_alpha                 78.7394
_cell_angle_beta                  78.4789
_cell_angle_gamma                 107.0670
loop_
_atom_site_label
_atom_site_type_symbol
_atom_site_fract_x
_atom_site_fract_y
_atom_site_fract_z
_atom_site_U_iso_or_equiv
_atom_site_adp_type
_atom_site_occupancy
Ag1    Ag    0.51856   0.69853   0.86789   0.01267  Uiso   1.00
Ag2    Ag    0.70395   0.42555   0.36730   0.01267  Uiso   1.00
H1     H     0.64550   0.44680   0.50050   0.01267  Uiso   1.00
H2     H     0.74900   0.68110   0.84470   0.01267  Uiso   1.00
H3     H     0.50700   0.88850   0.75990   0.01267  Uiso   1.00
H4     H     0.87290   0.65250   0.89020   0.01267  Uiso   1.00
H5     H     0.99040   0.51120   0.16860   0.01267  Uiso   1.00
H6     H     0.55720   0.65910   0.98990   0.01267  Uiso   1.00
H7     H     0.92210   0.45450   0.26700   0.01267  Uiso   1.00
H8     H     0.56670   0.62710   0.76360   0.01267  Uiso   1.00
H9     H     0.62290   0.26130   0.48500   0.01267  Uiso   1.00
H10    H     0.67210   0.62580   0.04030   0.01267  Uiso   1.00
H11    H     0.70080   0.50270   0.15630   0.01267  Uiso   1.00
H12    H     0.69140   0.64420   0.35220   0.01267  Uiso   1.00
H13    H     0.53540   0.92690   0.66130   0.01267  Uiso   1.00
H14    H     0.13540   0.70600   0.89400   0.01267  Uiso   1.00
H15    H     0.18710   0.59120   0.04510   0.01267  Uiso   1.00
H16    H     0.59700   0.65740   0.66520   0.01267  Uiso   1.00
H17    H     0.66160   0.76950   0.39650   0.01267  Uiso   1.00
H18    H     0.60440   0.09500   0.53680   0.01267  Uiso   1.00
H19    H     0.64130   0.44360   0.25510   0.01267  Uiso   1.00
H20    H     0.35670   0.61480   0.99450   0.01267  Uiso   1.00
H21    H     0.61510   0.56630   0.54980   0.01267  Uiso   1.00
H22    H     0.30600   0.72900   0.84880   0.01267  Uiso   1.00
H23    H     0.67890   0.02390   0.38620   0.01267  Uiso   1.00
H24    H     0.70280   0.19480   0.33940   0.01267  Uiso   1.00
C1     C     0.63080   0.58380   0.50980   0.01267  Uiso   1.00
C2     C     0.87750   0.46550   0.24440   0.01267  Uiso   1.00
C3     C     0.71260   0.45940   0.23760   0.01267  Uiso   1.00
C4     C     0.78683   0.63770   0.97047   0.01267  Uiso   1.00
C5     C     0.80916   0.65370   0.91134   0.01267  Uiso   1.00
C6     C     0.63971   0.04090   0.46739   0.01267  Uiso   1.00
C7     C     0.91980   0.50060   0.18520   0.01267  Uiso   1.00
C8     C     0.62160   0.65800   0.96960   0.01267  Uiso   1.00
C9     C     0.62428   0.76620   0.50712   0.01267  Uiso   1.00
C10    C     0.56870   0.79600   0.65210   0.01267  Uiso   1.00
C11    C     0.13966   0.64290   0.97464   0.01267  Uiso   1.00
C12    C     0.17858   0.68640   0.91542   0.01267  Uiso   1.00
C13    C     0.52500   0.84160   0.74060   0.01267  Uiso   1.00
C14    C     0.66852   0.07130   0.40718   0.01267  Uiso   1.00
C15    C     0.56010   0.68780   0.74270   0.01267  Uiso   1.00
C16    C     0.73430   0.67150   0.88440   0.01267  Uiso   1.00
C17    C     0.62325   0.11310   0.49665   0.01267  Uiso   1.00
C18    C     0.31150   0.63350   0.97420   0.01267  Uiso   1.00
C19    C     0.59013   0.81780   0.58827   0.01267  Uiso   1.00
C20    C     0.85468   0.51950   0.15142   0.01267  Uiso   1.00
C21    C     0.57850   0.70520   0.68350   0.01267  Uiso   1.00
C22    C     0.67605   0.62860   0.39215   0.01267  Uiso   1.00
C23    C     0.62651   0.93290   0.50139   0.01267  Uiso   1.00
C24    C     0.02787   0.62210   0.00523   0.01267  Uiso   1.00
C25    C     0.63540   0.21340   0.46500   0.01267  Uiso   1.00
C26    C     0.68130   0.17380   0.37950   0.01267  Uiso   1.00
C27    C     0.89544   0.56350   0.08766   0.01267  Uiso   1.00
C28    C     0.28154   0.70010   0.88856   0.01267  Uiso   1.00
C29    C     0.65855   0.70480   0.41845   0.01267  Uiso   1.00
C30    C     0.86432   0.61890   0.00258   0.01267  Uiso   1.00
C31    C     0.69015   0.63830   0.00035   0.01267  Uiso   1.00
C32    C     0.63651   0.68330   0.47799   0.01267  Uiso   1.00
C33    C     0.64910   0.51250   0.47960   0.01267  Uiso   1.00
C34    C     0.20907   0.61780   0.00513   0.01267  Uiso   1.00
C35    C     0.74760   0.49510   0.17810   0.01267  Uiso   1.00
C36    C     0.54190   0.86540   0.68130   0.01267  Uiso   1.00
N1     N     0.59703   0.73939   0.56478   0.01267  Uiso   1.00
N2     N     0.60116   0.91505   0.55879   0.01267  Uiso   1.00
N3     N     0.96443   0.64160   0.97277   0.01267  Uiso   1.00
N4     N     0.82508   0.57836   0.05956   0.01267  Uiso   1.00
N5     N     0.99782   0.58379   0.06319   0.01267  Uiso   1.00
N6     N     0.66399   0.24500   0.40741   0.01267  Uiso   1.00
N7     N     0.53314   0.75330   0.77176   0.01267  Uiso   1.00
N8     N     0.34869   0.67399   0.91672   0.01267  Uiso   1.00
N9     N     0.64161   0.67563   0.91236   0.01267  Uiso   1.00
N10    N     0.67198   0.53329   0.42153   0.01267  Uiso   1.00
N11    N     0.64222   0.86248   0.47330   0.01267  Uiso   1.00
N12    N     0.77590   0.44620   0.27150   0.01267  Uiso   1.00
Ag3    Ag    0.48144   0.30147   0.13211   0.01267  Uiso   1.00
Ag4    Ag    0.29605   0.57445   0.63270   0.01267  Uiso   1.00
H25    H     0.46460   0.07310   0.33870   0.01267  Uiso   1.00
H26    H     0.64330   0.38520   0.00550   0.01267  Uiso   1.00
H27    H     0.40300   0.34260   0.33480   0.01267  Uiso   1.00
H28    H     0.32790   0.37420   0.95970   0.01267  Uiso   1.00
H29    H     0.43330   0.37290   0.23640   0.01267  Uiso   1.00
H30    H     0.07790   0.54550   0.73300   0.01267  Uiso   1.00
H31    H     0.32110   0.97610   0.61380   0.01267  Uiso   1.00
H32    H     0.49300   0.11150   0.24010   0.01267  Uiso   1.00
H33    H     0.33840   0.23050   0.60350   0.01267  Uiso   1.00
H34    H     0.39560   0.90500   0.46320   0.01267  Uiso   1.00
H35    H     0.25100   0.31890   0.15530   0.01267  Uiso   1.00
H36    H     0.69400   0.27100   0.15120   0.01267  Uiso   1.00
H37    H     0.44280   0.34090   0.01010   0.01267  Uiso   1.00
H38    H     0.30860   0.35580   0.64780   0.01267  Uiso   1.00
H39    H     0.86460   0.29400   0.10600   0.01267  Uiso   1.00
H40    H     0.38490   0.43370   0.45020   0.01267  Uiso   1.00
H41    H     0.12710   0.34750   0.10980   0.01267  Uiso   1.00
H42    H     0.81290   0.40880   0.95490   0.01267  Uiso   1.00
H43    H     0.29920   0.49730   0.84370   0.01267  Uiso   1.00
H44    H     0.35450   0.55320   0.49950   0.01267  Uiso   1.00
H45    H     0.00960   0.48880   0.83140   0.01267  Uiso   1.00
H46    H     0.37710   0.73870   0.51500   0.01267  Uiso   1.00
H47    H     0.35870   0.55640   0.74490   0.01267  Uiso   1.00
H48    H     0.29720   0.80520   0.66060   0.01267  Uiso   1.00
C37    C     0.33148   0.92870   0.59282   0.01267  Uiso   1.00
C38    C     0.68850   0.36650   0.02580   0.01267  Uiso   1.00
C39    C     0.08020   0.49940   0.81480   0.01267  Uiso   1.00
C40    C     0.35090   0.48750   0.52040   0.01267  Uiso   1.00
C41    C     0.37349   0.06710   0.49861   0.01267  Uiso   1.00
C42    C     0.36920   0.41620   0.49020   0.01267  Uiso   1.00
C43    C     0.42150   0.29480   0.31650   0.01267  Uiso   1.00
C44    C     0.13568   0.38110   0.99742   0.01267  Uiso   1.00
C45    C     0.45810   0.13460   0.31870   0.01267  Uiso   1.00
C46    C     0.79093   0.38220   0.99487   0.01267  Uiso   1.00
C47    C     0.86034   0.35710   0.02536   0.01267  Uiso   1.00
C48    C     0.34145   0.29520   0.58155   0.01267  Uiso   1.00
C49    C     0.36349   0.31670   0.52201   0.01267  Uiso   1.00
C50    C     0.47500   0.15840   0.25940   0.01267  Uiso   1.00
C51    C     0.28740   0.54060   0.76240   0.01267  Uiso   1.00
C52    C     0.36029   0.95910   0.53261   0.01267  Uiso   1.00
C53    C     0.31870   0.82620   0.62050   0.01267  Uiso   1.00
C54    C     0.19084   0.34630   0.08866   0.01267  Uiso   1.00
C55    C     0.40987   0.18220   0.41173   0.01267  Uiso   1.00
C56    C     0.71846   0.29990   0.11144   0.01267  Uiso   1.00
C57    C     0.21317   0.36230   0.02953   0.01267  Uiso   1.00
C58    C     0.97213   0.37790   0.99477   0.01267  Uiso   1.00
C59    C     0.43130   0.20400   0.34790   0.01267  Uiso   1.00
C60    C     0.32395   0.37140   0.60785   0.01267  Uiso   1.00
C61    C     0.37840   0.34200   0.03040   0.01267  Uiso   1.00
C62    C     0.82142   0.31360   0.08458   0.01267  Uiso   1.00
C63    C     0.43990   0.31220   0.25730   0.01267  Uiso   1.00
C64    C     0.10456   0.43650   0.91234   0.01267  Uiso   1.00
C65    C     0.37572   0.23380   0.49288   0.01267  Uiso   1.00
C66    C     0.36460   0.78660   0.53500   0.01267  Uiso   1.00
C67    C     0.26570   0.32850   0.11560   0.01267  Uiso   1.00
C68    C     0.12250   0.53450   0.75560   0.01267  Uiso   1.00
C69    C     0.14532   0.48050   0.84858   0.01267  Uiso   1.00
C70    C     0.25240   0.50490   0.82190   0.01267  Uiso   1.00
C71    C     0.37675   0.88690   0.50335   0.01267  Uiso   1.00
C72    C     0.30985   0.36170   0.99965   0.01267  Uiso   1.00
N13    N     0.03557   0.35840   0.02723   0.01267  Uiso   1.00
N14    N     0.46686   0.24670   0.22824   0.01267  Uiso   1.00
N15    N     0.39884   0.08495   0.44121   0.01267  Uiso   1.00
N16    N     0.33601   0.75500   0.59259   0.01267  Uiso   1.00
N17    N     0.00218   0.41621   0.93681   0.01267  Uiso   1.00
N18    N     0.32802   0.46671   0.57847   0.01267  Uiso   1.00
N19    N     0.65131   0.32601   0.08328   0.01267  Uiso   1.00
N20    N     0.22410   0.55380   0.72850   0.01267  Uiso   1.00
N21    N     0.40297   0.26061   0.43522   0.01267  Uiso   1.00
N22    N     0.35839   0.32437   0.08764   0.01267  Uiso   1.00
N23    N     0.35778   0.13752   0.52670   0.01267  Uiso   1.00
N24    N     0.17492   0.42164   0.94044   0.01267  Uiso   1.00
Ag5    Ag    0.93358   0.61355   0.36789   0.01267  Uiso   1.00
Ag6    Ag    0.70715   0.92875   0.86730   0.01267  Uiso   1.00
H49    H     0.89070   0.64880   0.49450   0.01267  Uiso   1.00
H50    H     0.10930   0.66970   0.26360   0.01267  Uiso   1.00
H51    H     0.96580   0.95780   0.83940   0.01267  Uiso   1.00
H52    H     0.86820   0.85880   0.03680   0.01267  Uiso   1.00
H53    H     0.84100   0.14290   0.65630   0.01267  Uiso   1.00
H54    H     0.90000   0.97060   0.39400   0.01267  Uiso   1.00
H55    H     0.55270   0.85400   0.00050   0.01267  Uiso   1.00
H56    H     0.75370   0.89210   0.98500   0.01267  Uiso   1.00
H57    H     0.95730   0.23690   0.39020   0.01267  Uiso   1.00
H58    H     0.17740   0.73780   0.16520   0.01267  Uiso   1.00
H59    H     0.08990   0.93490   0.88620   0.01267  Uiso   1.00
H60    H     0.85160   0.73310   0.25990   0.01267  Uiso   1.00
H61    H     0.92220   0.84520   0.34880   0.01267  Uiso   1.00
H62    H     0.38390   0.83510   0.04980   0.01267  Uiso   1.00
H63    H     0.80130   0.10360   0.75510   0.01267  Uiso   1.00
H64    H     0.91180   0.80330   0.16130   0.01267  Uiso   1.00
H65    H     0.82020   0.84100   0.66860   0.01267  Uiso   1.00
H66    H     0.97420   0.40630   0.34470   0.01267  Uiso   1.00
H67    H     0.83390   0.28760   0.54030   0.01267  Uiso   1.00
H68    H     0.85100   0.45290   0.48990   0.01267  Uiso   1.00
H69    H     0.77850   0.81090   0.76700   0.01267  Uiso   1.00
H70    H     0.33400   0.94190   0.89650   0.01267  Uiso   1.00
H71    H     0.50360   0.95640   0.85220   0.01267  Uiso   1.00
H72    H     0.86370   0.76780   0.54510   0.01267  Uiso   1.00
C73    C     0.91134   0.82990   0.38856   0.01267  Uiso   1.00
C74    C     0.89230   0.71430   0.47420   0.01267  Uiso   1.00
C75    C     0.82680   0.07430   0.67810   0.01267  Uiso   1.00
C76    C     0.09393   0.82160   0.08827   0.01267  Uiso   1.00
C77    C     0.99171   0.89290   0.96739   0.01267  Uiso   1.00
C78    C     0.84884   0.01690   0.58766   0.01267  Uiso   1.00
C79    C     0.22668   0.86860   0.00712   0.01267  Uiso   1.00
C80    C     0.89183   0.24270   0.47047   0.01267  Uiso   1.00
C81    C     0.91780   0.73440   0.24060   0.01267  Uiso   1.00
C82    C     0.05190   0.77920   0.15210   0.01267  Uiso   1.00
C83    C     0.87240   0.40880   0.46960   0.01267  Uiso   1.00
C84    C     0.86135   0.30950   0.50035   0.01267  Uiso   1.00
C85    C     0.87707   0.78580   0.50513   0.01267  Uiso   1.00
C86    C     0.94410   0.38130   0.38440   0.01267  Uiso   1.00
C87    C     0.02152   0.92430   0.90718   0.01267  Uiso   1.00
C88    C     0.88246   0.88570   0.47464   0.01267  Uiso   1.00
C89    C     0.11130   0.73800   0.18350   0.01267  Uiso   1.00
C90    C     0.89818   0.90600   0.41542   0.01267  Uiso   1.00
C91    C     0.87852   0.13310   0.50258   0.01267  Uiso   1.00
C92    C     0.79010   0.87810   0.74440   0.01267  Uiso   1.00
C93    C     0.33871   0.88550   0.97799   0.01267  Uiso   1.00
C94    C     0.89025   0.88010   0.99665   0.01267  Uiso   1.00
C95    C     0.06950   0.69720   0.24270   0.01267  Uiso   1.00
C96    C     0.94670   0.93920   0.87950   0.01267  Uiso   1.00
C97    C     0.93496   0.27950   0.41134   0.01267  Uiso   1.00
C98    C     0.80300   0.04980   0.73760   0.01267  Uiso   1.00
C99    C     0.37675   0.92300   0.91845   0.01267  Uiso   1.00
C100   C     0.47925   0.93180   0.89215   0.01267  Uiso   1.00
C101   C     0.87267   0.96690   0.50523   0.01267  Uiso   1.00
C102   C     0.50790   0.87130   0.97960   0.01267  Uiso   1.00
C103   C     0.82908   0.99390   0.65142   0.01267  Uiso   1.00
C104   C     0.06571   0.87210   0.00139   0.01267  Uiso   1.00
C105   C     0.95330   0.77680   0.18130   0.01267  Uiso   1.00
C106   C     0.81420   0.89500   0.68520   0.01267  Uiso   1.00
C107   C     0.82160   0.89960   0.96500   0.01267  Uiso   1.00
C108   C     0.40640   0.85940   0.00980   0.01267  Uiso   1.00
N25    N     0.85302   0.93899   0.56319   0.01267  Uiso   1.00
N26    N     0.91201   0.44603   0.41236   0.01267  Uiso   1.00
N27    N     0.86208   0.11536   0.55956   0.01267  Uiso   1.00
N28    N     0.16422   0.88448   0.97330   0.01267  Uiso   1.00
N29    N     0.84759   0.92860   0.90741   0.01267  Uiso   1.00
N30    N     0.78230   0.95260   0.77150   0.01267  Uiso   1.00
N31    N     0.97494   0.69510   0.27176   0.01267  Uiso   1.00
N32    N     0.19583   0.83819   0.06478   0.01267  Uiso   1.00
N33    N     0.02616   0.84005   0.05879   0.01267  Uiso   1.00
N34    N     0.88563   0.06280   0.47277   0.01267  Uiso   1.00
N35    N     0.90929   0.73459   0.41672   0.01267  Uiso   1.00
N36    N     0.54518   0.90649   0.92153   0.01267  Uiso   1.00
Ag7    Ag    0.06642   0.38645   0.63211   0.01267  Uiso   1.00
Ag8    Ag    0.29285   0.07125   0.13270   0.01267  Uiso   1.00
H73    H     0.14900   0.54710   0.51010   0.01267  Uiso   1.00
H74    H     0.14840   0.26690   0.74010   0.01267  Uiso   1.00
H75    H     0.15900   0.85710   0.34370   0.01267  Uiso   1.00
H76    H     0.49640   0.04360   0.14780   0.01267  Uiso   1.00
H77    H     0.44730   0.14600   0.99950   0.01267  Uiso   1.00
H78    H     0.91010   0.06510   0.11380   0.01267  Uiso   1.00
H79    H     0.89070   0.33030   0.73640   0.01267  Uiso   1.00
H80    H     0.10930   0.35120   0.50550   0.01267  Uiso   1.00
H81    H     0.61610   0.16490   0.95020   0.01267  Uiso   1.00
H82    H     0.13180   0.14120   0.96320   0.01267  Uiso   1.00
H83    H     0.66600   0.05810   0.10350   0.01267  Uiso   1.00
H84    H     0.22150   0.18910   0.23300   0.01267  Uiso   1.00
H85    H     0.04270   0.76310   0.60980   0.01267  Uiso   1.00
H86    H     0.08820   0.19670   0.83870   0.01267  Uiso   1.00
H87    H     0.19870   0.89640   0.24490   0.01267  Uiso   1.00
H88    H     0.02580   0.59370   0.65530   0.01267  Uiso   1.00
H89    H     0.03420   0.04220   0.16060   0.01267  Uiso   1.00
H90    H     0.82260   0.26220   0.83480   0.01267  Uiso   1.00
H91    H     0.17980   0.15900   0.33140   0.01267  Uiso   1.00
H92    H     0.10000   0.02940   0.60600   0.01267  Uiso   1.00
H93    H     0.07780   0.15480   0.65120   0.01267  Uiso   1.00
H94    H     0.13630   0.23220   0.45490   0.01267  Uiso   1.00
H95    H     0.16610   0.71240   0.45970   0.01267  Uiso   1.00
H96    H     0.24630   0.10790   0.01500   0.01267  Uiso   1.00
C109   C     0.08866   0.17010   0.61144   0.01267  Uiso   1.00
C110   C     0.52075   0.06820   0.10785   0.01267  Uiso   1.00
C111   C     0.62325   0.07700   0.08155   0.01267  Uiso   1.00
C112   C     0.17840   0.10040   0.03500   0.01267  Uiso   1.00
C113   C     0.17320   0.92570   0.32190   0.01267  Uiso   1.00
C114   C     0.12760   0.59120   0.53040   0.01267  Uiso   1.00
C115   C     0.18580   0.10500   0.31480   0.01267  Uiso   1.00
C116   C     0.12733   0.03310   0.49477   0.01267  Uiso   1.00
C117   C     0.13865   0.69050   0.49965   0.01267  Uiso   1.00
C118   C     0.12293   0.21420   0.49487   0.01267  Uiso   1.00
C119   C     0.20990   0.12190   0.25560   0.01267  Uiso   1.00
C120   C     0.49210   0.12870   0.02040   0.01267  Uiso   1.00
C121   C     0.04670   0.22320   0.81870   0.01267  Uiso   1.00
C122   C     0.06504   0.72050   0.58866   0.01267  Uiso   1.00
C123   C     0.00829   0.10710   0.03261   0.01267  Uiso   1.00
C124   C     0.10182   0.09400   0.58458   0.01267  Uiso   1.00
C125   C     0.17092   0.00610   0.34858   0.01267  Uiso   1.00
C126   C     0.59360   0.14060   0.99020   0.01267  Uiso   1.00
C127   C     0.93050   0.30280   0.75730   0.01267  Uiso   1.00
C128   C     0.94810   0.22080   0.84790   0.01267  Uiso   1.00
C129   C     0.15116   0.98310   0.41234   0.01267  Uiso   1.00
C130   C     0.77332   0.13140   0.99288   0.01267  Uiso   1.00
C131   C     0.11754   0.11430   0.52536   0.01267  Uiso   1.00
C132   C     0.05590   0.61870   0.61560   0.01267  Uiso   1.00
C133   C     0.08220   0.26560   0.75940   0.01267  Uiso   1.00
C134   C     0.66129   0.11450   0.02201   0.01267  Uiso   1.00
C135   C     0.93429   0.12790   0.99861   0.01267  Uiso   1.00
C136   C     0.05330   0.06080   0.12050   0.01267  Uiso   1.00
C137   C     0.90607   0.17840   0.91173   0.01267  Uiso   1.00
C138   C     0.19700   0.95020   0.26240   0.01267  Uiso   1.00
C139   C     0.10817   0.75730   0.52953   0.01267  Uiso   1.00
C140   C     0.10975   0.11990   0.00335   0.01267  Uiso   1.00
C141   C     0.97848   0.07570   0.09282   0.01267  Uiso   1.00
C142   C     0.88870   0.26200   0.81650   0.01267  Uiso   1.00
C143   C     0.10770   0.28570   0.52580   0.01267  Uiso   1.00
C144   C     0.12148   0.86690   0.49742   0.01267  Uiso   1.00
N37    N     0.83578   0.11552   0.02670   0.01267  Uiso   1.00
N38    N     0.97384   0.15995   0.94121   0.01267  Uiso   1.00
N39    N     0.08799   0.55397   0.58764   0.01267  Uiso   1.00
N40    N     0.21770   0.04740   0.22850   0.01267  Uiso   1.00
N41    N     0.15241   0.07140   0.09259   0.01267  Uiso   1.00
N42    N     0.80417   0.16181   0.93522   0.01267  Uiso   1.00
N43    N     0.13792   0.88464   0.44044   0.01267  Uiso   1.00
N44    N     0.11437   0.93720   0.52723   0.01267  Uiso   1.00
N45    N     0.02506   0.30490   0.72824   0.01267  Uiso   1.00
N46    N     0.45482   0.09351   0.07847   0.01267  Uiso   1.00
N47    N     0.09071   0.26541   0.58328   0.01267  Uiso   1.00
N48    N     0.14698   0.06101   0.43681   0.01267  Uiso   1.00
