data_image0
_cell_length_a       22.0639
_cell_length_b       16.3382
_cell_length_c       25.617
_cell_angle_alpha    90
_cell_angle_beta     115.311
_cell_angle_gamma    90

_symmetry_space_group_name_H-M    "P 1"
_symmetry_int_tables_number       1

loop_
  _symmetry_equiv_pos_as_xyz
  'x, y, z'

loop_
  _atom_site_label
  _atom_site_occupancy
  _atom_site_fract_x
  _atom_site_fract_y
  _atom_site_fract_z
  _atom_site_thermal_displace_type
  _atom_site_B_iso_or_equiv
  _atom_site_type_symbol
  Ag1      1.0000 0.84407  0.45744  0.36783  Biso   1.000  Ag
  Ag2      1.0000 0.32296  0.25214  0.86725  Biso   1.000  Ag
  C1       1.0000 0.12370  0.25700  0.50240  Biso   1.000  C
  C2       1.0000 0.77800  0.63770  0.00920  Biso   1.000  C
  H1       1.0000 0.79870  0.63410  0.04930  Biso   1.000  H
  C3       1.0000 0.23510  0.06500  0.38830  Biso   1.000  C
  H2       1.0000 0.21320  0.05830  0.34850  Biso   1.000  H
  C4       1.0000 0.59780  0.47000  0.00100  Biso   1.000  C
  C5       1.0000 0.29810  0.08420  0.50490  Biso   1.000  C
  H3       1.0000 0.32040  0.08860  0.54490  Biso   1.000  H
  C6       1.0000 0.03310  0.31220  0.41110  Biso   1.000  C
  H4       1.0000 0.05450  0.29080  0.38990  Biso   1.000  H
  C7       1.0000 0.44370  0.34300  0.96490  Biso   1.000  C
  H5       1.0000 0.42360  0.31480  0.98480  Biso   1.000  H
  C8       1.0000 0.50340  0.38350  0.99650  Biso   1.000  C
  H6       1.0000 0.52300  0.38210  0.03670  Biso   1.000  H
  C9       1.0000 0.06000  0.30220  0.47020  Biso   1.000  C
  C10      1.0000 0.20990  0.22690  0.58770  Biso   1.000  C
  C11      1.0000 0.67890  0.45610  0.18130  Biso   1.000  C
  H7       1.0000 0.63480  0.43850  0.16140  Biso   1.000  H
  C12      1.0000 0.71980  0.65200  0.89210  Biso   1.000  C
  H8       1.0000 0.69980  0.65630  0.85200  Biso   1.000  H
  C13      1.0000 0.68250  0.55180  0.00680  Biso   1.000  C
  C14      1.0000 0.53340  0.42620  0.96710  Biso   1.000  C
  C15      1.0000 0.68050  0.50210  0.08830  Biso   1.000  C
  C16      1.0000 0.24360  0.23740  0.65170  Biso   1.000  C
  C17      1.0000 0.02610  0.33560  0.50000  Biso   1.000  C
  H9       1.0000 0.04340  0.33090  0.53990  Biso   1.000  H
  C18      1.0000 0.71550  0.60110  0.97760  Biso   1.000  C
  C19      1.0000 0.32590  0.04090  0.47410  Biso   1.000  C
  H10      1.0000 0.36810  0.01770  0.49430  Biso   1.000  H
  C20      1.0000 0.68570  0.60960  0.91850  Biso   1.000  C
  H11      1.0000 0.64360  0.58740  0.89660  Biso   1.000  H
  C21      1.0000 0.80850  0.67970  0.97940  Biso   1.000  C
  H12      1.0000 0.85010  0.70360  0.00050  Biso   1.000  H
  C22      1.0000 0.97350  0.35470  0.38410  Biso   1.000  C
  H13      1.0000 0.95640  0.36290  0.34450  Biso   1.000  H
  C23      1.0000 0.23590  0.12100  0.47450  Biso   1.000  C
  C24      1.0000 0.96680  0.37540  0.46960  Biso   1.000  C
  H14      1.0000 0.94430  0.39730  0.48990  Biso   1.000  H
  C25      1.0000 0.20540  0.17210  0.50510  Biso   1.000  C
  C26      1.0000 0.20390  0.11010  0.41520  Biso   1.000  C
  H15      1.0000 0.16180  0.13290  0.39390  Biso   1.000  H
  C27      1.0000 0.80760  0.50490  0.24250  Biso   1.000  C
  H16      1.0000 0.85190  0.52150  0.26320  Biso   1.000  H
  C28      1.0000 0.50240  0.42690  0.90720  Biso   1.000  C
  H17      1.0000 0.52050  0.45630  0.88620  Biso   1.000  H
  C29      1.0000 0.44380  0.38300  0.87960  Biso   1.000  C
  H18      1.0000 0.42430  0.38150  0.83950  Biso   1.000  H
  C30      1.0000 0.21570  0.28910  0.67820  Biso   1.000  C
  H19      1.0000 0.17750  0.31930  0.65640  Biso   1.000  H
  C31      1.0000 0.30230  0.19750  0.68490  Biso   1.000  C
  H20      1.0000 0.32380  0.16500  0.66810  Biso   1.000  H
  C32      1.0000 0.32830  0.20740  0.74430  Biso   1.000  C
  H21      1.0000 0.36780  0.17980  0.76690  Biso   1.000  H
  C33      1.0000 0.71230  0.49240  0.15200  Biso   1.000  C
  C34      1.0000 0.77810  0.51670  0.18320  Biso   1.000  C
  H22      1.0000 0.80210  0.54050  0.16480  Biso   1.000  H
  C35      1.0000 0.71230  0.44670  0.24060  Biso   1.000  C
  H23      1.0000 0.68960  0.42250  0.26000  Biso   1.000  H
  C36      1.0000 0.24540  0.29510  0.73740  Biso   1.000  C
  H24      1.0000 0.22610  0.32970  0.75490  Biso   1.000  H
  N1       1.0000 0.93930  0.38470  0.41222  Biso   1.000  N
  N2       1.0000 0.29550  0.03050  0.41677  Biso   1.000  N
  N3       1.0000 0.30080  0.25360  0.77114  Biso   1.000  N
  N4       1.0000 0.15310  0.26820  0.55928  Biso   1.000  N
  N5       1.0000 0.14800  0.21010  0.47260  Biso   1.000  N
  N6       1.0000 0.23830  0.17780  0.56306  Biso   1.000  N
  N7       1.0000 0.41340  0.34230  0.90725  Biso   1.000  N
  N8       1.0000 0.78020  0.68700  0.92163  Biso   1.000  N
  N9       1.0000 0.77610  0.47110  0.27159  Biso   1.000  N
  N10      1.0000 0.62280  0.46270  0.05881  Biso   1.000  N
  N11      1.0000 0.62633  0.51130  0.97304  Biso   1.000  N
  N12      1.0000 0.71150  0.54970  0.06481  Biso   1.000  N
  Ag3      1.0000 0.34407  0.95744  0.36783  Biso   1.000  Ag
  Ag4      1.0000 0.82296  0.75214  0.86725  Biso   1.000  Ag
  C37      1.0000 0.62370  0.75700  0.50240  Biso   1.000  C
  C38      1.0000 0.27800  0.13770  0.00920  Biso   1.000  C
  H25      1.0000 0.29870  0.13410  0.04930  Biso   1.000  H
  C39      1.0000 0.73510  0.56500  0.38830  Biso   1.000  C
  H26      1.0000 0.71320  0.55830  0.34850  Biso   1.000  H
  C40      1.0000 0.09780  0.97000  0.00100  Biso   1.000  C
  C41      1.0000 0.79810  0.58420  0.50490  Biso   1.000  C
  H27      1.0000 0.82040  0.58860  0.54490  Biso   1.000  H
  C42      1.0000 0.53310  0.81220  0.41110  Biso   1.000  C
  H28      1.0000 0.55450  0.79080  0.38990  Biso   1.000  H
  C43      1.0000 0.94370  0.84300  0.96490  Biso   1.000  C
  H29      1.0000 0.92360  0.81480  0.98480  Biso   1.000  H
  C44      1.0000 0.00340  0.88350  0.99650  Biso   1.000  C
  H30      1.0000 0.02300  0.88210  0.03670  Biso   1.000  H
  C45      1.0000 0.56000  0.80220  0.47020  Biso   1.000  C
  C46      1.0000 0.70990  0.72690  0.58770  Biso   1.000  C
  C47      1.0000 0.17890  0.95610  0.18130  Biso   1.000  C
  H31      1.0000 0.13480  0.93850  0.16140  Biso   1.000  H
  C48      1.0000 0.21980  0.15200  0.89210  Biso   1.000  C
  H32      1.0000 0.19980  0.15630  0.85200  Biso   1.000  H
  C49      1.0000 0.18250  0.05180  0.00680  Biso   1.000  C
  C50      1.0000 0.03340  0.92620  0.96710  Biso   1.000  C
  C51      1.0000 0.18050  0.00210  0.08830  Biso   1.000  C
  C52      1.0000 0.74360  0.73740  0.65170  Biso   1.000  C
  C53      1.0000 0.52610  0.83560  0.50000  Biso   1.000  C
  H33      1.0000 0.54340  0.83090  0.53990  Biso   1.000  H
  C54      1.0000 0.21550  0.10110  0.97760  Biso   1.000  C
  C55      1.0000 0.82590  0.54090  0.47410  Biso   1.000  C
  H34      1.0000 0.86810  0.51770  0.49430  Biso   1.000  H
  C56      1.0000 0.18570  0.10960  0.91850  Biso   1.000  C
  H35      1.0000 0.14360  0.08740  0.89660  Biso   1.000  H
  C57      1.0000 0.30850  0.17970  0.97940  Biso   1.000  C
  H36      1.0000 0.35010  0.20360  0.00050  Biso   1.000  H
  C58      1.0000 0.47350  0.85470  0.38410  Biso   1.000  C
  H37      1.0000 0.45640  0.86290  0.34450  Biso   1.000  H
  C59      1.0000 0.73590  0.62100  0.47450  Biso   1.000  C
  C60      1.0000 0.46680  0.87540  0.46960  Biso   1.000  C
  H38      1.0000 0.44430  0.89730  0.48990  Biso   1.000  H
  C61      1.0000 0.70540  0.67210  0.50510  Biso   1.000  C
  C62      1.0000 0.70390  0.61010  0.41520  Biso   1.000  C
  H39      1.0000 0.66180  0.63290  0.39390  Biso   1.000  H
  C63      1.0000 0.30760  0.00490  0.24250  Biso   1.000  C
  H40      1.0000 0.35190  0.02150  0.26320  Biso   1.000  H
  C64      1.0000 0.00240  0.92690  0.90720  Biso   1.000  C
  H41      1.0000 0.02050  0.95630  0.88620  Biso   1.000  H
  C65      1.0000 0.94380  0.88300  0.87960  Biso   1.000  C
  H42      1.0000 0.92430  0.88150  0.83950  Biso   1.000  H
  C66      1.0000 0.71570  0.78910  0.67820  Biso   1.000  C
  H43      1.0000 0.67750  0.81930  0.65640  Biso   1.000  H
  C67      1.0000 0.80230  0.69750  0.68490  Biso   1.000  C
  H44      1.0000 0.82380  0.66500  0.66810  Biso   1.000  H
  C68      1.0000 0.82830  0.70740  0.74430  Biso   1.000  C
  H45      1.0000 0.86780  0.67980  0.76690  Biso   1.000  H
  C69      1.0000 0.21230  0.99240  0.15200  Biso   1.000  C
  C70      1.0000 0.27810  0.01670  0.18320  Biso   1.000  C
  H46      1.0000 0.30210  0.04050  0.16480  Biso   1.000  H
  C71      1.0000 0.21230  0.94670  0.24060  Biso   1.000  C
  H47      1.0000 0.18960  0.92250  0.26000  Biso   1.000  H
  C72      1.0000 0.74540  0.79510  0.73740  Biso   1.000  C
  H48      1.0000 0.72610  0.82970  0.75490  Biso   1.000  H
  N13      1.0000 0.43930  0.88470  0.41222  Biso   1.000  N
  N14      1.0000 0.79550  0.53050  0.41677  Biso   1.000  N
  N15      1.0000 0.80080  0.75360  0.77114  Biso   1.000  N
  N16      1.0000 0.65310  0.76820  0.55928  Biso   1.000  N
  N17      1.0000 0.64800  0.71010  0.47260  Biso   1.000  N
  N18      1.0000 0.73830  0.67780  0.56306  Biso   1.000  N
  N19      1.0000 0.91340  0.84230  0.90725  Biso   1.000  N
  N20      1.0000 0.28020  0.18700  0.92163  Biso   1.000  N
  N21      1.0000 0.27610  0.97110  0.27159  Biso   1.000  N
  N22      1.0000 0.12280  0.96270  0.05881  Biso   1.000  N
  N23      1.0000 0.12633  0.01130  0.97304  Biso   1.000  N
  N24      1.0000 0.21150  0.04970  0.06481  Biso   1.000  N
  Ag5      1.0000 0.15593  0.45744  0.13217  Biso   1.000  Ag
  Ag6      1.0000 0.67704  0.25214  0.63275  Biso   1.000  Ag
  C73      1.0000 0.87630  0.25700  0.99760  Biso   1.000  C
  C74      1.0000 0.22200  0.63770  0.49080  Biso   1.000  C
  H49      1.0000 0.20130  0.63410  0.45070  Biso   1.000  H
  C75      1.0000 0.76490  0.06500  0.11170  Biso   1.000  C
  H50      1.0000 0.78680  0.05830  0.15150  Biso   1.000  H
  C76      1.0000 0.40220  0.47000  0.49900  Biso   1.000  C
  C77      1.0000 0.70190  0.08420  0.99510  Biso   1.000  C
  H51      1.0000 0.67960  0.08860  0.95510  Biso   1.000  H
  C78      1.0000 0.96690  0.31220  0.08890  Biso   1.000  C
  H52      1.0000 0.94550  0.29080  0.11010  Biso   1.000  H
  C79      1.0000 0.55630  0.34300  0.53510  Biso   1.000  C
  H53      1.0000 0.57640  0.31480  0.51520  Biso   1.000  H
  C80      1.0000 0.49660  0.38350  0.50350  Biso   1.000  C
  H54      1.0000 0.47700  0.38210  0.46330  Biso   1.000  H
  C81      1.0000 0.94000  0.30220  0.02980  Biso   1.000  C
  C82      1.0000 0.79010  0.22690  0.91230  Biso   1.000  C
  C83      1.0000 0.32110  0.45610  0.31870  Biso   1.000  C
  H55      1.0000 0.36520  0.43850  0.33860  Biso   1.000  H
  C84      1.0000 0.28020  0.65200  0.60790  Biso   1.000  C
  H56      1.0000 0.30020  0.65630  0.64800  Biso   1.000  H
  C85      1.0000 0.31750  0.55180  0.49320  Biso   1.000  C
  C86      1.0000 0.46660  0.42620  0.53290  Biso   1.000  C
  C87      1.0000 0.31950  0.50210  0.41170  Biso   1.000  C
  C88      1.0000 0.75640  0.23740  0.84830  Biso   1.000  C
  C89      1.0000 0.97390  0.33560  0.00000  Biso   1.000  C
  H57      1.0000 0.95660  0.33090  0.96010  Biso   1.000  H
  C90      1.0000 0.28450  0.60110  0.52240  Biso   1.000  C
  C91      1.0000 0.67410  0.04090  0.02590  Biso   1.000  C
  H58      1.0000 0.63190  0.01770  0.00570  Biso   1.000  H
  C92      1.0000 0.31430  0.60960  0.58150  Biso   1.000  C
  H59      1.0000 0.35640  0.58740  0.60340  Biso   1.000  H
  C93      1.0000 0.19150  0.67970  0.52060  Biso   1.000  C
  H60      1.0000 0.14990  0.70360  0.49950  Biso   1.000  H
  C94      1.0000 0.02650  0.35470  0.11590  Biso   1.000  C
  H61      1.0000 0.04360  0.36290  0.15550  Biso   1.000  H
  C95      1.0000 0.76410  0.12100  0.02550  Biso   1.000  C
  C96      1.0000 0.03320  0.37540  0.03040  Biso   1.000  C
  H62      1.0000 0.05570  0.39730  0.01010  Biso   1.000  H
  C97      1.0000 0.79460  0.17210  0.99490  Biso   1.000  C
  C98      1.0000 0.79610  0.11010  0.08480  Biso   1.000  C
  H63      1.0000 0.83820  0.13290  0.10610  Biso   1.000  H
  C99      1.0000 0.19240  0.50490  0.25750  Biso   1.000  C
  H64      1.0000 0.14810  0.52150  0.23680  Biso   1.000  H
  C100     1.0000 0.49760  0.42690  0.59280  Biso   1.000  C
  H65      1.0000 0.47950  0.45630  0.61380  Biso   1.000  H
  C101     1.0000 0.55620  0.38300  0.62040  Biso   1.000  C
  H66      1.0000 0.57570  0.38150  0.66050  Biso   1.000  H
  C102     1.0000 0.78430  0.28910  0.82180  Biso   1.000  C
  H67      1.0000 0.82250  0.31930  0.84360  Biso   1.000  H
  C103     1.0000 0.69770  0.19750  0.81510  Biso   1.000  C
  H68      1.0000 0.67620  0.16500  0.83190  Biso   1.000  H
  C104     1.0000 0.67170  0.20740  0.75570  Biso   1.000  C
  H69      1.0000 0.63220  0.17980  0.73310  Biso   1.000  H
  C105     1.0000 0.28770  0.49240  0.34800  Biso   1.000  C
  C106     1.0000 0.22190  0.51670  0.31680  Biso   1.000  C
  H70      1.0000 0.19790  0.54050  0.33520  Biso   1.000  H
  C107     1.0000 0.28770  0.44670  0.25940  Biso   1.000  C
  H71      1.0000 0.31040  0.42250  0.24000  Biso   1.000  H
  C108     1.0000 0.75460  0.29510  0.76260  Biso   1.000  C
  H72      1.0000 0.77390  0.32970  0.74510  Biso   1.000  H
  N25      1.0000 0.06070  0.38470  0.08778  Biso   1.000  N
  N26      1.0000 0.70450  0.03050  0.08323  Biso   1.000  N
  N27      1.0000 0.69920  0.25360  0.72886  Biso   1.000  N
  N28      1.0000 0.84690  0.26820  0.94072  Biso   1.000  N
  N29      1.0000 0.85200  0.21010  0.02740  Biso   1.000  N
  N30      1.0000 0.76170  0.17780  0.93694  Biso   1.000  N
  N31      1.0000 0.58660  0.34230  0.59275  Biso   1.000  N
  N32      1.0000 0.21980  0.68700  0.57837  Biso   1.000  N
  N33      1.0000 0.22390  0.47110  0.22841  Biso   1.000  N
  N34      1.0000 0.37720  0.46270  0.44119  Biso   1.000  N
  N35      1.0000 0.37367  0.51130  0.52696  Biso   1.000  N
  N36      1.0000 0.28850  0.54970  0.43519  Biso   1.000  N
  Ag7      1.0000 0.65593  0.95744  0.13217  Biso   1.000  Ag
  Ag8      1.0000 0.17704  0.75214  0.63275  Biso   1.000  Ag
  C109     1.0000 0.37630  0.75700  0.99760  Biso   1.000  C
  C110     1.0000 0.72200  0.13770  0.49080  Biso   1.000  C
  H73      1.0000 0.70130  0.13410  0.45070  Biso   1.000  H
  C111     1.0000 0.26490  0.56500  0.11170  Biso   1.000  C
  H74      1.0000 0.28680  0.55830  0.15150  Biso   1.000  H
  C112     1.0000 0.90220  0.97000  0.49900  Biso   1.000  C
  C113     1.0000 0.20190  0.58420  0.99510  Biso   1.000  C
  H75      1.0000 0.17960  0.58860  0.95510  Biso   1.000  H
  C114     1.0000 0.46690  0.81220  0.08890  Biso   1.000  C
  H76      1.0000 0.44550  0.79080  0.11010  Biso   1.000  H
  C115     1.0000 0.05630  0.84300  0.53510  Biso   1.000  C
  H77      1.0000 0.07640  0.81480  0.51520  Biso   1.000  H
  C116     1.0000 0.99660  0.88350  0.50350  Biso   1.000  C
  H78      1.0000 0.97700  0.88210  0.46330  Biso   1.000  H
  C117     1.0000 0.44000  0.80220  0.02980  Biso   1.000  C
  C118     1.0000 0.29010  0.72690  0.91230  Biso   1.000  C
  C119     1.0000 0.82110  0.95610  0.31870  Biso   1.000  C
  H79      1.0000 0.86520  0.93850  0.33860  Biso   1.000  H
  C120     1.0000 0.78020  0.15200  0.60790  Biso   1.000  C
  H80      1.0000 0.80020  0.15630  0.64800  Biso   1.000  H
  C121     1.0000 0.81750  0.05180  0.49320  Biso   1.000  C
  C122     1.0000 0.96660  0.92620  0.53290  Biso   1.000  C
  C123     1.0000 0.81950  0.00210  0.41170  Biso   1.000  C
  C124     1.0000 0.25640  0.73740  0.84830  Biso   1.000  C
  C125     1.0000 0.47390  0.83560  0.00000  Biso   1.000  C
  H81      1.0000 0.45660  0.83090  0.96010  Biso   1.000  H
  C126     1.0000 0.78450  0.10110  0.52240  Biso   1.000  C
  C127     1.0000 0.17410  0.54090  0.02590  Biso   1.000  C
  H82      1.0000 0.13190  0.51770  0.00570  Biso   1.000  H
  C128     1.0000 0.81430  0.10960  0.58150  Biso   1.000  C
  H83      1.0000 0.85640  0.08740  0.60340  Biso   1.000  H
  C129     1.0000 0.69150  0.17970  0.52060  Biso   1.000  C
  H84      1.0000 0.64990  0.20360  0.49950  Biso   1.000  H
  C130     1.0000 0.52650  0.85470  0.11590  Biso   1.000  C
  H85      1.0000 0.54360  0.86290  0.15550  Biso   1.000  H
  C131     1.0000 0.26410  0.62100  0.02550  Biso   1.000  C
  C132     1.0000 0.53320  0.87540  0.03040  Biso   1.000  C
  H86      1.0000 0.55570  0.89730  0.01010  Biso   1.000  H
  C133     1.0000 0.29460  0.67210  0.99490  Biso   1.000  C
  C134     1.0000 0.29610  0.61010  0.08480  Biso   1.000  C
  H87      1.0000 0.33820  0.63290  0.10610  Biso   1.000  H
  C135     1.0000 0.69240  0.00490  0.25750  Biso   1.000  C
  H88      1.0000 0.64810  0.02150  0.23680  Biso   1.000  H
  C136     1.0000 0.99760  0.92690  0.59280  Biso   1.000  C
  H89      1.0000 0.97950  0.95630  0.61380  Biso   1.000  H
  C137     1.0000 0.05620  0.88300  0.62040  Biso   1.000  C
  H90      1.0000 0.07570  0.88150  0.66050  Biso   1.000  H
  C138     1.0000 0.28430  0.78910  0.82180  Biso   1.000  C
  H91      1.0000 0.32250  0.81930  0.84360  Biso   1.000  H
  C139     1.0000 0.19770  0.69750  0.81510  Biso   1.000  C
  H92      1.0000 0.17620  0.66500  0.83190  Biso   1.000  H
  C140     1.0000 0.17170  0.70740  0.75570  Biso   1.000  C
  H93      1.0000 0.13220  0.67980  0.73310  Biso   1.000  H
  C141     1.0000 0.78770  0.99240  0.34800  Biso   1.000  C
  C142     1.0000 0.72190  0.01670  0.31680  Biso   1.000  C
  H94      1.0000 0.69790  0.04050  0.33520  Biso   1.000  H
  C143     1.0000 0.78770  0.94670  0.25940  Biso   1.000  C
  H95      1.0000 0.81040  0.92250  0.24000  Biso   1.000  H
  C144     1.0000 0.25460  0.79510  0.76260  Biso   1.000  C
  H96      1.0000 0.27390  0.82970  0.74510  Biso   1.000  H
  N37      1.0000 0.56070  0.88470  0.08778  Biso   1.000  N
  N38      1.0000 0.20450  0.53050  0.08323  Biso   1.000  N
  N39      1.0000 0.19920  0.75360  0.72886  Biso   1.000  N
  N40      1.0000 0.34690  0.76820  0.94072  Biso   1.000  N
  N41      1.0000 0.35200  0.71010  0.02740  Biso   1.000  N
  N42      1.0000 0.26170  0.67780  0.93694  Biso   1.000  N
  N43      1.0000 0.08660  0.84230  0.59275  Biso   1.000  N
  N44      1.0000 0.71980  0.18700  0.57837  Biso   1.000  N
  N45      1.0000 0.72390  0.97110  0.22841  Biso   1.000  N
  N46      1.0000 0.87720  0.96270  0.44119  Biso   1.000  N
  N47      1.0000 0.87367  0.01130  0.52696  Biso   1.000  N
  N48      1.0000 0.78850  0.04970  0.43519  Biso   1.000  N
  Ag9      1.0000 0.15593  0.54256  0.63217  Biso   1.000  Ag
  Ag10     1.0000 0.67704  0.74786  0.13275  Biso   1.000  Ag
  C145     1.0000 0.87630  0.74300  0.49760  Biso   1.000  C
  C146     1.0000 0.22200  0.36230  0.99080  Biso   1.000  C
  H97      1.0000 0.20130  0.36590  0.95070  Biso   1.000  H
  C147     1.0000 0.76490  0.93500  0.61170  Biso   1.000  C
  H98      1.0000 0.78680  0.94170  0.65150  Biso   1.000  H
  C148     1.0000 0.40220  0.53000  0.99900  Biso   1.000  C
  C149     1.0000 0.70190  0.91580  0.49510  Biso   1.000  C
  H99      1.0000 0.67960  0.91140  0.45510  Biso   1.000  H
  C150     1.0000 0.96690  0.68780  0.58890  Biso   1.000  C
  H100     1.0000 0.94550  0.70920  0.61010  Biso   1.000  H
  C151     1.0000 0.55630  0.65700  0.03510  Biso   1.000  C
  H101     1.0000 0.57640  0.68520  0.01520  Biso   1.000  H
  C152     1.0000 0.49660  0.61650  0.00350  Biso   1.000  C
  H102     1.0000 0.47700  0.61790  0.96330  Biso   1.000  H
  C153     1.0000 0.94000  0.69780  0.52980  Biso   1.000  C
  C154     1.0000 0.79010  0.77310  0.41230  Biso   1.000  C
  C155     1.0000 0.32110  0.54390  0.81870  Biso   1.000  C
  H103     1.0000 0.36520  0.56150  0.83860  Biso   1.000  H
  C156     1.0000 0.28020  0.34800  0.10790  Biso   1.000  C
  H104     1.0000 0.30020  0.34370  0.14800  Biso   1.000  H
  C157     1.0000 0.31750  0.44820  0.99320  Biso   1.000  C
  C158     1.0000 0.46660  0.57380  0.03290  Biso   1.000  C
  C159     1.0000 0.31950  0.49790  0.91170  Biso   1.000  C
  C160     1.0000 0.75640  0.76260  0.34830  Biso   1.000  C
  C161     1.0000 0.97390  0.66440  0.50000  Biso   1.000  C
  H105     1.0000 0.95660  0.66910  0.46010  Biso   1.000  H
  C162     1.0000 0.28450  0.39890  0.02240  Biso   1.000  C
  C163     1.0000 0.67410  0.95910  0.52590  Biso   1.000  C
  H106     1.0000 0.63190  0.98230  0.50570  Biso   1.000  H
  C164     1.0000 0.31430  0.39040  0.08150  Biso   1.000  C
  H107     1.0000 0.35640  0.41260  0.10340  Biso   1.000  H
  C165     1.0000 0.19150  0.32030  0.02060  Biso   1.000  C
  H108     1.0000 0.14990  0.29640  0.99950  Biso   1.000  H
  C166     1.0000 0.02650  0.64530  0.61590  Biso   1.000  C
  H109     1.0000 0.04360  0.63710  0.65550  Biso   1.000  H
  C167     1.0000 0.76410  0.87900  0.52550  Biso   1.000  C
  C168     1.0000 0.03320  0.62460  0.53040  Biso   1.000  C
  H110     1.0000 0.05570  0.60270  0.51010  Biso   1.000  H
  C169     1.0000 0.79460  0.82790  0.49490  Biso   1.000  C
  C170     1.0000 0.79610  0.88990  0.58480  Biso   1.000  C
  H111     1.0000 0.83820  0.86710  0.60610  Biso   1.000  H
  C171     1.0000 0.19240  0.49510  0.75750  Biso   1.000  C
  H112     1.0000 0.14810  0.47850  0.73680  Biso   1.000  H
  C172     1.0000 0.49760  0.57310  0.09280  Biso   1.000  C
  H113     1.0000 0.47950  0.54370  0.11380  Biso   1.000  H
  C173     1.0000 0.55620  0.61700  0.12040  Biso   1.000  C
  H114     1.0000 0.57570  0.61850  0.16050  Biso   1.000  H
  C174     1.0000 0.78430  0.71090  0.32180  Biso   1.000  C
  H115     1.0000 0.82250  0.68070  0.34360  Biso   1.000  H
  C175     1.0000 0.69770  0.80250  0.31510  Biso   1.000  C
  H116     1.0000 0.67620  0.83500  0.33190  Biso   1.000  H
  C176     1.0000 0.67170  0.79260  0.25570  Biso   1.000  C
  H117     1.0000 0.63220  0.82020  0.23310  Biso   1.000  H
  C177     1.0000 0.28770  0.50760  0.84800  Biso   1.000  C
  C178     1.0000 0.22190  0.48330  0.81680  Biso   1.000  C
  H118     1.0000 0.19790  0.45950  0.83520  Biso   1.000  H
  C179     1.0000 0.28770  0.55330  0.75940  Biso   1.000  C
  H119     1.0000 0.31040  0.57750  0.74000  Biso   1.000  H
  C180     1.0000 0.75460  0.70490  0.26260  Biso   1.000  C
  H120     1.0000 0.77390  0.67030  0.24510  Biso   1.000  H
  N49      1.0000 0.06070  0.61530  0.58778  Biso   1.000  N
  N50      1.0000 0.70450  0.96950  0.58323  Biso   1.000  N
  N51      1.0000 0.69920  0.74640  0.22886  Biso   1.000  N
  N52      1.0000 0.84690  0.73180  0.44072  Biso   1.000  N
  N53      1.0000 0.85200  0.78990  0.52740  Biso   1.000  N
  N54      1.0000 0.76170  0.82220  0.43694  Biso   1.000  N
  N55      1.0000 0.58660  0.65770  0.09275  Biso   1.000  N
  N56      1.0000 0.21980  0.31300  0.07837  Biso   1.000  N
  N57      1.0000 0.22390  0.52890  0.72841  Biso   1.000  N
  N58      1.0000 0.37720  0.53730  0.94119  Biso   1.000  N
  N59      1.0000 0.37367  0.48870  0.02696  Biso   1.000  N
  N60      1.0000 0.28850  0.45030  0.93519  Biso   1.000  N
  Ag11     1.0000 0.65593  0.04256  0.63217  Biso   1.000  Ag
  Ag12     1.0000 0.17704  0.24786  0.13275  Biso   1.000  Ag
  C181     1.0000 0.37630  0.24300  0.49760  Biso   1.000  C
  C182     1.0000 0.72200  0.86230  0.99080  Biso   1.000  C
  H121     1.0000 0.70130  0.86590  0.95070  Biso   1.000  H
  C183     1.0000 0.26490  0.43500  0.61170  Biso   1.000  C
  H122     1.0000 0.28680  0.44170  0.65150  Biso   1.000  H
  C184     1.0000 0.90220  0.03000  0.99900  Biso   1.000  C
  C185     1.0000 0.20190  0.41580  0.49510  Biso   1.000  C
  H123     1.0000 0.17960  0.41140  0.45510  Biso   1.000  H
  C186     1.0000 0.46690  0.18780  0.58890  Biso   1.000  C
  H124     1.0000 0.44550  0.20920  0.61010  Biso   1.000  H
  C187     1.0000 0.05630  0.15700  0.03510  Biso   1.000  C
  H125     1.0000 0.07640  0.18520  0.01520  Biso   1.000  H
  C188     1.0000 0.99660  0.11650  0.00350  Biso   1.000  C
  H126     1.0000 0.97700  0.11790  0.96330  Biso   1.000  H
  C189     1.0000 0.44000  0.19780  0.52980  Biso   1.000  C
  C190     1.0000 0.29010  0.27310  0.41230  Biso   1.000  C
  C191     1.0000 0.82110  0.04390  0.81870  Biso   1.000  C
  H127     1.0000 0.86520  0.06150  0.83860  Biso   1.000  H
  C192     1.0000 0.78020  0.84800  0.10790  Biso   1.000  C
  H128     1.0000 0.80020  0.84370  0.14800  Biso   1.000  H
  C193     1.0000 0.81750  0.94820  0.99320  Biso   1.000  C
  C194     1.0000 0.96660  0.07380  0.03290  Biso   1.000  C
  C195     1.0000 0.81950  0.99790  0.91170  Biso   1.000  C
  C196     1.0000 0.25640  0.26260  0.34830  Biso   1.000  C
  C197     1.0000 0.47390  0.16440  0.50000  Biso   1.000  C
  H129     1.0000 0.45660  0.16910  0.46010  Biso   1.000  H
  C198     1.0000 0.78450  0.89890  0.02240  Biso   1.000  C
  C199     1.0000 0.17410  0.45910  0.52590  Biso   1.000  C
  H130     1.0000 0.13190  0.48230  0.50570  Biso   1.000  H
  C200     1.0000 0.81430  0.89040  0.08150  Biso   1.000  C
  H131     1.0000 0.85640  0.91260  0.10340  Biso   1.000  H
  C201     1.0000 0.69150  0.82030  0.02060  Biso   1.000  C
  H132     1.0000 0.64990  0.79640  0.99950  Biso   1.000  H
  C202     1.0000 0.52650  0.14530  0.61590  Biso   1.000  C
  H133     1.0000 0.54360  0.13710  0.65550  Biso   1.000  H
  C203     1.0000 0.26410  0.37900  0.52550  Biso   1.000  C
  C204     1.0000 0.53320  0.12460  0.53040  Biso   1.000  C
  H134     1.0000 0.55570  0.10270  0.51010  Biso   1.000  H
  C205     1.0000 0.29460  0.32790  0.49490  Biso   1.000  C
  C206     1.0000 0.29610  0.38990  0.58480  Biso   1.000  C
  H135     1.0000 0.33820  0.36710  0.60610  Biso   1.000  H
  C207     1.0000 0.69240  0.99510  0.75750  Biso   1.000  C
  H136     1.0000 0.64810  0.97850  0.73680  Biso   1.000  H
  C208     1.0000 0.99760  0.07310  0.09280  Biso   1.000  C
  H137     1.0000 0.97950  0.04370  0.11380  Biso   1.000  H
  C209     1.0000 0.05620  0.11700  0.12040  Biso   1.000  C
  H138     1.0000 0.07570  0.11850  0.16050  Biso   1.000  H
  C210     1.0000 0.28430  0.21090  0.32180  Biso   1.000  C
  H139     1.0000 0.32250  0.18070  0.34360  Biso   1.000  H
  C211     1.0000 0.19770  0.30250  0.31510  Biso   1.000  C
  H140     1.0000 0.17620  0.33500  0.33190  Biso   1.000  H
  C212     1.0000 0.17170  0.29260  0.25570  Biso   1.000  C
  H141     1.0000 0.13220  0.32020  0.23310  Biso   1.000  H
  C213     1.0000 0.78770  0.00760  0.84800  Biso   1.000  C
  C214     1.0000 0.72190  0.98330  0.81680  Biso   1.000  C
  H142     1.0000 0.69790  0.95950  0.83520  Biso   1.000  H
  C215     1.0000 0.78770  0.05330  0.75940  Biso   1.000  C
  H143     1.0000 0.81040  0.07750  0.74000  Biso   1.000  H
  C216     1.0000 0.25460  0.20490  0.26260  Biso   1.000  C
  H144     1.0000 0.27390  0.17030  0.24510  Biso   1.000  H
  N61      1.0000 0.56070  0.11530  0.58778  Biso   1.000  N
  N62      1.0000 0.20450  0.46950  0.58323  Biso   1.000  N
  N63      1.0000 0.19920  0.24640  0.22886  Biso   1.000  N
  N64      1.0000 0.34690  0.23180  0.44072  Biso   1.000  N
  N65      1.0000 0.35200  0.28990  0.52740  Biso   1.000  N
  N66      1.0000 0.26170  0.32220  0.43694  Biso   1.000  N
  N67      1.0000 0.08660  0.15770  0.09275  Biso   1.000  N
  N68      1.0000 0.71980  0.81300  0.07837  Biso   1.000  N
  N69      1.0000 0.72390  0.02890  0.72841  Biso   1.000  N
  N70      1.0000 0.87720  0.03730  0.94119  Biso   1.000  N
  N71      1.0000 0.87367  0.98870  0.02696  Biso   1.000  N
  N72      1.0000 0.78850  0.95030  0.93519  Biso   1.000  N
  Ag13     1.0000 0.84407  0.54256  0.86783  Biso   1.000  Ag
  Ag14     1.0000 0.32296  0.74786  0.36725  Biso   1.000  Ag
  C217     1.0000 0.12370  0.74300  0.00240  Biso   1.000  C
  C218     1.0000 0.77800  0.36230  0.50920  Biso   1.000  C
  H145     1.0000 0.79870  0.36590  0.54930  Biso   1.000  H
  C219     1.0000 0.23510  0.93500  0.88830  Biso   1.000  C
  H146     1.0000 0.21320  0.94170  0.84850  Biso   1.000  H
  C220     1.0000 0.59780  0.53000  0.50100  Biso   1.000  C
  C221     1.0000 0.29810  0.91580  0.00490  Biso   1.000  C
  H147     1.0000 0.32040  0.91140  0.04490  Biso   1.000  H
  C222     1.0000 0.03310  0.68780  0.91110  Biso   1.000  C
  H148     1.0000 0.05450  0.70920  0.88990  Biso   1.000  H
  C223     1.0000 0.44370  0.65700  0.46490  Biso   1.000  C
  H149     1.0000 0.42360  0.68520  0.48480  Biso   1.000  H
  C224     1.0000 0.50340  0.61650  0.49650  Biso   1.000  C
  H150     1.0000 0.52300  0.61790  0.53670  Biso   1.000  H
  C225     1.0000 0.06000  0.69780  0.97020  Biso   1.000  C
  C226     1.0000 0.20990  0.77310  0.08770  Biso   1.000  C
  C227     1.0000 0.67890  0.54390  0.68130  Biso   1.000  C
  H151     1.0000 0.63480  0.56150  0.66140  Biso   1.000  H
  C228     1.0000 0.71980  0.34800  0.39210  Biso   1.000  C
  H152     1.0000 0.69980  0.34370  0.35200  Biso   1.000  H
  C229     1.0000 0.68250  0.44820  0.50680  Biso   1.000  C
  C230     1.0000 0.53340  0.57380  0.46710  Biso   1.000  C
  C231     1.0000 0.68050  0.49790  0.58830  Biso   1.000  C
  C232     1.0000 0.24360  0.76260  0.15170  Biso   1.000  C
  C233     1.0000 0.02610  0.66440  0.00000  Biso   1.000  C
  H153     1.0000 0.04340  0.66910  0.03990  Biso   1.000  H
  C234     1.0000 0.71550  0.39890  0.47760  Biso   1.000  C
  C235     1.0000 0.32590  0.95910  0.97410  Biso   1.000  C
  H154     1.0000 0.36810  0.98230  0.99430  Biso   1.000  H
  C236     1.0000 0.68570  0.39040  0.41850  Biso   1.000  C
  H155     1.0000 0.64360  0.41260  0.39660  Biso   1.000  H
  C237     1.0000 0.80850  0.32030  0.47940  Biso   1.000  C
  H156     1.0000 0.85010  0.29640  0.50050  Biso   1.000  H
  C238     1.0000 0.97350  0.64530  0.88410  Biso   1.000  C
  H157     1.0000 0.95640  0.63710  0.84450  Biso   1.000  H
  C239     1.0000 0.23590  0.87900  0.97450  Biso   1.000  C
  C240     1.0000 0.96680  0.62460  0.96960  Biso   1.000  C
  H158     1.0000 0.94430  0.60270  0.98990  Biso   1.000  H
  C241     1.0000 0.20540  0.82790  0.00510  Biso   1.000  C
  C242     1.0000 0.20390  0.88990  0.91520  Biso   1.000  C
  H159     1.0000 0.16180  0.86710  0.89390  Biso   1.000  H
  C243     1.0000 0.80760  0.49510  0.74250  Biso   1.000  C
  H160     1.0000 0.85190  0.47850  0.76320  Biso   1.000  H
  C244     1.0000 0.50240  0.57310  0.40720  Biso   1.000  C
  H161     1.0000 0.52050  0.54370  0.38620  Biso   1.000  H
  C245     1.0000 0.44380  0.61700  0.37960  Biso   1.000  C
  H162     1.0000 0.42430  0.61850  0.33950  Biso   1.000  H
  C246     1.0000 0.21570  0.71090  0.17820  Biso   1.000  C
  H163     1.0000 0.17750  0.68070  0.15640  Biso   1.000  H
  C247     1.0000 0.30230  0.80250  0.18490  Biso   1.000  C
  H164     1.0000 0.32380  0.83500  0.16810  Biso   1.000  H
  C248     1.0000 0.32830  0.79260  0.24430  Biso   1.000  C
  H165     1.0000 0.36780  0.82020  0.26690  Biso   1.000  H
  C249     1.0000 0.71230  0.50760  0.65200  Biso   1.000  C
  C250     1.0000 0.77810  0.48330  0.68320  Biso   1.000  C
  H166     1.0000 0.80210  0.45950  0.66480  Biso   1.000  H
  C251     1.0000 0.71230  0.55330  0.74060  Biso   1.000  C
  H167     1.0000 0.68960  0.57750  0.76000  Biso   1.000  H
  C252     1.0000 0.24540  0.70490  0.23740  Biso   1.000  C
  H168     1.0000 0.22610  0.67030  0.25490  Biso   1.000  H
  N73      1.0000 0.93930  0.61530  0.91222  Biso   1.000  N
  N74      1.0000 0.29550  0.96950  0.91677  Biso   1.000  N
  N75      1.0000 0.30080  0.74640  0.27114  Biso   1.000  N
  N76      1.0000 0.15310  0.73180  0.05928  Biso   1.000  N
  N77      1.0000 0.14800  0.78990  0.97260  Biso   1.000  N
  N78      1.0000 0.23830  0.82220  0.06306  Biso   1.000  N
  N79      1.0000 0.41340  0.65770  0.40725  Biso   1.000  N
  N80      1.0000 0.78020  0.31300  0.42163  Biso   1.000  N
  N81      1.0000 0.77610  0.52890  0.77159  Biso   1.000  N
  N82      1.0000 0.62280  0.53730  0.55881  Biso   1.000  N
  N83      1.0000 0.62633  0.48870  0.47304  Biso   1.000  N
  N84      1.0000 0.71150  0.45030  0.56481  Biso   1.000  N
  Ag15     1.0000 0.34407  0.04256  0.86783  Biso   1.000  Ag
  Ag16     1.0000 0.82296  0.24786  0.36725  Biso   1.000  Ag
  C253     1.0000 0.62370  0.24300  0.00240  Biso   1.000  C
  C254     1.0000 0.27800  0.86230  0.50920  Biso   1.000  C
  H169     1.0000 0.29870  0.86590  0.54930  Biso   1.000  H
  C255     1.0000 0.73510  0.43500  0.88830  Biso   1.000  C
  H170     1.0000 0.71320  0.44170  0.84850  Biso   1.000  H
  C256     1.0000 0.09780  0.03000  0.50100  Biso   1.000  C
  C257     1.0000 0.79810  0.41580  0.00490  Biso   1.000  C
  H171     1.0000 0.82040  0.41140  0.04490  Biso   1.000  H
  C258     1.0000 0.53310  0.18780  0.91110  Biso   1.000  C
  H172     1.0000 0.55450  0.20920  0.88990  Biso   1.000  H
  C259     1.0000 0.94370  0.15700  0.46490  Biso   1.000  C
  H173     1.0000 0.92360  0.18520  0.48480  Biso   1.000  H
  C260     1.0000 0.00340  0.11650  0.49650  Biso   1.000  C
  H174     1.0000 0.02300  0.11790  0.53670  Biso   1.000  H
  C261     1.0000 0.56000  0.19780  0.97020  Biso   1.000  C
  C262     1.0000 0.70990  0.27310  0.08770  Biso   1.000  C
  C263     1.0000 0.17890  0.04390  0.68130  Biso   1.000  C
  H175     1.0000 0.13480  0.06150  0.66140  Biso   1.000  H
  C264     1.0000 0.21980  0.84800  0.39210  Biso   1.000  C
  H176     1.0000 0.19980  0.84370  0.35200  Biso   1.000  H
  C265     1.0000 0.18250  0.94820  0.50680  Biso   1.000  C
  C266     1.0000 0.03340  0.07380  0.46710  Biso   1.000  C
  C267     1.0000 0.18050  0.99790  0.58830  Biso   1.000  C
  C268     1.0000 0.74360  0.26260  0.15170  Biso   1.000  C
  C269     1.0000 0.52610  0.16440  0.00000  Biso   1.000  C
  H177     1.0000 0.54340  0.16910  0.03990  Biso   1.000  H
  C270     1.0000 0.21550  0.89890  0.47760  Biso   1.000  C
  C271     1.0000 0.82590  0.45910  0.97410  Biso   1.000  C
  H178     1.0000 0.86810  0.48230  0.99430  Biso   1.000  H
  C272     1.0000 0.18570  0.89040  0.41850  Biso   1.000  C
  H179     1.0000 0.14360  0.91260  0.39660  Biso   1.000  H
  C273     1.0000 0.30850  0.82030  0.47940  Biso   1.000  C
  H180     1.0000 0.35010  0.79640  0.50050  Biso   1.000  H
  C274     1.0000 0.47350  0.14530  0.88410  Biso   1.000  C
  H181     1.0000 0.45640  0.13710  0.84450  Biso   1.000  H
  C275     1.0000 0.73590  0.37900  0.97450  Biso   1.000  C
  C276     1.0000 0.46680  0.12460  0.96960  Biso   1.000  C
  H182     1.0000 0.44430  0.10270  0.98990  Biso   1.000  H
  C277     1.0000 0.70540  0.32790  0.00510  Biso   1.000  C
  C278     1.0000 0.70390  0.38990  0.91520  Biso   1.000  C
  H183     1.0000 0.66180  0.36710  0.89390  Biso   1.000  H
  C279     1.0000 0.30760  0.99510  0.74250  Biso   1.000  C
  H184     1.0000 0.35190  0.97850  0.76320  Biso   1.000  H
  C280     1.0000 0.00240  0.07310  0.40720  Biso   1.000  C
  H185     1.0000 0.02050  0.04370  0.38620  Biso   1.000  H
  C281     1.0000 0.94380  0.11700  0.37960  Biso   1.000  C
  H186     1.0000 0.92430  0.11850  0.33950  Biso   1.000  H
  C282     1.0000 0.71570  0.21090  0.17820  Biso   1.000  C
  H187     1.0000 0.67750  0.18070  0.15640  Biso   1.000  H
  C283     1.0000 0.80230  0.30250  0.18490  Biso   1.000  C
  H188     1.0000 0.82380  0.33500  0.16810  Biso   1.000  H
  C284     1.0000 0.82830  0.29260  0.24430  Biso   1.000  C
  H189     1.0000 0.86780  0.32020  0.26690  Biso   1.000  H
  C285     1.0000 0.21230  0.00760  0.65200  Biso   1.000  C
  C286     1.0000 0.27810  0.98330  0.68320  Biso   1.000  C
  H190     1.0000 0.30210  0.95950  0.66480  Biso   1.000  H
  C287     1.0000 0.21230  0.05330  0.74060  Biso   1.000  C
  H191     1.0000 0.18960  0.07750  0.76000  Biso   1.000  H
  C288     1.0000 0.74540  0.20490  0.23740  Biso   1.000  C
  H192     1.0000 0.72610  0.17030  0.25490  Biso   1.000  H
  N85      1.0000 0.43930  0.11530  0.91222  Biso   1.000  N
  N86      1.0000 0.79550  0.46950  0.91677  Biso   1.000  N
  N87      1.0000 0.80080  0.24640  0.27114  Biso   1.000  N
  N88      1.0000 0.65310  0.23180  0.05928  Biso   1.000  N
  N89      1.0000 0.64800  0.28990  0.97260  Biso   1.000  N
  N90      1.0000 0.73830  0.32220  0.06306  Biso   1.000  N
  N91      1.0000 0.91340  0.15770  0.40725  Biso   1.000  N
  N92      1.0000 0.28020  0.81300  0.42163  Biso   1.000  N
  N93      1.0000 0.27610  0.02890  0.77159  Biso   1.000  N
  N94      1.0000 0.12280  0.03730  0.55881  Biso   1.000  N
  N95      1.0000 0.12633  0.98870  0.47304  Biso   1.000  N
  N96      1.0000 0.21150  0.95030  0.56481  Biso   1.000  N
