data_image0
_cell_length_a       21.9381
_cell_length_b       16.7198
_cell_length_c       25.5037
_cell_angle_alpha    90
_cell_angle_beta     115.074
_cell_angle_gamma    90

_symmetry_space_group_name_H-M    "P 1"
_symmetry_int_tables_number       1

loop_
  _symmetry_equiv_pos_as_xyz
  'x, y, z'

loop_
  _atom_site_label
  _atom_site_occupancy
  _atom_site_fract_x
  _atom_site_fract_y
  _atom_site_fract_z
  _atom_site_thermal_displace_type
  _atom_site_B_iso_or_equiv
  _atom_site_type_symbol
  Ag1      1.0000 0.84424  0.04367  0.36665  Biso   1.000  Ag
  Ag2      1.0000 0.32144  0.24312  0.86622  Biso   1.000  Ag
  C1       1.0000 0.59750  0.02820  0.99860  Biso   1.000  C
  C2       1.0000 0.77630  0.86170  0.00730  Biso   1.000  C
  H1       1.0000 0.79700  0.86540  0.04750  Biso   1.000  H
  C3       1.0000 0.05960  0.19970  0.46740  Biso   1.000  C
  C4       1.0000 0.29750  0.41720  0.50330  Biso   1.000  C
  H2       1.0000 0.31930  0.41410  0.54340  Biso   1.000  H
  C5       1.0000 0.12300  0.24450  0.49980  Biso   1.000  C
  C6       1.0000 0.03260  0.19020  0.40880  Biso   1.000  C
  H3       1.0000 0.05410  0.21140  0.38740  Biso   1.000  H
  C7       1.0000 0.50300  0.11470  0.99400  Biso   1.000  C
  H4       1.0000 0.52240  0.11600  0.03430  Biso   1.000  H
  C8       1.0000 0.44340  0.15510  0.96220  Biso   1.000  C
  H5       1.0000 0.42380  0.18360  0.98240  Biso   1.000  H
  C9       1.0000 0.24280  0.26320  0.64900  Biso   1.000  C
  C10      1.0000 0.68140  0.94760  0.00460  Biso   1.000  C
  C11      1.0000 0.71970  0.84710  0.89000  Biso   1.000  C
  H6       1.0000 0.70020  0.84240  0.84990  Biso   1.000  H
  C12      1.0000 0.53280  0.07260  0.96470  Biso   1.000  C
  C13      1.0000 0.23500  0.37910  0.47230  Biso   1.000  C
  C14      1.0000 0.67860  0.04420  0.17900  Biso   1.000  C
  H7       1.0000 0.63460  0.06210  0.15870  Biso   1.000  H
  C15      1.0000 0.20940  0.27430  0.58530  Biso   1.000  C
  C16      1.0000 0.71200  0.00800  0.14990  Biso   1.000  C
  C17      1.0000 0.71420  0.89900  0.97550  Biso   1.000  C
  C18      1.0000 0.02530  0.16630  0.49700  Biso   1.000  C
  H8       1.0000 0.04210  0.17120  0.53700  Biso   1.000  H
  C19      1.0000 0.23560  0.43530  0.38700  Biso   1.000  C
  H9       1.0000 0.21440  0.44160  0.34710  Biso   1.000  H
  C20      1.0000 0.20390  0.39100  0.41350  Biso   1.000  C
  H10      1.0000 0.16160  0.36910  0.39180  Biso   1.000  H
  C21      1.0000 0.20450  0.32830  0.50250  Biso   1.000  C
  C22      1.0000 0.67990  0.99790  0.08570  Biso   1.000  C
  C23      1.0000 0.80620  0.81940  0.97780  Biso   1.000  C
  H11      1.0000 0.84720  0.79450  0.99920  Biso   1.000  H
  C24      1.0000 0.68550  0.89000  0.91640  Biso   1.000  C
  H12      1.0000 0.64360  0.91230  0.89410  Biso   1.000  H
  C25      1.0000 0.32470  0.45860  0.47270  Biso   1.000  C
  H13      1.0000 0.36720  0.48090  0.49300  Biso   1.000  H
  C26      1.0000 0.96730  0.12690  0.46710  Biso   1.000  C
  H14      1.0000 0.94540  0.10410  0.48770  Biso   1.000  H
  C27      1.0000 0.97260  0.14850  0.38140  Biso   1.000  C
  H15      1.0000 0.95490  0.14140  0.34150  Biso   1.000  H
  C28      1.0000 0.80610  0.99490  0.24030  Biso   1.000  C
  H16      1.0000 0.84990  0.97700  0.26130  Biso   1.000  H
  C29      1.0000 0.50110  0.07110  0.90490  Biso   1.000  C
  H17      1.0000 0.51830  0.04090  0.88360  Biso   1.000  H
  C30      1.0000 0.71080  0.05350  0.23780  Biso   1.000  C
  H18      1.0000 0.68750  0.07720  0.25700  Biso   1.000  H
  C31      1.0000 0.24570  0.20620  0.73480  Biso   1.000  C
  H19      1.0000 0.22710  0.17100  0.75230  Biso   1.000  H
  C32      1.0000 0.21450  0.21320  0.67640  Biso   1.000  C
  H20      1.0000 0.17510  0.18520  0.65500  Biso   1.000  H
  C33      1.0000 0.77750  0.98370  0.18160  Biso   1.000  C
  H21      1.0000 0.80190  0.96020  0.16340  Biso   1.000  H
  C34      1.0000 0.44360  0.11540  0.87780  Biso   1.000  C
  H22      1.0000 0.42460  0.11760  0.83760  Biso   1.000  H
  C35      1.0000 0.30220  0.30040  0.68260  Biso   1.000  C
  H23      1.0000 0.32490  0.33120  0.66610  Biso   1.000  H
  C36      1.0000 0.32750  0.29030  0.74230  Biso   1.000  C
  H24      1.0000 0.36680  0.31760  0.76520  Biso   1.000  H
  N1       1.0000 0.93950  0.11850  0.41020  Biso   1.000  N
  N2       1.0000 0.29520  0.46950  0.41600  Biso   1.000  N
  N3       1.0000 0.30010  0.24530  0.76870  Biso   1.000  N
  N4       1.0000 0.15200  0.23450  0.55690  Biso   1.000  N
  N5       1.0000 0.14750  0.29040  0.47040  Biso   1.000  N
  N6       1.0000 0.23730  0.32290  0.56050  Biso   1.000  N
  N7       1.0000 0.41280  0.15570  0.90510  Biso   1.000  N
  N8       1.0000 0.77950  0.81250  0.92050  Biso   1.000  N
  N9       1.0000 0.77530  0.02970  0.26930  Biso   1.000  N
  N10      1.0000 0.62250  0.03720  0.05630  Biso   1.000  N
  N11      1.0000 0.62480  0.98690  0.97070  Biso   1.000  N
  N12      1.0000 0.71030  0.95080  0.06240  Biso   1.000  N
  Ag3      1.0000 0.34424  0.54367  0.36665  Biso   1.000  Ag
  Ag4      1.0000 0.82144  0.74312  0.86622  Biso   1.000  Ag
  C37      1.0000 0.09750  0.52820  0.99860  Biso   1.000  C
  C38      1.0000 0.27630  0.36170  0.00730  Biso   1.000  C
  H25      1.0000 0.29700  0.36540  0.04750  Biso   1.000  H
  C39      1.0000 0.55960  0.69970  0.46740  Biso   1.000  C
  C40      1.0000 0.79750  0.91720  0.50330  Biso   1.000  C
  H26      1.0000 0.81930  0.91410  0.54340  Biso   1.000  H
  C41      1.0000 0.62300  0.74450  0.49980  Biso   1.000  C
  C42      1.0000 0.53260  0.69020  0.40880  Biso   1.000  C
  H27      1.0000 0.55410  0.71140  0.38740  Biso   1.000  H
  C43      1.0000 0.00300  0.61470  0.99400  Biso   1.000  C
  H28      1.0000 0.02240  0.61600  0.03430  Biso   1.000  H
  C44      1.0000 0.94340  0.65510  0.96220  Biso   1.000  C
  H29      1.0000 0.92380  0.68360  0.98240  Biso   1.000  H
  C45      1.0000 0.74280  0.76320  0.64900  Biso   1.000  C
  C46      1.0000 0.18140  0.44760  0.00460  Biso   1.000  C
  C47      1.0000 0.21970  0.34710  0.89000  Biso   1.000  C
  H30      1.0000 0.20020  0.34240  0.84990  Biso   1.000  H
  C48      1.0000 0.03280  0.57260  0.96470  Biso   1.000  C
  C49      1.0000 0.73500  0.87910  0.47230  Biso   1.000  C
  C50      1.0000 0.17860  0.54420  0.17900  Biso   1.000  C
  H31      1.0000 0.13460  0.56210  0.15870  Biso   1.000  H
  C51      1.0000 0.70940  0.77430  0.58530  Biso   1.000  C
  C52      1.0000 0.21200  0.50800  0.14990  Biso   1.000  C
  C53      1.0000 0.21420  0.39900  0.97550  Biso   1.000  C
  C54      1.0000 0.52530  0.66630  0.49700  Biso   1.000  C
  H32      1.0000 0.54210  0.67120  0.53700  Biso   1.000  H
  C55      1.0000 0.73560  0.93530  0.38700  Biso   1.000  C
  H33      1.0000 0.71440  0.94160  0.34710  Biso   1.000  H
  C56      1.0000 0.70390  0.89100  0.41350  Biso   1.000  C
  H34      1.0000 0.66160  0.86910  0.39180  Biso   1.000  H
  C57      1.0000 0.70450  0.82830  0.50250  Biso   1.000  C
  C58      1.0000 0.17990  0.49790  0.08570  Biso   1.000  C
  C59      1.0000 0.30620  0.31940  0.97780  Biso   1.000  C
  H35      1.0000 0.34720  0.29450  0.99920  Biso   1.000  H
  C60      1.0000 0.18550  0.39000  0.91640  Biso   1.000  C
  H36      1.0000 0.14360  0.41230  0.89410  Biso   1.000  H
  C61      1.0000 0.82470  0.95860  0.47270  Biso   1.000  C
  H37      1.0000 0.86720  0.98090  0.49300  Biso   1.000  H
  C62      1.0000 0.46730  0.62690  0.46710  Biso   1.000  C
  H38      1.0000 0.44540  0.60410  0.48770  Biso   1.000  H
  C63      1.0000 0.47260  0.64850  0.38140  Biso   1.000  C
  H39      1.0000 0.45490  0.64140  0.34150  Biso   1.000  H
  C64      1.0000 0.30610  0.49490  0.24030  Biso   1.000  C
  H40      1.0000 0.34990  0.47700  0.26130  Biso   1.000  H
  C65      1.0000 0.00110  0.57110  0.90490  Biso   1.000  C
  H41      1.0000 0.01830  0.54090  0.88360  Biso   1.000  H
  C66      1.0000 0.21080  0.55350  0.23780  Biso   1.000  C
  H42      1.0000 0.18750  0.57720  0.25700  Biso   1.000  H
  C67      1.0000 0.74570  0.70620  0.73480  Biso   1.000  C
  H43      1.0000 0.72710  0.67100  0.75230  Biso   1.000  H
  C68      1.0000 0.71450  0.71320  0.67640  Biso   1.000  C
  H44      1.0000 0.67510  0.68520  0.65500  Biso   1.000  H
  C69      1.0000 0.27750  0.48370  0.18160  Biso   1.000  C
  H45      1.0000 0.30190  0.46020  0.16340  Biso   1.000  H
  C70      1.0000 0.94360  0.61540  0.87780  Biso   1.000  C
  H46      1.0000 0.92460  0.61760  0.83760  Biso   1.000  H
  C71      1.0000 0.80220  0.80040  0.68260  Biso   1.000  C
  H47      1.0000 0.82490  0.83120  0.66610  Biso   1.000  H
  C72      1.0000 0.82750  0.79030  0.74230  Biso   1.000  C
  H48      1.0000 0.86680  0.81760  0.76520  Biso   1.000  H
  N13      1.0000 0.43950  0.61850  0.41020  Biso   1.000  N
  N14      1.0000 0.79520  0.96950  0.41600  Biso   1.000  N
  N15      1.0000 0.80010  0.74530  0.76870  Biso   1.000  N
  N16      1.0000 0.65200  0.73450  0.55690  Biso   1.000  N
  N17      1.0000 0.64750  0.79040  0.47040  Biso   1.000  N
  N18      1.0000 0.73730  0.82290  0.56050  Biso   1.000  N
  N19      1.0000 0.91280  0.65570  0.90510  Biso   1.000  N
  N20      1.0000 0.27950  0.31250  0.92050  Biso   1.000  N
  N21      1.0000 0.27530  0.52970  0.26930  Biso   1.000  N
  N22      1.0000 0.12250  0.53720  0.05630  Biso   1.000  N
  N23      1.0000 0.12480  0.48690  0.97070  Biso   1.000  N
  N24      1.0000 0.21030  0.45080  0.06240  Biso   1.000  N
  Ag5      1.0000 0.15576  0.04367  0.13335  Biso   1.000  Ag
  Ag6      1.0000 0.67856  0.24312  0.63378  Biso   1.000  Ag
  C73      1.0000 0.40250  0.02820  0.50140  Biso   1.000  C
  C74      1.0000 0.22370  0.86170  0.49270  Biso   1.000  C
  H49      1.0000 0.20300  0.86540  0.45250  Biso   1.000  H
  C75      1.0000 0.94040  0.19970  0.03260  Biso   1.000  C
  C76      1.0000 0.70250  0.41720  0.99670  Biso   1.000  C
  H50      1.0000 0.68070  0.41410  0.95660  Biso   1.000  H
  C77      1.0000 0.87700  0.24450  0.00020  Biso   1.000  C
  C78      1.0000 0.96740  0.19020  0.09120  Biso   1.000  C
  H51      1.0000 0.94590  0.21140  0.11260  Biso   1.000  H
  C79      1.0000 0.49700  0.11470  0.50600  Biso   1.000  C
  H52      1.0000 0.47760  0.11600  0.46570  Biso   1.000  H
  C80      1.0000 0.55660  0.15510  0.53780  Biso   1.000  C
  H53      1.0000 0.57620  0.18360  0.51760  Biso   1.000  H
  C81      1.0000 0.75720  0.26320  0.85100  Biso   1.000  C
  C82      1.0000 0.31860  0.94760  0.49540  Biso   1.000  C
  C83      1.0000 0.28030  0.84710  0.61000  Biso   1.000  C
  H54      1.0000 0.29980  0.84240  0.65010  Biso   1.000  H
  C84      1.0000 0.46720  0.07260  0.53530  Biso   1.000  C
  C85      1.0000 0.76500  0.37910  0.02770  Biso   1.000  C
  C86      1.0000 0.32140  0.04420  0.32100  Biso   1.000  C
  H55      1.0000 0.36540  0.06210  0.34130  Biso   1.000  H
  C87      1.0000 0.79060  0.27430  0.91470  Biso   1.000  C
  C88      1.0000 0.28800  0.00800  0.35010  Biso   1.000  C
  C89      1.0000 0.28580  0.89900  0.52450  Biso   1.000  C
  C90      1.0000 0.97470  0.16630  0.00300  Biso   1.000  C
  H56      1.0000 0.95790  0.17120  0.96300  Biso   1.000  H
  C91      1.0000 0.76440  0.43530  0.11300  Biso   1.000  C
  H57      1.0000 0.78560  0.44160  0.15290  Biso   1.000  H
  C92      1.0000 0.79610  0.39100  0.08650  Biso   1.000  C
  H58      1.0000 0.83840  0.36910  0.10820  Biso   1.000  H
  C93      1.0000 0.79550  0.32830  0.99750  Biso   1.000  C
  C94      1.0000 0.32010  0.99790  0.41430  Biso   1.000  C
  C95      1.0000 0.19380  0.81940  0.52220  Biso   1.000  C
  H59      1.0000 0.15280  0.79450  0.50080  Biso   1.000  H
  C96      1.0000 0.31450  0.89000  0.58360  Biso   1.000  C
  H60      1.0000 0.35640  0.91230  0.60590  Biso   1.000  H
  C97      1.0000 0.67530  0.45860  0.02730  Biso   1.000  C
  H61      1.0000 0.63280  0.48090  0.00700  Biso   1.000  H
  C98      1.0000 0.03270  0.12690  0.03290  Biso   1.000  C
  H62      1.0000 0.05460  0.10410  0.01230  Biso   1.000  H
  C99      1.0000 0.02740  0.14850  0.11860  Biso   1.000  C
  H63      1.0000 0.04510  0.14140  0.15850  Biso   1.000  H
  C100     1.0000 0.19390  0.99490  0.25970  Biso   1.000  C
  H64      1.0000 0.15010  0.97700  0.23870  Biso   1.000  H
  C101     1.0000 0.49890  0.07110  0.59510  Biso   1.000  C
  H65      1.0000 0.48170  0.04090  0.61640  Biso   1.000  H
  C102     1.0000 0.28920  0.05350  0.26220  Biso   1.000  C
  H66      1.0000 0.31250  0.07720  0.24300  Biso   1.000  H
  C103     1.0000 0.75430  0.20620  0.76520  Biso   1.000  C
  H67      1.0000 0.77290  0.17100  0.74770  Biso   1.000  H
  C104     1.0000 0.78550  0.21320  0.82360  Biso   1.000  C
  H68      1.0000 0.82490  0.18520  0.84500  Biso   1.000  H
  C105     1.0000 0.22250  0.98370  0.31840  Biso   1.000  C
  H69      1.0000 0.19810  0.96020  0.33660  Biso   1.000  H
  C106     1.0000 0.55640  0.11540  0.62220  Biso   1.000  C
  H70      1.0000 0.57540  0.11760  0.66240  Biso   1.000  H
  C107     1.0000 0.69780  0.30040  0.81740  Biso   1.000  C
  H71      1.0000 0.67510  0.33120  0.83390  Biso   1.000  H
  C108     1.0000 0.67250  0.29030  0.75770  Biso   1.000  C
  H72      1.0000 0.63320  0.31760  0.73480  Biso   1.000  H
  N25      1.0000 0.06050  0.11850  0.08980  Biso   1.000  N
  N26      1.0000 0.70480  0.46950  0.08400  Biso   1.000  N
  N27      1.0000 0.69990  0.24530  0.73130  Biso   1.000  N
  N28      1.0000 0.84800  0.23450  0.94310  Biso   1.000  N
  N29      1.0000 0.85250  0.29040  0.02960  Biso   1.000  N
  N30      1.0000 0.76270  0.32290  0.93950  Biso   1.000  N
  N31      1.0000 0.58720  0.15570  0.59490  Biso   1.000  N
  N32      1.0000 0.22050  0.81250  0.57950  Biso   1.000  N
  N33      1.0000 0.22470  0.02970  0.23070  Biso   1.000  N
  N34      1.0000 0.37750  0.03720  0.44370  Biso   1.000  N
  N35      1.0000 0.37520  0.98690  0.52930  Biso   1.000  N
  N36      1.0000 0.28970  0.95080  0.43760  Biso   1.000  N
  Ag7      1.0000 0.65576  0.54367  0.13335  Biso   1.000  Ag
  Ag8      1.0000 0.17856  0.74312  0.63378  Biso   1.000  Ag
  C109     1.0000 0.90250  0.52820  0.50140  Biso   1.000  C
  C110     1.0000 0.72370  0.36170  0.49270  Biso   1.000  C
  H73      1.0000 0.70300  0.36540  0.45250  Biso   1.000  H
  C111     1.0000 0.44040  0.69970  0.03260  Biso   1.000  C
  C112     1.0000 0.20250  0.91720  0.99670  Biso   1.000  C
  H74      1.0000 0.18070  0.91410  0.95660  Biso   1.000  H
  C113     1.0000 0.37700  0.74450  0.00020  Biso   1.000  C
  C114     1.0000 0.46740  0.69020  0.09120  Biso   1.000  C
  H75      1.0000 0.44590  0.71140  0.11260  Biso   1.000  H
  C115     1.0000 0.99700  0.61470  0.50600  Biso   1.000  C
  H76      1.0000 0.97760  0.61600  0.46570  Biso   1.000  H
  C116     1.0000 0.05660  0.65510  0.53780  Biso   1.000  C
  H77      1.0000 0.07620  0.68360  0.51760  Biso   1.000  H
  C117     1.0000 0.25720  0.76320  0.85100  Biso   1.000  C
  C118     1.0000 0.81860  0.44760  0.49540  Biso   1.000  C
  C119     1.0000 0.78030  0.34710  0.61000  Biso   1.000  C
  H78      1.0000 0.79980  0.34240  0.65010  Biso   1.000  H
  C120     1.0000 0.96720  0.57260  0.53530  Biso   1.000  C
  C121     1.0000 0.26500  0.87910  0.02770  Biso   1.000  C
  C122     1.0000 0.82140  0.54420  0.32100  Biso   1.000  C
  H79      1.0000 0.86540  0.56210  0.34130  Biso   1.000  H
  C123     1.0000 0.29060  0.77430  0.91470  Biso   1.000  C
  C124     1.0000 0.78800  0.50800  0.35010  Biso   1.000  C
  C125     1.0000 0.78580  0.39900  0.52450  Biso   1.000  C
  C126     1.0000 0.47470  0.66630  0.00300  Biso   1.000  C
  H80      1.0000 0.45790  0.67120  0.96300  Biso   1.000  H
  C127     1.0000 0.26440  0.93530  0.11300  Biso   1.000  C
  H81      1.0000 0.28560  0.94160  0.15290  Biso   1.000  H
  C128     1.0000 0.29610  0.89100  0.08650  Biso   1.000  C
  H82      1.0000 0.33840  0.86910  0.10820  Biso   1.000  H
  C129     1.0000 0.29550  0.82830  0.99750  Biso   1.000  C
  C130     1.0000 0.82010  0.49790  0.41430  Biso   1.000  C
  C131     1.0000 0.69380  0.31940  0.52220  Biso   1.000  C
  H83      1.0000 0.65280  0.29450  0.50080  Biso   1.000  H
  C132     1.0000 0.81450  0.39000  0.58360  Biso   1.000  C
  H84      1.0000 0.85640  0.41230  0.60590  Biso   1.000  H
  C133     1.0000 0.17530  0.95860  0.02730  Biso   1.000  C
  H85      1.0000 0.13280  0.98090  0.00700  Biso   1.000  H
  C134     1.0000 0.53270  0.62690  0.03290  Biso   1.000  C
  H86      1.0000 0.55460  0.60410  0.01230  Biso   1.000  H
  C135     1.0000 0.52740  0.64850  0.11860  Biso   1.000  C
  H87      1.0000 0.54510  0.64140  0.15850  Biso   1.000  H
  C136     1.0000 0.69390  0.49490  0.25970  Biso   1.000  C
  H88      1.0000 0.65010  0.47700  0.23870  Biso   1.000  H
  C137     1.0000 0.99890  0.57110  0.59510  Biso   1.000  C
  H89      1.0000 0.98170  0.54090  0.61640  Biso   1.000  H
  C138     1.0000 0.78920  0.55350  0.26220  Biso   1.000  C
  H90      1.0000 0.81250  0.57720  0.24300  Biso   1.000  H
  C139     1.0000 0.25430  0.70620  0.76520  Biso   1.000  C
  H91      1.0000 0.27290  0.67100  0.74770  Biso   1.000  H
  C140     1.0000 0.28550  0.71320  0.82360  Biso   1.000  C
  H92      1.0000 0.32490  0.68520  0.84500  Biso   1.000  H
  C141     1.0000 0.72250  0.48370  0.31840  Biso   1.000  C
  H93      1.0000 0.69810  0.46020  0.33660  Biso   1.000  H
  C142     1.0000 0.05640  0.61540  0.62220  Biso   1.000  C
  H94      1.0000 0.07540  0.61760  0.66240  Biso   1.000  H
  C143     1.0000 0.19780  0.80040  0.81740  Biso   1.000  C
  H95      1.0000 0.17510  0.83120  0.83390  Biso   1.000  H
  C144     1.0000 0.17250  0.79030  0.75770  Biso   1.000  C
  H96      1.0000 0.13320  0.81760  0.73480  Biso   1.000  H
  N37      1.0000 0.56050  0.61850  0.08980  Biso   1.000  N
  N38      1.0000 0.20480  0.96950  0.08400  Biso   1.000  N
  N39      1.0000 0.19990  0.74530  0.73130  Biso   1.000  N
  N40      1.0000 0.34800  0.73450  0.94310  Biso   1.000  N
  N41      1.0000 0.35250  0.79040  0.02960  Biso   1.000  N
  N42      1.0000 0.26270  0.82290  0.93950  Biso   1.000  N
  N43      1.0000 0.08720  0.65570  0.59490  Biso   1.000  N
  N44      1.0000 0.72050  0.31250  0.57950  Biso   1.000  N
  N45      1.0000 0.72470  0.52970  0.23070  Biso   1.000  N
  N46      1.0000 0.87750  0.53720  0.44370  Biso   1.000  N
  N47      1.0000 0.87520  0.48690  0.52930  Biso   1.000  N
  N48      1.0000 0.78970  0.45080  0.43760  Biso   1.000  N
  Ag9      1.0000 0.15576  0.95633  0.63335  Biso   1.000  Ag
  Ag10     1.0000 0.67856  0.75688  0.13378  Biso   1.000  Ag
  C145     1.0000 0.40250  0.97180  0.00140  Biso   1.000  C
  C146     1.0000 0.22370  0.13830  0.99270  Biso   1.000  C
  H97      1.0000 0.20300  0.13460  0.95250  Biso   1.000  H
  C147     1.0000 0.94040  0.80030  0.53260  Biso   1.000  C
  C148     1.0000 0.70250  0.58280  0.49670  Biso   1.000  C
  H98      1.0000 0.68070  0.58590  0.45660  Biso   1.000  H
  C149     1.0000 0.87700  0.75550  0.50020  Biso   1.000  C
  C150     1.0000 0.96740  0.80980  0.59120  Biso   1.000  C
  H99      1.0000 0.94590  0.78860  0.61260  Biso   1.000  H
  C151     1.0000 0.49700  0.88530  0.00600  Biso   1.000  C
  H100     1.0000 0.47760  0.88400  0.96570  Biso   1.000  H
  C152     1.0000 0.55660  0.84490  0.03780  Biso   1.000  C
  H101     1.0000 0.57620  0.81640  0.01760  Biso   1.000  H
  C153     1.0000 0.75720  0.73680  0.35100  Biso   1.000  C
  C154     1.0000 0.31860  0.05240  0.99540  Biso   1.000  C
  C155     1.0000 0.28030  0.15290  0.11000  Biso   1.000  C
  H102     1.0000 0.29980  0.15760  0.15010  Biso   1.000  H
  C156     1.0000 0.46720  0.92740  0.03530  Biso   1.000  C
  C157     1.0000 0.76500  0.62090  0.52770  Biso   1.000  C
  C158     1.0000 0.32140  0.95580  0.82100  Biso   1.000  C
  H103     1.0000 0.36540  0.93790  0.84130  Biso   1.000  H
  C159     1.0000 0.79060  0.72570  0.41470  Biso   1.000  C
  C160     1.0000 0.28800  0.99200  0.85010  Biso   1.000  C
  C161     1.0000 0.28580  0.10100  0.02450  Biso   1.000  C
  C162     1.0000 0.97470  0.83370  0.50300  Biso   1.000  C
  H104     1.0000 0.95790  0.82880  0.46300  Biso   1.000  H
  C163     1.0000 0.76440  0.56470  0.61300  Biso   1.000  C
  H105     1.0000 0.78560  0.55840  0.65290  Biso   1.000  H
  C164     1.0000 0.79610  0.60900  0.58650  Biso   1.000  C
  H106     1.0000 0.83840  0.63090  0.60820  Biso   1.000  H
  C165     1.0000 0.79550  0.67170  0.49750  Biso   1.000  C
  C166     1.0000 0.32010  0.00210  0.91430  Biso   1.000  C
  C167     1.0000 0.19380  0.18060  0.02220  Biso   1.000  C
  H107     1.0000 0.15280  0.20550  0.00080  Biso   1.000  H
  C168     1.0000 0.31450  0.11000  0.08360  Biso   1.000  C
  H108     1.0000 0.35640  0.08770  0.10590  Biso   1.000  H
  C169     1.0000 0.67530  0.54140  0.52730  Biso   1.000  C
  H109     1.0000 0.63280  0.51910  0.50700  Biso   1.000  H
  C170     1.0000 0.03270  0.87310  0.53290  Biso   1.000  C
  H110     1.0000 0.05460  0.89590  0.51230  Biso   1.000  H
  C171     1.0000 0.02740  0.85150  0.61860  Biso   1.000  C
  H111     1.0000 0.04510  0.85860  0.65850  Biso   1.000  H
  C172     1.0000 0.19390  0.00510  0.75970  Biso   1.000  C
  H112     1.0000 0.15010  0.02300  0.73870  Biso   1.000  H
  C173     1.0000 0.49890  0.92890  0.09510  Biso   1.000  C
  H113     1.0000 0.48170  0.95910  0.11640  Biso   1.000  H
  C174     1.0000 0.28920  0.94650  0.76220  Biso   1.000  C
  H114     1.0000 0.31250  0.92280  0.74300  Biso   1.000  H
  C175     1.0000 0.75430  0.79380  0.26520  Biso   1.000  C
  H115     1.0000 0.77290  0.82900  0.24770  Biso   1.000  H
  C176     1.0000 0.78550  0.78680  0.32360  Biso   1.000  C
  H116     1.0000 0.82490  0.81480  0.34500  Biso   1.000  H
  C177     1.0000 0.22250  0.01630  0.81840  Biso   1.000  C
  H117     1.0000 0.19810  0.03980  0.83660  Biso   1.000  H
  C178     1.0000 0.55640  0.88460  0.12220  Biso   1.000  C
  H118     1.0000 0.57540  0.88240  0.16240  Biso   1.000  H
  C179     1.0000 0.69780  0.69960  0.31740  Biso   1.000  C
  H119     1.0000 0.67510  0.66880  0.33390  Biso   1.000  H
  C180     1.0000 0.67250  0.70970  0.25770  Biso   1.000  C
  H120     1.0000 0.63320  0.68240  0.23480  Biso   1.000  H
  N49      1.0000 0.06050  0.88150  0.58980  Biso   1.000  N
  N50      1.0000 0.70480  0.53050  0.58400  Biso   1.000  N
  N51      1.0000 0.69990  0.75470  0.23130  Biso   1.000  N
  N52      1.0000 0.84800  0.76550  0.44310  Biso   1.000  N
  N53      1.0000 0.85250  0.70960  0.52960  Biso   1.000  N
  N54      1.0000 0.76270  0.67710  0.43950  Biso   1.000  N
  N55      1.0000 0.58720  0.84430  0.09490  Biso   1.000  N
  N56      1.0000 0.22050  0.18750  0.07950  Biso   1.000  N
  N57      1.0000 0.22470  0.97030  0.73070  Biso   1.000  N
  N58      1.0000 0.37750  0.96280  0.94370  Biso   1.000  N
  N59      1.0000 0.37520  0.01310  0.02930  Biso   1.000  N
  N60      1.0000 0.28970  0.04920  0.93760  Biso   1.000  N
  Ag11     1.0000 0.65576  0.45633  0.63335  Biso   1.000  Ag
  Ag12     1.0000 0.17856  0.25688  0.13378  Biso   1.000  Ag
  C181     1.0000 0.90250  0.47180  0.00140  Biso   1.000  C
  C182     1.0000 0.72370  0.63830  0.99270  Biso   1.000  C
  H121     1.0000 0.70300  0.63460  0.95250  Biso   1.000  H
  C183     1.0000 0.44040  0.30030  0.53260  Biso   1.000  C
  C184     1.0000 0.20250  0.08280  0.49670  Biso   1.000  C
  H122     1.0000 0.18070  0.08590  0.45660  Biso   1.000  H
  C185     1.0000 0.37700  0.25550  0.50020  Biso   1.000  C
  C186     1.0000 0.46740  0.30980  0.59120  Biso   1.000  C
  H123     1.0000 0.44590  0.28860  0.61260  Biso   1.000  H
  C187     1.0000 0.99700  0.38530  0.00600  Biso   1.000  C
  H124     1.0000 0.97760  0.38400  0.96570  Biso   1.000  H
  C188     1.0000 0.05660  0.34490  0.03780  Biso   1.000  C
  H125     1.0000 0.07620  0.31640  0.01760  Biso   1.000  H
  C189     1.0000 0.25720  0.23680  0.35100  Biso   1.000  C
  C190     1.0000 0.81860  0.55240  0.99540  Biso   1.000  C
  C191     1.0000 0.78030  0.65290  0.11000  Biso   1.000  C
  H126     1.0000 0.79980  0.65760  0.15010  Biso   1.000  H
  C192     1.0000 0.96720  0.42740  0.03530  Biso   1.000  C
  C193     1.0000 0.26500  0.12090  0.52770  Biso   1.000  C
  C194     1.0000 0.82140  0.45580  0.82100  Biso   1.000  C
  H127     1.0000 0.86540  0.43790  0.84130  Biso   1.000  H
  C195     1.0000 0.29060  0.22570  0.41470  Biso   1.000  C
  C196     1.0000 0.78800  0.49200  0.85010  Biso   1.000  C
  C197     1.0000 0.78580  0.60100  0.02450  Biso   1.000  C
  C198     1.0000 0.47470  0.33370  0.50300  Biso   1.000  C
  H128     1.0000 0.45790  0.32880  0.46300  Biso   1.000  H
  C199     1.0000 0.26440  0.06470  0.61300  Biso   1.000  C
  H129     1.0000 0.28560  0.05840  0.65290  Biso   1.000  H
  C200     1.0000 0.29610  0.10900  0.58650  Biso   1.000  C
  H130     1.0000 0.33840  0.13090  0.60820  Biso   1.000  H
  C201     1.0000 0.29550  0.17170  0.49750  Biso   1.000  C
  C202     1.0000 0.82010  0.50210  0.91430  Biso   1.000  C
  C203     1.0000 0.69380  0.68060  0.02220  Biso   1.000  C
  H131     1.0000 0.65280  0.70550  0.00080  Biso   1.000  H
  C204     1.0000 0.81450  0.61000  0.08360  Biso   1.000  C
  H132     1.0000 0.85640  0.58770  0.10590  Biso   1.000  H
  C205     1.0000 0.17530  0.04140  0.52730  Biso   1.000  C
  H133     1.0000 0.13280  0.01910  0.50700  Biso   1.000  H
  C206     1.0000 0.53270  0.37310  0.53290  Biso   1.000  C
  H134     1.0000 0.55460  0.39590  0.51230  Biso   1.000  H
  C207     1.0000 0.52740  0.35150  0.61860  Biso   1.000  C
  H135     1.0000 0.54510  0.35860  0.65850  Biso   1.000  H
  C208     1.0000 0.69390  0.50510  0.75970  Biso   1.000  C
  H136     1.0000 0.65010  0.52300  0.73870  Biso   1.000  H
  C209     1.0000 0.99890  0.42890  0.09510  Biso   1.000  C
  H137     1.0000 0.98170  0.45910  0.11640  Biso   1.000  H
  C210     1.0000 0.78920  0.44650  0.76220  Biso   1.000  C
  H138     1.0000 0.81250  0.42280  0.74300  Biso   1.000  H
  C211     1.0000 0.25430  0.29380  0.26520  Biso   1.000  C
  H139     1.0000 0.27290  0.32900  0.24770  Biso   1.000  H
  C212     1.0000 0.28550  0.28680  0.32360  Biso   1.000  C
  H140     1.0000 0.32490  0.31480  0.34500  Biso   1.000  H
  C213     1.0000 0.72250  0.51630  0.81840  Biso   1.000  C
  H141     1.0000 0.69810  0.53980  0.83660  Biso   1.000  H
  C214     1.0000 0.05640  0.38460  0.12220  Biso   1.000  C
  H142     1.0000 0.07540  0.38240  0.16240  Biso   1.000  H
  C215     1.0000 0.19780  0.19960  0.31740  Biso   1.000  C
  H143     1.0000 0.17510  0.16880  0.33390  Biso   1.000  H
  C216     1.0000 0.17250  0.20970  0.25770  Biso   1.000  C
  H144     1.0000 0.13320  0.18240  0.23480  Biso   1.000  H
  N61      1.0000 0.56050  0.38150  0.58980  Biso   1.000  N
  N62      1.0000 0.20480  0.03050  0.58400  Biso   1.000  N
  N63      1.0000 0.19990  0.25470  0.23130  Biso   1.000  N
  N64      1.0000 0.34800  0.26550  0.44310  Biso   1.000  N
  N65      1.0000 0.35250  0.20960  0.52960  Biso   1.000  N
  N66      1.0000 0.26270  0.17710  0.43950  Biso   1.000  N
  N67      1.0000 0.08720  0.34430  0.09490  Biso   1.000  N
  N68      1.0000 0.72050  0.68750  0.07950  Biso   1.000  N
  N69      1.0000 0.72470  0.47030  0.73070  Biso   1.000  N
  N70      1.0000 0.87750  0.46280  0.94370  Biso   1.000  N
  N71      1.0000 0.87520  0.51310  0.02930  Biso   1.000  N
  N72      1.0000 0.78970  0.54920  0.93760  Biso   1.000  N
  Ag13     1.0000 0.84424  0.95633  0.86665  Biso   1.000  Ag
  Ag14     1.0000 0.32144  0.75688  0.36622  Biso   1.000  Ag
  C217     1.0000 0.59750  0.97180  0.49860  Biso   1.000  C
  C218     1.0000 0.77630  0.13830  0.50730  Biso   1.000  C
  H145     1.0000 0.79700  0.13460  0.54750  Biso   1.000  H
  C219     1.0000 0.05960  0.80030  0.96740  Biso   1.000  C
  C220     1.0000 0.29750  0.58280  0.00330  Biso   1.000  C
  H146     1.0000 0.31930  0.58590  0.04340  Biso   1.000  H
  C221     1.0000 0.12300  0.75550  0.99980  Biso   1.000  C
  C222     1.0000 0.03260  0.80980  0.90880  Biso   1.000  C
  H147     1.0000 0.05410  0.78860  0.88740  Biso   1.000  H
  C223     1.0000 0.50300  0.88530  0.49400  Biso   1.000  C
  H148     1.0000 0.52240  0.88400  0.53430  Biso   1.000  H
  C224     1.0000 0.44340  0.84490  0.46220  Biso   1.000  C
  H149     1.0000 0.42380  0.81640  0.48240  Biso   1.000  H
  C225     1.0000 0.24280  0.73680  0.14900  Biso   1.000  C
  C226     1.0000 0.68140  0.05240  0.50460  Biso   1.000  C
  C227     1.0000 0.71970  0.15290  0.39000  Biso   1.000  C
  H150     1.0000 0.70020  0.15760  0.34990  Biso   1.000  H
  C228     1.0000 0.53280  0.92740  0.46470  Biso   1.000  C
  C229     1.0000 0.23500  0.62090  0.97230  Biso   1.000  C
  C230     1.0000 0.67860  0.95580  0.67900  Biso   1.000  C
  H151     1.0000 0.63460  0.93790  0.65870  Biso   1.000  H
  C231     1.0000 0.20940  0.72570  0.08530  Biso   1.000  C
  C232     1.0000 0.71200  0.99200  0.64990  Biso   1.000  C
  C233     1.0000 0.71420  0.10100  0.47550  Biso   1.000  C
  C234     1.0000 0.02530  0.83370  0.99700  Biso   1.000  C
  H152     1.0000 0.04210  0.82880  0.03700  Biso   1.000  H
  C235     1.0000 0.23560  0.56470  0.88700  Biso   1.000  C
  H153     1.0000 0.21440  0.55840  0.84710  Biso   1.000  H
  C236     1.0000 0.20390  0.60900  0.91350  Biso   1.000  C
  H154     1.0000 0.16160  0.63090  0.89180  Biso   1.000  H
  C237     1.0000 0.20450  0.67170  0.00250  Biso   1.000  C
  C238     1.0000 0.67990  0.00210  0.58570  Biso   1.000  C
  C239     1.0000 0.80620  0.18060  0.47780  Biso   1.000  C
  H155     1.0000 0.84720  0.20550  0.49920  Biso   1.000  H
  C240     1.0000 0.68550  0.11000  0.41640  Biso   1.000  C
  H156     1.0000 0.64360  0.08770  0.39410  Biso   1.000  H
  C241     1.0000 0.32470  0.54140  0.97270  Biso   1.000  C
  H157     1.0000 0.36720  0.51910  0.99300  Biso   1.000  H
  C242     1.0000 0.96730  0.87310  0.96710  Biso   1.000  C
  H158     1.0000 0.94540  0.89590  0.98770  Biso   1.000  H
  C243     1.0000 0.97260  0.85150  0.88140  Biso   1.000  C
  H159     1.0000 0.95490  0.85860  0.84150  Biso   1.000  H
  C244     1.0000 0.80610  0.00510  0.74030  Biso   1.000  C
  H160     1.0000 0.84990  0.02300  0.76130  Biso   1.000  H
  C245     1.0000 0.50110  0.92890  0.40490  Biso   1.000  C
  H161     1.0000 0.51830  0.95910  0.38360  Biso   1.000  H
  C246     1.0000 0.71080  0.94650  0.73780  Biso   1.000  C
  H162     1.0000 0.68750  0.92280  0.75700  Biso   1.000  H
  C247     1.0000 0.24570  0.79380  0.23480  Biso   1.000  C
  H163     1.0000 0.22710  0.82900  0.25230  Biso   1.000  H
  C248     1.0000 0.21450  0.78680  0.17640  Biso   1.000  C
  H164     1.0000 0.17510  0.81480  0.15500  Biso   1.000  H
  C249     1.0000 0.77750  0.01630  0.68160  Biso   1.000  C
  H165     1.0000 0.80190  0.03980  0.66340  Biso   1.000  H
  C250     1.0000 0.44360  0.88460  0.37780  Biso   1.000  C
  H166     1.0000 0.42460  0.88240  0.33760  Biso   1.000  H
  C251     1.0000 0.30220  0.69960  0.18260  Biso   1.000  C
  H167     1.0000 0.32490  0.66880  0.16610  Biso   1.000  H
  C252     1.0000 0.32750  0.70970  0.24230  Biso   1.000  C
  H168     1.0000 0.36680  0.68240  0.26520  Biso   1.000  H
  N73      1.0000 0.93950  0.88150  0.91020  Biso   1.000  N
  N74      1.0000 0.29520  0.53050  0.91600  Biso   1.000  N
  N75      1.0000 0.30010  0.75470  0.26870  Biso   1.000  N
  N76      1.0000 0.15200  0.76550  0.05690  Biso   1.000  N
  N77      1.0000 0.14750  0.70960  0.97040  Biso   1.000  N
  N78      1.0000 0.23730  0.67710  0.06050  Biso   1.000  N
  N79      1.0000 0.41280  0.84430  0.40510  Biso   1.000  N
  N80      1.0000 0.77950  0.18750  0.42050  Biso   1.000  N
  N81      1.0000 0.77530  0.97030  0.76930  Biso   1.000  N
  N82      1.0000 0.62250  0.96280  0.55630  Biso   1.000  N
  N83      1.0000 0.62480  0.01310  0.47070  Biso   1.000  N
  N84      1.0000 0.71030  0.04920  0.56240  Biso   1.000  N
  Ag15     1.0000 0.34424  0.45633  0.86665  Biso   1.000  Ag
  Ag16     1.0000 0.82144  0.25688  0.36622  Biso   1.000  Ag
  C253     1.0000 0.09750  0.47180  0.49860  Biso   1.000  C
  C254     1.0000 0.27630  0.63830  0.50730  Biso   1.000  C
  H169     1.0000 0.29700  0.63460  0.54750  Biso   1.000  H
  C255     1.0000 0.55960  0.30030  0.96740  Biso   1.000  C
  C256     1.0000 0.79750  0.08280  0.00330  Biso   1.000  C
  H170     1.0000 0.81930  0.08590  0.04340  Biso   1.000  H
  C257     1.0000 0.62300  0.25550  0.99980  Biso   1.000  C
  C258     1.0000 0.53260  0.30980  0.90880  Biso   1.000  C
  H171     1.0000 0.55410  0.28860  0.88740  Biso   1.000  H
  C259     1.0000 0.00300  0.38530  0.49400  Biso   1.000  C
  H172     1.0000 0.02240  0.38400  0.53430  Biso   1.000  H
  C260     1.0000 0.94340  0.34490  0.46220  Biso   1.000  C
  H173     1.0000 0.92380  0.31640  0.48240  Biso   1.000  H
  C261     1.0000 0.74280  0.23680  0.14900  Biso   1.000  C
  C262     1.0000 0.18140  0.55240  0.50460  Biso   1.000  C
  C263     1.0000 0.21970  0.65290  0.39000  Biso   1.000  C
  H174     1.0000 0.20020  0.65760  0.34990  Biso   1.000  H
  C264     1.0000 0.03280  0.42740  0.46470  Biso   1.000  C
  C265     1.0000 0.73500  0.12090  0.97230  Biso   1.000  C
  C266     1.0000 0.17860  0.45580  0.67900  Biso   1.000  C
  H175     1.0000 0.13460  0.43790  0.65870  Biso   1.000  H
  C267     1.0000 0.70940  0.22570  0.08530  Biso   1.000  C
  C268     1.0000 0.21200  0.49200  0.64990  Biso   1.000  C
  C269     1.0000 0.21420  0.60100  0.47550  Biso   1.000  C
  C270     1.0000 0.52530  0.33370  0.99700  Biso   1.000  C
  H176     1.0000 0.54210  0.32880  0.03700  Biso   1.000  H
  C271     1.0000 0.73560  0.06470  0.88700  Biso   1.000  C
  H177     1.0000 0.71440  0.05840  0.84710  Biso   1.000  H
  C272     1.0000 0.70390  0.10900  0.91350  Biso   1.000  C
  H178     1.0000 0.66160  0.13090  0.89180  Biso   1.000  H
  C273     1.0000 0.70450  0.17170  0.00250  Biso   1.000  C
  C274     1.0000 0.17990  0.50210  0.58570  Biso   1.000  C
  C275     1.0000 0.30620  0.68060  0.47780  Biso   1.000  C
  H179     1.0000 0.34720  0.70550  0.49920  Biso   1.000  H
  C276     1.0000 0.18550  0.61000  0.41640  Biso   1.000  C
  H180     1.0000 0.14360  0.58770  0.39410  Biso   1.000  H
  C277     1.0000 0.82470  0.04140  0.97270  Biso   1.000  C
  H181     1.0000 0.86720  0.01910  0.99300  Biso   1.000  H
  C278     1.0000 0.46730  0.37310  0.96710  Biso   1.000  C
  H182     1.0000 0.44540  0.39590  0.98770  Biso   1.000  H
  C279     1.0000 0.47260  0.35150  0.88140  Biso   1.000  C
  H183     1.0000 0.45490  0.35860  0.84150  Biso   1.000  H
  C280     1.0000 0.30610  0.50510  0.74030  Biso   1.000  C
  H184     1.0000 0.34990  0.52300  0.76130  Biso   1.000  H
  C281     1.0000 0.00110  0.42890  0.40490  Biso   1.000  C
  H185     1.0000 0.01830  0.45910  0.38360  Biso   1.000  H
  C282     1.0000 0.21080  0.44650  0.73780  Biso   1.000  C
  H186     1.0000 0.18750  0.42280  0.75700  Biso   1.000  H
  C283     1.0000 0.74570  0.29380  0.23480  Biso   1.000  C
  H187     1.0000 0.72710  0.32900  0.25230  Biso   1.000  H
  C284     1.0000 0.71450  0.28680  0.17640  Biso   1.000  C
  H188     1.0000 0.67510  0.31480  0.15500  Biso   1.000  H
  C285     1.0000 0.27750  0.51630  0.68160  Biso   1.000  C
  H189     1.0000 0.30190  0.53980  0.66340  Biso   1.000  H
  C286     1.0000 0.94360  0.38460  0.37780  Biso   1.000  C
  H190     1.0000 0.92460  0.38240  0.33760  Biso   1.000  H
  C287     1.0000 0.80220  0.19960  0.18260  Biso   1.000  C
  H191     1.0000 0.82490  0.16880  0.16610  Biso   1.000  H
  C288     1.0000 0.82750  0.20970  0.24230  Biso   1.000  C
  H192     1.0000 0.86680  0.18240  0.26520  Biso   1.000  H
  N85      1.0000 0.43950  0.38150  0.91020  Biso   1.000  N
  N86      1.0000 0.79520  0.03050  0.91600  Biso   1.000  N
  N87      1.0000 0.80010  0.25470  0.26870  Biso   1.000  N
  N88      1.0000 0.65200  0.26550  0.05690  Biso   1.000  N
  N89      1.0000 0.64750  0.20960  0.97040  Biso   1.000  N
  N90      1.0000 0.73730  0.17710  0.06050  Biso   1.000  N
  N91      1.0000 0.91280  0.34430  0.40510  Biso   1.000  N
  N92      1.0000 0.27950  0.68750  0.42050  Biso   1.000  N
  N93      1.0000 0.27530  0.47030  0.76930  Biso   1.000  N
  N94      1.0000 0.12250  0.46280  0.55630  Biso   1.000  N
  N95      1.0000 0.12480  0.51310  0.47070  Biso   1.000  N
  N96      1.0000 0.21030  0.54920  0.56240  Biso   1.000  N
