data_image0
_cell_length_a       22.0501
_cell_length_b       16.5079
_cell_length_c       25.596
_cell_angle_alpha    90
_cell_angle_beta     115.291
_cell_angle_gamma    90

_symmetry_space_group_name_H-M    "P 1"
_symmetry_int_tables_number       1

loop_
  _symmetry_equiv_pos_as_xyz
  'x, y, z'

loop_
  _atom_site_label
  _atom_site_occupancy
  _atom_site_fract_x
  _atom_site_fract_y
  _atom_site_fract_z
  _atom_site_thermal_displace_type
  _atom_site_B_iso_or_equiv
  _atom_site_type_symbol
  Ag1      1.0000 0.34423  0.54263  0.36755  Biso   1.000  Ag
  Ag2      1.0000 0.32266  0.24611  0.86700  Biso   1.000  Ag
  C1       1.0000 0.12380  0.24350  0.50140  Biso   1.000  C
  C2       1.0000 0.59800  0.02930  0.00020  Biso   1.000  C
  C3       1.0000 0.72030  0.84770  0.89170  Biso   1.000  C
  H1       1.0000 0.70060  0.84310  0.85160  Biso   1.000  H
  C4       1.0000 0.03280  0.18850  0.41020  Biso   1.000  C
  H2       1.0000 0.05430  0.20950  0.38880  Biso   1.000  H
  C5       1.0000 0.05970  0.19870  0.46920  Biso   1.000  C
  C6       1.0000 0.77780  0.86160  0.00900  Biso   1.000  C
  H3       1.0000 0.79860  0.86500  0.04910  Biso   1.000  H
  C7       1.0000 0.44400  0.15580  0.96410  Biso   1.000  C
  H4       1.0000 0.42390  0.18350  0.98420  Biso   1.000  H
  C8       1.0000 0.23520  0.43550  0.38820  Biso   1.000  C
  H5       1.0000 0.21340  0.44250  0.34830  Biso   1.000  H
  C9       1.0000 0.29780  0.41600  0.50460  Biso   1.000  C
  H6       1.0000 0.32000  0.41180  0.54460  Biso   1.000  H
  C10      1.0000 0.24300  0.26320  0.65060  Biso   1.000  C
  C11      1.0000 0.68240  0.94780  0.00610  Biso   1.000  C
  C12      1.0000 0.50360  0.11550  0.99580  Biso   1.000  C
  H7       1.0000 0.52320  0.11670  0.03600  Biso   1.000  H
  C13      1.0000 0.20970  0.27390  0.58700  Biso   1.000  C
  C14      1.0000 0.02580  0.16490  0.49900  Biso   1.000  C
  H8       1.0000 0.04310  0.16940  0.53900  Biso   1.000  H
  C15      1.0000 0.53350  0.07340  0.96610  Biso   1.000  C
  C16      1.0000 0.23570  0.37870  0.47400  Biso   1.000  C
  C17      1.0000 0.20540  0.32800  0.50440  Biso   1.000  C
  C18      1.0000 0.67920  0.04410  0.18060  Biso   1.000  C
  H9       1.0000 0.63520  0.06190  0.16050  Biso   1.000  H
  C19      1.0000 0.20400  0.39030  0.41460  Biso   1.000  C
  H10      1.0000 0.16200  0.36770  0.39300  Biso   1.000  H
  C20      1.0000 0.96690  0.12500  0.46860  Biso   1.000  C
  H11      1.0000 0.94470  0.10280  0.48900  Biso   1.000  H
  C21      1.0000 0.71530  0.89810  0.97690  Biso   1.000  C
  C22      1.0000 0.68020  0.99790  0.08740  Biso   1.000  C
  C23      1.0000 0.71250  0.00830  0.15130  Biso   1.000  C
  C24      1.0000 0.80780  0.81990  0.97880  Biso   1.000  C
  H12      1.0000 0.84920  0.79550  0.99970  Biso   1.000  H
  C25      1.0000 0.32530  0.45940  0.47340  Biso   1.000  C
  H13      1.0000 0.36740  0.48260  0.49380  Biso   1.000  H
  C26      1.0000 0.97330  0.14640  0.38360  Biso   1.000  C
  H14      1.0000 0.95600  0.13870  0.34380  Biso   1.000  H
  C27      1.0000 0.50200  0.07270  0.90650  Biso   1.000  C
  H15      1.0000 0.51980  0.04330  0.88540  Biso   1.000  H
  C28      1.0000 0.80710  0.99510  0.24190  Biso   1.000  C
  H16      1.0000 0.85130  0.97850  0.26280  Biso   1.000  H
  C29      1.0000 0.68630  0.89010  0.91750  Biso   1.000  C
  H17      1.0000 0.64450  0.91270  0.89520  Biso   1.000  H
  C30      1.0000 0.71220  0.05330  0.24020  Biso   1.000  C
  H18      1.0000 0.68950  0.07740  0.25950  Biso   1.000  H
  C31      1.0000 0.44390  0.11640  0.87890  Biso   1.000  C
  H19      1.0000 0.42440  0.11790  0.83880  Biso   1.000  H
  C32      1.0000 0.24530  0.20470  0.73660  Biso   1.000  C
  H20      1.0000 0.22630  0.17000  0.75410  Biso   1.000  H
  C33      1.0000 0.30230  0.30150  0.68440  Biso   1.000  C
  H21      1.0000 0.32430  0.33320  0.66780  Biso   1.000  H
  C34      1.0000 0.32830  0.29200  0.74360  Biso   1.000  C
  H22      1.0000 0.36750  0.31970  0.76620  Biso   1.000  H
  C35      1.0000 0.77810  0.98350  0.18290  Biso   1.000  C
  H23      1.0000 0.80210  0.95950  0.16470  Biso   1.000  H
  C36      1.0000 0.21510  0.21130  0.67730  Biso   1.000  C
  H24      1.0000 0.17670  0.18160  0.65540  Biso   1.000  H
  N1       1.0000 0.93920  0.11620  0.41140  Biso   1.000  N
  N2       1.0000 0.29560  0.47000  0.41690  Biso   1.000  N
  N3       1.0000 0.30080  0.24570  0.77040  Biso   1.000  N
  N4       1.0000 0.14780  0.28960  0.47180  Biso   1.000  N
  N5       1.0000 0.23800  0.32260  0.56214  Biso   1.000  N
  N6       1.0000 0.15290  0.23280  0.55880  Biso   1.000  N
  N7       1.0000 0.78000  0.81330  0.92130  Biso   1.000  N
  N8       1.0000 0.41360  0.15720  0.90670  Biso   1.000  N
  N9       1.0000 0.77540  0.02900  0.27080  Biso   1.000  N
  N10      1.0000 0.62610  0.98790  0.97254  Biso   1.000  N
  N11      1.0000 0.62290  0.03700  0.05800  Biso   1.000  N
  N12      1.0000 0.71150  0.95050  0.06410  Biso   1.000  N
  Ag3      1.0000 0.84423  0.04263  0.36755  Biso   1.000  Ag
  Ag4      1.0000 0.82266  0.74611  0.86700  Biso   1.000  Ag
  C37      1.0000 0.62380  0.74350  0.50140  Biso   1.000  C
  C38      1.0000 0.09800  0.52930  0.00020  Biso   1.000  C
  C39      1.0000 0.22030  0.34770  0.89170  Biso   1.000  C
  H25      1.0000 0.20060  0.34310  0.85160  Biso   1.000  H
  C40      1.0000 0.53280  0.68850  0.41020  Biso   1.000  C
  H26      1.0000 0.55430  0.70950  0.38880  Biso   1.000  H
  C41      1.0000 0.55970  0.69870  0.46920  Biso   1.000  C
  C42      1.0000 0.27780  0.36160  0.00900  Biso   1.000  C
  H27      1.0000 0.29860  0.36500  0.04910  Biso   1.000  H
  C43      1.0000 0.94400  0.65580  0.96410  Biso   1.000  C
  H28      1.0000 0.92390  0.68350  0.98420  Biso   1.000  H
  C44      1.0000 0.73520  0.93550  0.38820  Biso   1.000  C
  H29      1.0000 0.71340  0.94250  0.34830  Biso   1.000  H
  C45      1.0000 0.79780  0.91600  0.50460  Biso   1.000  C
  H30      1.0000 0.82000  0.91180  0.54460  Biso   1.000  H
  C46      1.0000 0.74300  0.76320  0.65060  Biso   1.000  C
  C47      1.0000 0.18240  0.44780  0.00610  Biso   1.000  C
  C48      1.0000 0.00360  0.61550  0.99580  Biso   1.000  C
  H31      1.0000 0.02320  0.61670  0.03600  Biso   1.000  H
  C49      1.0000 0.70970  0.77390  0.58700  Biso   1.000  C
  C50      1.0000 0.52580  0.66490  0.49900  Biso   1.000  C
  H32      1.0000 0.54310  0.66940  0.53900  Biso   1.000  H
  C51      1.0000 0.03350  0.57340  0.96610  Biso   1.000  C
  C52      1.0000 0.73570  0.87870  0.47400  Biso   1.000  C
  C53      1.0000 0.70540  0.82800  0.50440  Biso   1.000  C
  C54      1.0000 0.17920  0.54410  0.18060  Biso   1.000  C
  H33      1.0000 0.13520  0.56190  0.16050  Biso   1.000  H
  C55      1.0000 0.70400  0.89030  0.41460  Biso   1.000  C
  H34      1.0000 0.66200  0.86770  0.39300  Biso   1.000  H
  C56      1.0000 0.46690  0.62500  0.46860  Biso   1.000  C
  H35      1.0000 0.44470  0.60280  0.48900  Biso   1.000  H
  C57      1.0000 0.21530  0.39810  0.97690  Biso   1.000  C
  C58      1.0000 0.18020  0.49790  0.08740  Biso   1.000  C
  C59      1.0000 0.21250  0.50830  0.15130  Biso   1.000  C
  C60      1.0000 0.30780  0.31990  0.97880  Biso   1.000  C
  H36      1.0000 0.34920  0.29550  0.99970  Biso   1.000  H
  C61      1.0000 0.82530  0.95940  0.47340  Biso   1.000  C
  H37      1.0000 0.86740  0.98260  0.49380  Biso   1.000  H
  C62      1.0000 0.47330  0.64640  0.38360  Biso   1.000  C
  H38      1.0000 0.45600  0.63870  0.34380  Biso   1.000  H
  C63      1.0000 0.00200  0.57270  0.90650  Biso   1.000  C
  H39      1.0000 0.01980  0.54330  0.88540  Biso   1.000  H
  C64      1.0000 0.30710  0.49510  0.24190  Biso   1.000  C
  H40      1.0000 0.35130  0.47850  0.26280  Biso   1.000  H
  C65      1.0000 0.18630  0.39010  0.91750  Biso   1.000  C
  H41      1.0000 0.14450  0.41270  0.89520  Biso   1.000  H
  C66      1.0000 0.21220  0.55330  0.24020  Biso   1.000  C
  H42      1.0000 0.18950  0.57740  0.25950  Biso   1.000  H
  C67      1.0000 0.94390  0.61640  0.87890  Biso   1.000  C
  H43      1.0000 0.92440  0.61790  0.83880  Biso   1.000  H
  C68      1.0000 0.74530  0.70470  0.73660  Biso   1.000  C
  H44      1.0000 0.72630  0.67000  0.75410  Biso   1.000  H
  C69      1.0000 0.80230  0.80150  0.68440  Biso   1.000  C
  H45      1.0000 0.82430  0.83320  0.66780  Biso   1.000  H
  C70      1.0000 0.82830  0.79200  0.74360  Biso   1.000  C
  H46      1.0000 0.86750  0.81970  0.76620  Biso   1.000  H
  C71      1.0000 0.27810  0.48350  0.18290  Biso   1.000  C
  H47      1.0000 0.30210  0.45950  0.16470  Biso   1.000  H
  C72      1.0000 0.71510  0.71130  0.67730  Biso   1.000  C
  H48      1.0000 0.67670  0.68160  0.65540  Biso   1.000  H
  N13      1.0000 0.43920  0.61620  0.41140  Biso   1.000  N
  N14      1.0000 0.79560  0.97000  0.41690  Biso   1.000  N
  N15      1.0000 0.80080  0.74570  0.77040  Biso   1.000  N
  N16      1.0000 0.64780  0.78960  0.47180  Biso   1.000  N
  N17      1.0000 0.73800  0.82260  0.56214  Biso   1.000  N
  N18      1.0000 0.65290  0.73280  0.55880  Biso   1.000  N
  N19      1.0000 0.28000  0.31330  0.92130  Biso   1.000  N
  N20      1.0000 0.91360  0.65720  0.90670  Biso   1.000  N
  N21      1.0000 0.27540  0.52900  0.27080  Biso   1.000  N
  N22      1.0000 0.12610  0.48790  0.97254  Biso   1.000  N
  N23      1.0000 0.12290  0.53700  0.05800  Biso   1.000  N
  N24      1.0000 0.21150  0.45050  0.06410  Biso   1.000  N
  Ag5      1.0000 0.65577  0.54263  0.13245  Biso   1.000  Ag
  Ag6      1.0000 0.67734  0.24611  0.63300  Biso   1.000  Ag
  C73      1.0000 0.87620  0.24350  0.99860  Biso   1.000  C
  C74      1.0000 0.40200  0.02930  0.49980  Biso   1.000  C
  C75      1.0000 0.27970  0.84770  0.60830  Biso   1.000  C
  H49      1.0000 0.29940  0.84310  0.64840  Biso   1.000  H
  C76      1.0000 0.96720  0.18850  0.08980  Biso   1.000  C
  H50      1.0000 0.94570  0.20950  0.11120  Biso   1.000  H
  C77      1.0000 0.94030  0.19870  0.03080  Biso   1.000  C
  C78      1.0000 0.22220  0.86160  0.49100  Biso   1.000  C
  H51      1.0000 0.20140  0.86500  0.45090  Biso   1.000  H
  C79      1.0000 0.55600  0.15580  0.53590  Biso   1.000  C
  H52      1.0000 0.57610  0.18350  0.51580  Biso   1.000  H
  C80      1.0000 0.76480  0.43550  0.11180  Biso   1.000  C
  H53      1.0000 0.78660  0.44250  0.15170  Biso   1.000  H
  C81      1.0000 0.70220  0.41600  0.99540  Biso   1.000  C
  H54      1.0000 0.68000  0.41180  0.95540  Biso   1.000  H
  C82      1.0000 0.75700  0.26320  0.84940  Biso   1.000  C
  C83      1.0000 0.31760  0.94780  0.49390  Biso   1.000  C
  C84      1.0000 0.49640  0.11550  0.50420  Biso   1.000  C
  H55      1.0000 0.47680  0.11670  0.46400  Biso   1.000  H
  C85      1.0000 0.79030  0.27390  0.91300  Biso   1.000  C
  C86      1.0000 0.97420  0.16490  0.00100  Biso   1.000  C
  H56      1.0000 0.95690  0.16940  0.96100  Biso   1.000  H
  C87      1.0000 0.46650  0.07340  0.53390  Biso   1.000  C
  C88      1.0000 0.76430  0.37870  0.02600  Biso   1.000  C
  C89      1.0000 0.79460  0.32800  0.99560  Biso   1.000  C
  C90      1.0000 0.32080  0.04410  0.31940  Biso   1.000  C
  H57      1.0000 0.36480  0.06190  0.33950  Biso   1.000  H
  C91      1.0000 0.79600  0.39030  0.08540  Biso   1.000  C
  H58      1.0000 0.83800  0.36770  0.10700  Biso   1.000  H
  C92      1.0000 0.03310  0.12500  0.03140  Biso   1.000  C
  H59      1.0000 0.05530  0.10280  0.01100  Biso   1.000  H
  C93      1.0000 0.28470  0.89810  0.52310  Biso   1.000  C
  C94      1.0000 0.31980  0.99790  0.41260  Biso   1.000  C
  C95      1.0000 0.28750  0.00830  0.34870  Biso   1.000  C
  C96      1.0000 0.19220  0.81990  0.52120  Biso   1.000  C
  H60      1.0000 0.15080  0.79550  0.50030  Biso   1.000  H
  C97      1.0000 0.67470  0.45940  0.02660  Biso   1.000  C
  H61      1.0000 0.63260  0.48260  0.00620  Biso   1.000  H
  C98      1.0000 0.02670  0.14640  0.11640  Biso   1.000  C
  H62      1.0000 0.04400  0.13870  0.15620  Biso   1.000  H
  C99      1.0000 0.49800  0.07270  0.59350  Biso   1.000  C
  H63      1.0000 0.48020  0.04330  0.61460  Biso   1.000  H
  C100     1.0000 0.19290  0.99510  0.25810  Biso   1.000  C
  H64      1.0000 0.14870  0.97850  0.23720  Biso   1.000  H
  C101     1.0000 0.31370  0.89010  0.58250  Biso   1.000  C
  H65      1.0000 0.35550  0.91270  0.60480  Biso   1.000  H
  C102     1.0000 0.28780  0.05330  0.25980  Biso   1.000  C
  H66      1.0000 0.31050  0.07740  0.24050  Biso   1.000  H
  C103     1.0000 0.55610  0.11640  0.62110  Biso   1.000  C
  H67      1.0000 0.57560  0.11790  0.66120  Biso   1.000  H
  C104     1.0000 0.75470  0.20470  0.76340  Biso   1.000  C
  H68      1.0000 0.77370  0.17000  0.74590  Biso   1.000  H
  C105     1.0000 0.69770  0.30150  0.81560  Biso   1.000  C
  H69      1.0000 0.67570  0.33320  0.83220  Biso   1.000  H
  C106     1.0000 0.67170  0.29200  0.75640  Biso   1.000  C
  H70      1.0000 0.63250  0.31970  0.73380  Biso   1.000  H
  C107     1.0000 0.22190  0.98350  0.31710  Biso   1.000  C
  H71      1.0000 0.19790  0.95950  0.33530  Biso   1.000  H
  C108     1.0000 0.78490  0.21130  0.82270  Biso   1.000  C
  H72      1.0000 0.82330  0.18160  0.84460  Biso   1.000  H
  N25      1.0000 0.06080  0.11620  0.08860  Biso   1.000  N
  N26      1.0000 0.70440  0.47000  0.08310  Biso   1.000  N
  N27      1.0000 0.69920  0.24570  0.72960  Biso   1.000  N
  N28      1.0000 0.85220  0.28960  0.02820  Biso   1.000  N
  N29      1.0000 0.76200  0.32260  0.93786  Biso   1.000  N
  N30      1.0000 0.84710  0.23280  0.94120  Biso   1.000  N
  N31      1.0000 0.22000  0.81330  0.57870  Biso   1.000  N
  N32      1.0000 0.58640  0.15720  0.59330  Biso   1.000  N
  N33      1.0000 0.22460  0.02900  0.22920  Biso   1.000  N
  N34      1.0000 0.37390  0.98790  0.52746  Biso   1.000  N
  N35      1.0000 0.37710  0.03700  0.44200  Biso   1.000  N
  N36      1.0000 0.28850  0.95050  0.43590  Biso   1.000  N
  Ag7      1.0000 0.15577  0.04263  0.13245  Biso   1.000  Ag
  Ag8      1.0000 0.17734  0.74611  0.63300  Biso   1.000  Ag
  C109     1.0000 0.37620  0.74350  0.99860  Biso   1.000  C
  C110     1.0000 0.90200  0.52930  0.49980  Biso   1.000  C
  C111     1.0000 0.77970  0.34770  0.60830  Biso   1.000  C
  H73      1.0000 0.79940  0.34310  0.64840  Biso   1.000  H
  C112     1.0000 0.46720  0.68850  0.08980  Biso   1.000  C
  H74      1.0000 0.44570  0.70950  0.11120  Biso   1.000  H
  C113     1.0000 0.44030  0.69870  0.03080  Biso   1.000  C
  C114     1.0000 0.72220  0.36160  0.49100  Biso   1.000  C
  H75      1.0000 0.70140  0.36500  0.45090  Biso   1.000  H
  C115     1.0000 0.05600  0.65580  0.53590  Biso   1.000  C
  H76      1.0000 0.07610  0.68350  0.51580  Biso   1.000  H
  C116     1.0000 0.26480  0.93550  0.11180  Biso   1.000  C
  H77      1.0000 0.28660  0.94250  0.15170  Biso   1.000  H
  C117     1.0000 0.20220  0.91600  0.99540  Biso   1.000  C
  H78      1.0000 0.18000  0.91180  0.95540  Biso   1.000  H
  C118     1.0000 0.25700  0.76320  0.84940  Biso   1.000  C
  C119     1.0000 0.81760  0.44780  0.49390  Biso   1.000  C
  C120     1.0000 0.99640  0.61550  0.50420  Biso   1.000  C
  H79      1.0000 0.97680  0.61670  0.46400  Biso   1.000  H
  C121     1.0000 0.29030  0.77390  0.91300  Biso   1.000  C
  C122     1.0000 0.47420  0.66490  0.00100  Biso   1.000  C
  H80      1.0000 0.45690  0.66940  0.96100  Biso   1.000  H
  C123     1.0000 0.96650  0.57340  0.53390  Biso   1.000  C
  C124     1.0000 0.26430  0.87870  0.02600  Biso   1.000  C
  C125     1.0000 0.29460  0.82800  0.99560  Biso   1.000  C
  C126     1.0000 0.82080  0.54410  0.31940  Biso   1.000  C
  H81      1.0000 0.86480  0.56190  0.33950  Biso   1.000  H
  C127     1.0000 0.29600  0.89030  0.08540  Biso   1.000  C
  H82      1.0000 0.33800  0.86770  0.10700  Biso   1.000  H
  C128     1.0000 0.53310  0.62500  0.03140  Biso   1.000  C
  H83      1.0000 0.55530  0.60280  0.01100  Biso   1.000  H
  C129     1.0000 0.78470  0.39810  0.52310  Biso   1.000  C
  C130     1.0000 0.81980  0.49790  0.41260  Biso   1.000  C
  C131     1.0000 0.78750  0.50830  0.34870  Biso   1.000  C
  C132     1.0000 0.69220  0.31990  0.52120  Biso   1.000  C
  H84      1.0000 0.65080  0.29550  0.50030  Biso   1.000  H
  C133     1.0000 0.17470  0.95940  0.02660  Biso   1.000  C
  H85      1.0000 0.13260  0.98260  0.00620  Biso   1.000  H
  C134     1.0000 0.52670  0.64640  0.11640  Biso   1.000  C
  H86      1.0000 0.54400  0.63870  0.15620  Biso   1.000  H
  C135     1.0000 0.99800  0.57270  0.59350  Biso   1.000  C
  H87      1.0000 0.98020  0.54330  0.61460  Biso   1.000  H
  C136     1.0000 0.69290  0.49510  0.25810  Biso   1.000  C
  H88      1.0000 0.64870  0.47850  0.23720  Biso   1.000  H
  C137     1.0000 0.81370  0.39010  0.58250  Biso   1.000  C
  H89      1.0000 0.85550  0.41270  0.60480  Biso   1.000  H
  C138     1.0000 0.78780  0.55330  0.25980  Biso   1.000  C
  H90      1.0000 0.81050  0.57740  0.24050  Biso   1.000  H
  C139     1.0000 0.05610  0.61640  0.62110  Biso   1.000  C
  H91      1.0000 0.07560  0.61790  0.66120  Biso   1.000  H
  C140     1.0000 0.25470  0.70470  0.76340  Biso   1.000  C
  H92      1.0000 0.27370  0.67000  0.74590  Biso   1.000  H
  C141     1.0000 0.19770  0.80150  0.81560  Biso   1.000  C
  H93      1.0000 0.17570  0.83320  0.83220  Biso   1.000  H
  C142     1.0000 0.17170  0.79200  0.75640  Biso   1.000  C
  H94      1.0000 0.13250  0.81970  0.73380  Biso   1.000  H
  C143     1.0000 0.72190  0.48350  0.31710  Biso   1.000  C
  H95      1.0000 0.69790  0.45950  0.33530  Biso   1.000  H
  C144     1.0000 0.28490  0.71130  0.82270  Biso   1.000  C
  H96      1.0000 0.32330  0.68160  0.84460  Biso   1.000  H
  N37      1.0000 0.56080  0.61620  0.08860  Biso   1.000  N
  N38      1.0000 0.20440  0.97000  0.08310  Biso   1.000  N
  N39      1.0000 0.19920  0.74570  0.72960  Biso   1.000  N
  N40      1.0000 0.35220  0.78960  0.02820  Biso   1.000  N
  N41      1.0000 0.26200  0.82260  0.93786  Biso   1.000  N
  N42      1.0000 0.34710  0.73280  0.94120  Biso   1.000  N
  N43      1.0000 0.72000  0.31330  0.57870  Biso   1.000  N
  N44      1.0000 0.08640  0.65720  0.59330  Biso   1.000  N
  N45      1.0000 0.72460  0.52900  0.22920  Biso   1.000  N
  N46      1.0000 0.87390  0.48790  0.52746  Biso   1.000  N
  N47      1.0000 0.87710  0.53700  0.44200  Biso   1.000  N
  N48      1.0000 0.78850  0.45050  0.43590  Biso   1.000  N
  Ag9      1.0000 0.65577  0.45737  0.63245  Biso   1.000  Ag
  Ag10     1.0000 0.67734  0.75389  0.13300  Biso   1.000  Ag
  C145     1.0000 0.87620  0.75650  0.49860  Biso   1.000  C
  C146     1.0000 0.40200  0.97070  0.99980  Biso   1.000  C
  C147     1.0000 0.27970  0.15230  0.10830  Biso   1.000  C
  H97      1.0000 0.29940  0.15690  0.14840  Biso   1.000  H
  C148     1.0000 0.96720  0.81150  0.58980  Biso   1.000  C
  H98      1.0000 0.94570  0.79050  0.61120  Biso   1.000  H
  C149     1.0000 0.94030  0.80130  0.53080  Biso   1.000  C
  C150     1.0000 0.22220  0.13840  0.99100  Biso   1.000  C
  H99      1.0000 0.20140  0.13500  0.95090  Biso   1.000  H
  C151     1.0000 0.55600  0.84420  0.03590  Biso   1.000  C
  H100     1.0000 0.57610  0.81650  0.01580  Biso   1.000  H
  C152     1.0000 0.76480  0.56450  0.61180  Biso   1.000  C
  H101     1.0000 0.78660  0.55750  0.65170  Biso   1.000  H
  C153     1.0000 0.70220  0.58400  0.49540  Biso   1.000  C
  H102     1.0000 0.68000  0.58820  0.45540  Biso   1.000  H
  C154     1.0000 0.75700  0.73680  0.34940  Biso   1.000  C
  C155     1.0000 0.31760  0.05220  0.99390  Biso   1.000  C
  C156     1.0000 0.49640  0.88450  0.00420  Biso   1.000  C
  H103     1.0000 0.47680  0.88330  0.96400  Biso   1.000  H
  C157     1.0000 0.79030  0.72610  0.41300  Biso   1.000  C
  C158     1.0000 0.97420  0.83510  0.50100  Biso   1.000  C
  H104     1.0000 0.95690  0.83060  0.46100  Biso   1.000  H
  C159     1.0000 0.46650  0.92660  0.03390  Biso   1.000  C
  C160     1.0000 0.76430  0.62130  0.52600  Biso   1.000  C
  C161     1.0000 0.79460  0.67200  0.49560  Biso   1.000  C
  C162     1.0000 0.32080  0.95590  0.81940  Biso   1.000  C
  H105     1.0000 0.36480  0.93810  0.83950  Biso   1.000  H
  C163     1.0000 0.79600  0.60970  0.58540  Biso   1.000  C
  H106     1.0000 0.83800  0.63230  0.60700  Biso   1.000  H
  C164     1.0000 0.03310  0.87500  0.53140  Biso   1.000  C
  H107     1.0000 0.05530  0.89720  0.51100  Biso   1.000  H
  C165     1.0000 0.28470  0.10190  0.02310  Biso   1.000  C
  C166     1.0000 0.31980  0.00210  0.91260  Biso   1.000  C
  C167     1.0000 0.28750  0.99170  0.84870  Biso   1.000  C
  C168     1.0000 0.19220  0.18010  0.02120  Biso   1.000  C
  H108     1.0000 0.15080  0.20450  0.00030  Biso   1.000  H
  C169     1.0000 0.67470  0.54060  0.52660  Biso   1.000  C
  H109     1.0000 0.63260  0.51740  0.50620  Biso   1.000  H
  C170     1.0000 0.02670  0.85360  0.61640  Biso   1.000  C
  H110     1.0000 0.04400  0.86130  0.65620  Biso   1.000  H
  C171     1.0000 0.49800  0.92730  0.09350  Biso   1.000  C
  H111     1.0000 0.48020  0.95670  0.11460  Biso   1.000  H
  C172     1.0000 0.19290  0.00490  0.75810  Biso   1.000  C
  H112     1.0000 0.14870  0.02150  0.73720  Biso   1.000  H
  C173     1.0000 0.31370  0.10990  0.08250  Biso   1.000  C
  H113     1.0000 0.35550  0.08730  0.10480  Biso   1.000  H
  C174     1.0000 0.28780  0.94670  0.75980  Biso   1.000  C
  H114     1.0000 0.31050  0.92260  0.74050  Biso   1.000  H
  C175     1.0000 0.55610  0.88360  0.12110  Biso   1.000  C
  H115     1.0000 0.57560  0.88210  0.16120  Biso   1.000  H
  C176     1.0000 0.75470  0.79530  0.26340  Biso   1.000  C
  H116     1.0000 0.77370  0.83000  0.24590  Biso   1.000  H
  C177     1.0000 0.69770  0.69850  0.31560  Biso   1.000  C
  H117     1.0000 0.67570  0.66680  0.33220  Biso   1.000  H
  C178     1.0000 0.67170  0.70800  0.25640  Biso   1.000  C
  H118     1.0000 0.63250  0.68030  0.23380  Biso   1.000  H
  C179     1.0000 0.22190  0.01650  0.81710  Biso   1.000  C
  H119     1.0000 0.19790  0.04050  0.83530  Biso   1.000  H
  C180     1.0000 0.78490  0.78870  0.32270  Biso   1.000  C
  H120     1.0000 0.82330  0.81840  0.34460  Biso   1.000  H
  N49      1.0000 0.06080  0.88380  0.58860  Biso   1.000  N
  N50      1.0000 0.70440  0.53000  0.58310  Biso   1.000  N
  N51      1.0000 0.69920  0.75430  0.22960  Biso   1.000  N
  N52      1.0000 0.85220  0.71040  0.52820  Biso   1.000  N
  N53      1.0000 0.76200  0.67740  0.43786  Biso   1.000  N
  N54      1.0000 0.84710  0.76720  0.44120  Biso   1.000  N
  N55      1.0000 0.22000  0.18670  0.07870  Biso   1.000  N
  N56      1.0000 0.58640  0.84280  0.09330  Biso   1.000  N
  N57      1.0000 0.22460  0.97100  0.72920  Biso   1.000  N
  N58      1.0000 0.37390  0.01210  0.02746  Biso   1.000  N
  N59      1.0000 0.37710  0.96300  0.94200  Biso   1.000  N
  N60      1.0000 0.28850  0.04950  0.93590  Biso   1.000  N
  Ag11     1.0000 0.15577  0.95737  0.63245  Biso   1.000  Ag
  Ag12     1.0000 0.17734  0.25389  0.13300  Biso   1.000  Ag
  C181     1.0000 0.37620  0.25650  0.49860  Biso   1.000  C
  C182     1.0000 0.90200  0.47070  0.99980  Biso   1.000  C
  C183     1.0000 0.77970  0.65230  0.10830  Biso   1.000  C
  H121     1.0000 0.79940  0.65690  0.14840  Biso   1.000  H
  C184     1.0000 0.46720  0.31150  0.58980  Biso   1.000  C
  H122     1.0000 0.44570  0.29050  0.61120  Biso   1.000  H
  C185     1.0000 0.44030  0.30130  0.53080  Biso   1.000  C
  C186     1.0000 0.72220  0.63840  0.99100  Biso   1.000  C
  H123     1.0000 0.70140  0.63500  0.95090  Biso   1.000  H
  C187     1.0000 0.05600  0.34420  0.03590  Biso   1.000  C
  H124     1.0000 0.07610  0.31650  0.01580  Biso   1.000  H
  C188     1.0000 0.26480  0.06450  0.61180  Biso   1.000  C
  H125     1.0000 0.28660  0.05750  0.65170  Biso   1.000  H
  C189     1.0000 0.20220  0.08400  0.49540  Biso   1.000  C
  H126     1.0000 0.18000  0.08820  0.45540  Biso   1.000  H
  C190     1.0000 0.25700  0.23680  0.34940  Biso   1.000  C
  C191     1.0000 0.81760  0.55220  0.99390  Biso   1.000  C
  C192     1.0000 0.99640  0.38450  0.00420  Biso   1.000  C
  H127     1.0000 0.97680  0.38330  0.96400  Biso   1.000  H
  C193     1.0000 0.29030  0.22610  0.41300  Biso   1.000  C
  C194     1.0000 0.47420  0.33510  0.50100  Biso   1.000  C
  H128     1.0000 0.45690  0.33060  0.46100  Biso   1.000  H
  C195     1.0000 0.96650  0.42660  0.03390  Biso   1.000  C
  C196     1.0000 0.26430  0.12130  0.52600  Biso   1.000  C
  C197     1.0000 0.29460  0.17200  0.49560  Biso   1.000  C
  C198     1.0000 0.82080  0.45590  0.81940  Biso   1.000  C
  H129     1.0000 0.86480  0.43810  0.83950  Biso   1.000  H
  C199     1.0000 0.29600  0.10970  0.58540  Biso   1.000  C
  H130     1.0000 0.33800  0.13230  0.60700  Biso   1.000  H
  C200     1.0000 0.53310  0.37500  0.53140  Biso   1.000  C
  H131     1.0000 0.55530  0.39720  0.51100  Biso   1.000  H
  C201     1.0000 0.78470  0.60190  0.02310  Biso   1.000  C
  C202     1.0000 0.81980  0.50210  0.91260  Biso   1.000  C
  C203     1.0000 0.78750  0.49170  0.84870  Biso   1.000  C
  C204     1.0000 0.69220  0.68010  0.02120  Biso   1.000  C
  H132     1.0000 0.65080  0.70450  0.00030  Biso   1.000  H
  C205     1.0000 0.17470  0.04060  0.52660  Biso   1.000  C
  H133     1.0000 0.13260  0.01740  0.50620  Biso   1.000  H
  C206     1.0000 0.52670  0.35360  0.61640  Biso   1.000  C
  H134     1.0000 0.54400  0.36130  0.65620  Biso   1.000  H
  C207     1.0000 0.99800  0.42730  0.09350  Biso   1.000  C
  H135     1.0000 0.98020  0.45670  0.11460  Biso   1.000  H
  C208     1.0000 0.69290  0.50490  0.75810  Biso   1.000  C
  H136     1.0000 0.64870  0.52150  0.73720  Biso   1.000  H
  C209     1.0000 0.81370  0.60990  0.08250  Biso   1.000  C
  H137     1.0000 0.85550  0.58730  0.10480  Biso   1.000  H
  C210     1.0000 0.78780  0.44670  0.75980  Biso   1.000  C
  H138     1.0000 0.81050  0.42260  0.74050  Biso   1.000  H
  C211     1.0000 0.05610  0.38360  0.12110  Biso   1.000  C
  H139     1.0000 0.07560  0.38210  0.16120  Biso   1.000  H
  C212     1.0000 0.25470  0.29530  0.26340  Biso   1.000  C
  H140     1.0000 0.27370  0.33000  0.24590  Biso   1.000  H
  C213     1.0000 0.19770  0.19850  0.31560  Biso   1.000  C
  H141     1.0000 0.17570  0.16680  0.33220  Biso   1.000  H
  C214     1.0000 0.17170  0.20800  0.25640  Biso   1.000  C
  H142     1.0000 0.13250  0.18030  0.23380  Biso   1.000  H
  C215     1.0000 0.72190  0.51650  0.81710  Biso   1.000  C
  H143     1.0000 0.69790  0.54050  0.83530  Biso   1.000  H
  C216     1.0000 0.28490  0.28870  0.32270  Biso   1.000  C
  H144     1.0000 0.32330  0.31840  0.34460  Biso   1.000  H
  N61      1.0000 0.56080  0.38380  0.58860  Biso   1.000  N
  N62      1.0000 0.20440  0.03000  0.58310  Biso   1.000  N
  N63      1.0000 0.19920  0.25430  0.22960  Biso   1.000  N
  N64      1.0000 0.35220  0.21040  0.52820  Biso   1.000  N
  N65      1.0000 0.26200  0.17740  0.43786  Biso   1.000  N
  N66      1.0000 0.34710  0.26720  0.44120  Biso   1.000  N
  N67      1.0000 0.72000  0.68670  0.07870  Biso   1.000  N
  N68      1.0000 0.08640  0.34280  0.09330  Biso   1.000  N
  N69      1.0000 0.72460  0.47100  0.72920  Biso   1.000  N
  N70      1.0000 0.87390  0.51210  0.02746  Biso   1.000  N
  N71      1.0000 0.87710  0.46300  0.94200  Biso   1.000  N
  N72      1.0000 0.78850  0.54950  0.93590  Biso   1.000  N
  Ag13     1.0000 0.34423  0.45737  0.86755  Biso   1.000  Ag
  Ag14     1.0000 0.32266  0.75389  0.36700  Biso   1.000  Ag
  C217     1.0000 0.12380  0.75650  0.00140  Biso   1.000  C
  C218     1.0000 0.59800  0.97070  0.50020  Biso   1.000  C
  C219     1.0000 0.72030  0.15230  0.39170  Biso   1.000  C
  H145     1.0000 0.70060  0.15690  0.35160  Biso   1.000  H
  C220     1.0000 0.03280  0.81150  0.91020  Biso   1.000  C
  H146     1.0000 0.05430  0.79050  0.88880  Biso   1.000  H
  C221     1.0000 0.05970  0.80130  0.96920  Biso   1.000  C
  C222     1.0000 0.77780  0.13840  0.50900  Biso   1.000  C
  H147     1.0000 0.79860  0.13500  0.54910  Biso   1.000  H
  C223     1.0000 0.44400  0.84420  0.46410  Biso   1.000  C
  H148     1.0000 0.42390  0.81650  0.48420  Biso   1.000  H
  C224     1.0000 0.23520  0.56450  0.88820  Biso   1.000  C
  H149     1.0000 0.21340  0.55750  0.84830  Biso   1.000  H
  C225     1.0000 0.29780  0.58400  0.00460  Biso   1.000  C
  H150     1.0000 0.32000  0.58820  0.04460  Biso   1.000  H
  C226     1.0000 0.24300  0.73680  0.15060  Biso   1.000  C
  C227     1.0000 0.68240  0.05220  0.50610  Biso   1.000  C
  C228     1.0000 0.50360  0.88450  0.49580  Biso   1.000  C
  H151     1.0000 0.52320  0.88330  0.53600  Biso   1.000  H
  C229     1.0000 0.20970  0.72610  0.08700  Biso   1.000  C
  C230     1.0000 0.02580  0.83510  0.99900  Biso   1.000  C
  H152     1.0000 0.04310  0.83060  0.03900  Biso   1.000  H
  C231     1.0000 0.53350  0.92660  0.46610  Biso   1.000  C
  C232     1.0000 0.23570  0.62130  0.97400  Biso   1.000  C
  C233     1.0000 0.20540  0.67200  0.00440  Biso   1.000  C
  C234     1.0000 0.67920  0.95590  0.68060  Biso   1.000  C
  H153     1.0000 0.63520  0.93810  0.66050  Biso   1.000  H
  C235     1.0000 0.20400  0.60970  0.91460  Biso   1.000  C
  H154     1.0000 0.16200  0.63230  0.89300  Biso   1.000  H
  C236     1.0000 0.96690  0.87500  0.96860  Biso   1.000  C
  H155     1.0000 0.94470  0.89720  0.98900  Biso   1.000  H
  C237     1.0000 0.71530  0.10190  0.47690  Biso   1.000  C
  C238     1.0000 0.68020  0.00210  0.58740  Biso   1.000  C
  C239     1.0000 0.71250  0.99170  0.65130  Biso   1.000  C
  C240     1.0000 0.80780  0.18010  0.47880  Biso   1.000  C
  H156     1.0000 0.84920  0.20450  0.49970  Biso   1.000  H
  C241     1.0000 0.32530  0.54060  0.97340  Biso   1.000  C
  H157     1.0000 0.36740  0.51740  0.99380  Biso   1.000  H
  C242     1.0000 0.97330  0.85360  0.88360  Biso   1.000  C
  H158     1.0000 0.95600  0.86130  0.84380  Biso   1.000  H
  C243     1.0000 0.50200  0.92730  0.40650  Biso   1.000  C
  H159     1.0000 0.51980  0.95670  0.38540  Biso   1.000  H
  C244     1.0000 0.80710  0.00490  0.74190  Biso   1.000  C
  H160     1.0000 0.85130  0.02150  0.76280  Biso   1.000  H
  C245     1.0000 0.68630  0.10990  0.41750  Biso   1.000  C
  H161     1.0000 0.64450  0.08730  0.39520  Biso   1.000  H
  C246     1.0000 0.71220  0.94670  0.74020  Biso   1.000  C
  H162     1.0000 0.68950  0.92260  0.75950  Biso   1.000  H
  C247     1.0000 0.44390  0.88360  0.37890  Biso   1.000  C
  H163     1.0000 0.42440  0.88210  0.33880  Biso   1.000  H
  C248     1.0000 0.24530  0.79530  0.23660  Biso   1.000  C
  H164     1.0000 0.22630  0.83000  0.25410  Biso   1.000  H
  C249     1.0000 0.30230  0.69850  0.18440  Biso   1.000  C
  H165     1.0000 0.32430  0.66680  0.16780  Biso   1.000  H
  C250     1.0000 0.32830  0.70800  0.24360  Biso   1.000  C
  H166     1.0000 0.36750  0.68030  0.26620  Biso   1.000  H
  C251     1.0000 0.77810  0.01650  0.68290  Biso   1.000  C
  H167     1.0000 0.80210  0.04050  0.66470  Biso   1.000  H
  C252     1.0000 0.21510  0.78870  0.17730  Biso   1.000  C
  H168     1.0000 0.17670  0.81840  0.15540  Biso   1.000  H
  N73      1.0000 0.93920  0.88380  0.91140  Biso   1.000  N
  N74      1.0000 0.29560  0.53000  0.91690  Biso   1.000  N
  N75      1.0000 0.30080  0.75430  0.27040  Biso   1.000  N
  N76      1.0000 0.14780  0.71040  0.97180  Biso   1.000  N
  N77      1.0000 0.23800  0.67740  0.06214  Biso   1.000  N
  N78      1.0000 0.15290  0.76720  0.05880  Biso   1.000  N
  N79      1.0000 0.78000  0.18670  0.42130  Biso   1.000  N
  N80      1.0000 0.41360  0.84280  0.40670  Biso   1.000  N
  N81      1.0000 0.77540  0.97100  0.77080  Biso   1.000  N
  N82      1.0000 0.62610  0.01210  0.47254  Biso   1.000  N
  N83      1.0000 0.62290  0.96300  0.55800  Biso   1.000  N
  N84      1.0000 0.71150  0.04950  0.56410  Biso   1.000  N
  Ag15     1.0000 0.84423  0.95737  0.86755  Biso   1.000  Ag
  Ag16     1.0000 0.82266  0.25389  0.36700  Biso   1.000  Ag
  C253     1.0000 0.62380  0.25650  0.00140  Biso   1.000  C
  C254     1.0000 0.09800  0.47070  0.50020  Biso   1.000  C
  C255     1.0000 0.22030  0.65230  0.39170  Biso   1.000  C
  H169     1.0000 0.20060  0.65690  0.35160  Biso   1.000  H
  C256     1.0000 0.53280  0.31150  0.91020  Biso   1.000  C
  H170     1.0000 0.55430  0.29050  0.88880  Biso   1.000  H
  C257     1.0000 0.55970  0.30130  0.96920  Biso   1.000  C
  C258     1.0000 0.27780  0.63840  0.50900  Biso   1.000  C
  H171     1.0000 0.29860  0.63500  0.54910  Biso   1.000  H
  C259     1.0000 0.94400  0.34420  0.46410  Biso   1.000  C
  H172     1.0000 0.92390  0.31650  0.48420  Biso   1.000  H
  C260     1.0000 0.73520  0.06450  0.88820  Biso   1.000  C
  H173     1.0000 0.71340  0.05750  0.84830  Biso   1.000  H
  C261     1.0000 0.79780  0.08400  0.00460  Biso   1.000  C
  H174     1.0000 0.82000  0.08820  0.04460  Biso   1.000  H
  C262     1.0000 0.74300  0.23680  0.15060  Biso   1.000  C
  C263     1.0000 0.18240  0.55220  0.50610  Biso   1.000  C
  C264     1.0000 0.00360  0.38450  0.49580  Biso   1.000  C
  H175     1.0000 0.02320  0.38330  0.53600  Biso   1.000  H
  C265     1.0000 0.70970  0.22610  0.08700  Biso   1.000  C
  C266     1.0000 0.52580  0.33510  0.99900  Biso   1.000  C
  H176     1.0000 0.54310  0.33060  0.03900  Biso   1.000  H
  C267     1.0000 0.03350  0.42660  0.46610  Biso   1.000  C
  C268     1.0000 0.73570  0.12130  0.97400  Biso   1.000  C
  C269     1.0000 0.70540  0.17200  0.00440  Biso   1.000  C
  C270     1.0000 0.17920  0.45590  0.68060  Biso   1.000  C
  H177     1.0000 0.13520  0.43810  0.66050  Biso   1.000  H
  C271     1.0000 0.70400  0.10970  0.91460  Biso   1.000  C
  H178     1.0000 0.66200  0.13230  0.89300  Biso   1.000  H
  C272     1.0000 0.46690  0.37500  0.96860  Biso   1.000  C
  H179     1.0000 0.44470  0.39720  0.98900  Biso   1.000  H
  C273     1.0000 0.21530  0.60190  0.47690  Biso   1.000  C
  C274     1.0000 0.18020  0.50210  0.58740  Biso   1.000  C
  C275     1.0000 0.21250  0.49170  0.65130  Biso   1.000  C
  C276     1.0000 0.30780  0.68010  0.47880  Biso   1.000  C
  H180     1.0000 0.34920  0.70450  0.49970  Biso   1.000  H
  C277     1.0000 0.82530  0.04060  0.97340  Biso   1.000  C
  H181     1.0000 0.86740  0.01740  0.99380  Biso   1.000  H
  C278     1.0000 0.47330  0.35360  0.88360  Biso   1.000  C
  H182     1.0000 0.45600  0.36130  0.84380  Biso   1.000  H
  C279     1.0000 0.00200  0.42730  0.40650  Biso   1.000  C
  H183     1.0000 0.01980  0.45670  0.38540  Biso   1.000  H
  C280     1.0000 0.30710  0.50490  0.74190  Biso   1.000  C
  H184     1.0000 0.35130  0.52150  0.76280  Biso   1.000  H
  C281     1.0000 0.18630  0.60990  0.41750  Biso   1.000  C
  H185     1.0000 0.14450  0.58730  0.39520  Biso   1.000  H
  C282     1.0000 0.21220  0.44670  0.74020  Biso   1.000  C
  H186     1.0000 0.18950  0.42260  0.75950  Biso   1.000  H
  C283     1.0000 0.94390  0.38360  0.37890  Biso   1.000  C
  H187     1.0000 0.92440  0.38210  0.33880  Biso   1.000  H
  C284     1.0000 0.74530  0.29530  0.23660  Biso   1.000  C
  H188     1.0000 0.72630  0.33000  0.25410  Biso   1.000  H
  C285     1.0000 0.80230  0.19850  0.18440  Biso   1.000  C
  H189     1.0000 0.82430  0.16680  0.16780  Biso   1.000  H
  C286     1.0000 0.82830  0.20800  0.24360  Biso   1.000  C
  H190     1.0000 0.86750  0.18030  0.26620  Biso   1.000  H
  C287     1.0000 0.27810  0.51650  0.68290  Biso   1.000  C
  H191     1.0000 0.30210  0.54050  0.66470  Biso   1.000  H
  C288     1.0000 0.71510  0.28870  0.17730  Biso   1.000  C
  H192     1.0000 0.67670  0.31840  0.15540  Biso   1.000  H
  N85      1.0000 0.43920  0.38380  0.91140  Biso   1.000  N
  N86      1.0000 0.79560  0.03000  0.91690  Biso   1.000  N
  N87      1.0000 0.80080  0.25430  0.27040  Biso   1.000  N
  N88      1.0000 0.64780  0.21040  0.97180  Biso   1.000  N
  N89      1.0000 0.73800  0.17740  0.06214  Biso   1.000  N
  N90      1.0000 0.65290  0.26720  0.05880  Biso   1.000  N
  N91      1.0000 0.28000  0.68670  0.42130  Biso   1.000  N
  N92      1.0000 0.91360  0.34280  0.40670  Biso   1.000  N
  N93      1.0000 0.27540  0.47100  0.77080  Biso   1.000  N
  N94      1.0000 0.12610  0.51210  0.47254  Biso   1.000  N
  N95      1.0000 0.12290  0.46300  0.55800  Biso   1.000  N
  N96      1.0000 0.21150  0.54950  0.56410  Biso   1.000  N
