data_image0
_cell_length_a       22.0267
_cell_length_b       16.6061
_cell_length_c       25.5742
_cell_angle_alpha    90
_cell_angle_beta     115.25
_cell_angle_gamma    90

_symmetry_space_group_name_H-M    "P 1"
_symmetry_int_tables_number       1

loop_
  _symmetry_equiv_pos_as_xyz
  'x, y, z'

loop_
  _atom_site_label
  _atom_site_occupancy
  _atom_site_fract_x
  _atom_site_fract_y
  _atom_site_fract_z
  _atom_site_thermal_displace_type
  _atom_site_B_iso_or_equiv
  _atom_site_type_symbol
  Ag1      1.0000 0.34424  0.95708  0.36726  Biso   1.000  Ag
  Ag2      1.0000 0.32227  0.25501  0.86675  Biso   1.000  Ag
  C1       1.0000 0.03270  0.31070  0.40960  Biso   1.000  C
  H1       1.0000 0.05400  0.28970  0.38800  Biso   1.000  H
  C2       1.0000 0.12370  0.25590  0.50100  Biso   1.000  C
  C3       1.0000 0.59780  0.47130  0.99950  Biso   1.000  C
  C4       1.0000 0.05980  0.30090  0.46880  Biso   1.000  C
  C5       1.0000 0.29770  0.08350  0.50430  Biso   1.000  C
  H2       1.0000 0.31990  0.08720  0.54440  Biso   1.000  H
  C6       1.0000 0.50390  0.38470  0.99540  Biso   1.000  C
  H3       1.0000 0.52360  0.38330  0.03560  Biso   1.000  H
  C7       1.0000 0.20950  0.22610  0.58640  Biso   1.000  C
  C8       1.0000 0.72030  0.65250  0.89110  Biso   1.000  C
  H4       1.0000 0.70060  0.65720  0.85110  Biso   1.000  H
  C9       1.0000 0.68200  0.55220  0.00560  Biso   1.000  C
  C10      1.0000 0.77750  0.63830  0.00860  Biso   1.000  C
  H5       1.0000 0.79840  0.63450  0.04870  Biso   1.000  H
  C11      1.0000 0.53330  0.42720  0.96540  Biso   1.000  C
  C12      1.0000 0.44410  0.34440  0.96340  Biso   1.000  C
  H6       1.0000 0.42420  0.31640  0.98350  Biso   1.000  H
  C13      1.0000 0.24280  0.23670  0.65040  Biso   1.000  C
  C14      1.0000 0.02600  0.33430  0.49860  Biso   1.000  C
  H7       1.0000 0.04310  0.32970  0.53860  Biso   1.000  H
  C15      1.0000 0.23530  0.06430  0.38770  Biso   1.000  C
  H8       1.0000 0.21350  0.05720  0.34780  Biso   1.000  H
  C16      1.0000 0.71480  0.60170  0.97650  Biso   1.000  C
  C17      1.0000 0.23540  0.12160  0.47350  Biso   1.000  C
  C18      1.0000 0.96700  0.37420  0.46790  Biso   1.000  C
  H9       1.0000 0.94500  0.39680  0.48830  Biso   1.000  H
  C19      1.0000 0.67880  0.45610  0.17950  Biso   1.000  C
  H10      1.0000 0.63480  0.43880  0.15920  Biso   1.000  H
  C20      1.0000 0.20410  0.10950  0.41430  Biso   1.000  C
  H11      1.0000 0.16200  0.13190  0.39250  Biso   1.000  H
  C21      1.0000 0.68020  0.50210  0.08690  Biso   1.000  C
  C22      1.0000 0.71240  0.49140  0.15110  Biso   1.000  C
  C23      1.0000 0.68650  0.60990  0.91730  Biso   1.000  C
  H12      1.0000 0.64490  0.58690  0.89490  Biso   1.000  H
  C24      1.0000 0.97310  0.35260  0.38310  Biso   1.000  C
  H13      1.0000 0.95560  0.36000  0.34330  Biso   1.000  H
  C25      1.0000 0.80730  0.68010  0.97870  Biso   1.000  C
  H14      1.0000 0.84860  0.70460  0.99990  Biso   1.000  H
  C26      1.0000 0.20530  0.17210  0.50380  Biso   1.000  C
  C27      1.0000 0.32480  0.04040  0.47310  Biso   1.000  C
  H15      1.0000 0.36680  0.01710  0.49350  Biso   1.000  H
  C28      1.0000 0.50160  0.42790  0.90570  Biso   1.000  C
  H16      1.0000 0.51910  0.45760  0.88460  Biso   1.000  H
  C29      1.0000 0.80660  0.50490  0.24130  Biso   1.000  C
  H17      1.0000 0.85060  0.52190  0.26240  Biso   1.000  H
  C30      1.0000 0.71180  0.44640  0.23920  Biso   1.000  C
  H18      1.0000 0.68900  0.42220  0.25840  Biso   1.000  H
  C31      1.0000 0.24490  0.29510  0.73590  Biso   1.000  C
  H19      1.0000 0.22600  0.32990  0.75340  Biso   1.000  H
  C32      1.0000 0.44380  0.38400  0.87820  Biso   1.000  C
  H20      1.0000 0.42450  0.38240  0.83800  Biso   1.000  H
  C33      1.0000 0.21440  0.28760  0.67680  Biso   1.000  C
  H21      1.0000 0.17540  0.31620  0.65490  Biso   1.000  H
  C34      1.0000 0.32800  0.20860  0.74300  Biso   1.000  C
  H22      1.0000 0.36720  0.18090  0.76560  Biso   1.000  H
  C35      1.0000 0.77800  0.51660  0.18220  Biso   1.000  C
  H23      1.0000 0.80190  0.54060  0.16400  Biso   1.000  H
  C36      1.0000 0.30220  0.19930  0.68390  Biso   1.000  C
  H24      1.0000 0.32450  0.16840  0.66720  Biso   1.000  H
  N1       1.0000 0.29570  0.03000  0.41670  Biso   1.000  N
  N2       1.0000 0.93920  0.38290  0.41080  Biso   1.000  N
  N3       1.0000 0.30080  0.25440  0.76970  Biso   1.000  N
  N4       1.0000 0.14770  0.21040  0.47140  Biso   1.000  N
  N5       1.0000 0.15260  0.26680  0.55810  Biso   1.000  N
  N6       1.0000 0.23790  0.17750  0.56170  Biso   1.000  N
  N7       1.0000 0.77990  0.68710  0.92110  Biso   1.000  N
  N8       1.0000 0.41350  0.34320  0.90590  Biso   1.000  N
  N9       1.0000 0.77530  0.47080  0.27000  Biso   1.000  N
  N10      1.0000 0.62590  0.51270  0.97210  Biso   1.000  N
  N11      1.0000 0.62290  0.46300  0.05750  Biso   1.000  N
  N12      1.0000 0.71100  0.54910  0.06350  Biso   1.000  N
  Ag3      1.0000 0.84424  0.45708  0.36726  Biso   1.000  Ag
  Ag4      1.0000 0.82227  0.75501  0.86675  Biso   1.000  Ag
  C37      1.0000 0.53270  0.81070  0.40960  Biso   1.000  C
  H25      1.0000 0.55400  0.78970  0.38800  Biso   1.000  H
  C38      1.0000 0.62370  0.75590  0.50100  Biso   1.000  C
  C39      1.0000 0.09780  0.97130  0.99950  Biso   1.000  C
  C40      1.0000 0.55980  0.80090  0.46880  Biso   1.000  C
  C41      1.0000 0.79770  0.58350  0.50430  Biso   1.000  C
  H26      1.0000 0.81990  0.58720  0.54440  Biso   1.000  H
  C42      1.0000 0.00390  0.88470  0.99540  Biso   1.000  C
  H27      1.0000 0.02360  0.88330  0.03560  Biso   1.000  H
  C43      1.0000 0.70950  0.72610  0.58640  Biso   1.000  C
  C44      1.0000 0.22030  0.15250  0.89110  Biso   1.000  C
  H28      1.0000 0.20060  0.15720  0.85110  Biso   1.000  H
  C45      1.0000 0.18200  0.05220  0.00560  Biso   1.000  C
  C46      1.0000 0.27750  0.13830  0.00860  Biso   1.000  C
  H29      1.0000 0.29840  0.13450  0.04870  Biso   1.000  H
  C47      1.0000 0.03330  0.92720  0.96540  Biso   1.000  C
  C48      1.0000 0.94410  0.84440  0.96340  Biso   1.000  C
  H30      1.0000 0.92420  0.81640  0.98350  Biso   1.000  H
  C49      1.0000 0.74280  0.73670  0.65040  Biso   1.000  C
  C50      1.0000 0.52600  0.83430  0.49860  Biso   1.000  C
  H31      1.0000 0.54310  0.82970  0.53860  Biso   1.000  H
  C51      1.0000 0.73530  0.56430  0.38770  Biso   1.000  C
  H32      1.0000 0.71350  0.55720  0.34780  Biso   1.000  H
  C52      1.0000 0.21480  0.10170  0.97650  Biso   1.000  C
  C53      1.0000 0.73540  0.62160  0.47350  Biso   1.000  C
  C54      1.0000 0.46700  0.87420  0.46790  Biso   1.000  C
  H33      1.0000 0.44500  0.89680  0.48830  Biso   1.000  H
  C55      1.0000 0.17880  0.95610  0.17950  Biso   1.000  C
  H34      1.0000 0.13480  0.93880  0.15920  Biso   1.000  H
  C56      1.0000 0.70410  0.60950  0.41430  Biso   1.000  C
  H35      1.0000 0.66200  0.63190  0.39250  Biso   1.000  H
  C57      1.0000 0.18020  0.00210  0.08690  Biso   1.000  C
  C58      1.0000 0.21240  0.99140  0.15110  Biso   1.000  C
  C59      1.0000 0.18650  0.10990  0.91730  Biso   1.000  C
  H36      1.0000 0.14490  0.08690  0.89490  Biso   1.000  H
  C60      1.0000 0.47310  0.85260  0.38310  Biso   1.000  C
  H37      1.0000 0.45560  0.86000  0.34330  Biso   1.000  H
  C61      1.0000 0.30730  0.18010  0.97870  Biso   1.000  C
  H38      1.0000 0.34860  0.20460  0.99990  Biso   1.000  H
  C62      1.0000 0.70530  0.67210  0.50380  Biso   1.000  C
  C63      1.0000 0.82480  0.54040  0.47310  Biso   1.000  C
  H39      1.0000 0.86680  0.51710  0.49350  Biso   1.000  H
  C64      1.0000 0.00160  0.92790  0.90570  Biso   1.000  C
  H40      1.0000 0.01910  0.95760  0.88460  Biso   1.000  H
  C65      1.0000 0.30660  0.00490  0.24130  Biso   1.000  C
  H41      1.0000 0.35060  0.02190  0.26240  Biso   1.000  H
  C66      1.0000 0.21180  0.94640  0.23920  Biso   1.000  C
  H42      1.0000 0.18900  0.92220  0.25840  Biso   1.000  H
  C67      1.0000 0.74490  0.79510  0.73590  Biso   1.000  C
  H43      1.0000 0.72600  0.82990  0.75340  Biso   1.000  H
  C68      1.0000 0.94380  0.88400  0.87820  Biso   1.000  C
  H44      1.0000 0.92450  0.88240  0.83800  Biso   1.000  H
  C69      1.0000 0.71440  0.78760  0.67680  Biso   1.000  C
  H45      1.0000 0.67540  0.81620  0.65490  Biso   1.000  H
  C70      1.0000 0.82800  0.70860  0.74300  Biso   1.000  C
  H46      1.0000 0.86720  0.68090  0.76560  Biso   1.000  H
  C71      1.0000 0.27800  0.01660  0.18220  Biso   1.000  C
  H47      1.0000 0.30190  0.04060  0.16400  Biso   1.000  H
  C72      1.0000 0.80220  0.69930  0.68390  Biso   1.000  C
  H48      1.0000 0.82450  0.66840  0.66720  Biso   1.000  H
  N13      1.0000 0.79570  0.53000  0.41670  Biso   1.000  N
  N14      1.0000 0.43920  0.88290  0.41080  Biso   1.000  N
  N15      1.0000 0.80080  0.75440  0.76970  Biso   1.000  N
  N16      1.0000 0.64770  0.71040  0.47140  Biso   1.000  N
  N17      1.0000 0.65260  0.76680  0.55810  Biso   1.000  N
  N18      1.0000 0.73790  0.67750  0.56170  Biso   1.000  N
  N19      1.0000 0.27990  0.18710  0.92110  Biso   1.000  N
  N20      1.0000 0.91350  0.84320  0.90590  Biso   1.000  N
  N21      1.0000 0.27530  0.97080  0.27000  Biso   1.000  N
  N22      1.0000 0.12590  0.01270  0.97210  Biso   1.000  N
  N23      1.0000 0.12290  0.96300  0.05750  Biso   1.000  N
  N24      1.0000 0.21100  0.04910  0.06350  Biso   1.000  N
  Ag5      1.0000 0.65576  0.95708  0.13274  Biso   1.000  Ag
  Ag6      1.0000 0.67773  0.25501  0.63325  Biso   1.000  Ag
  C73      1.0000 0.96730  0.31070  0.09040  Biso   1.000  C
  H49      1.0000 0.94600  0.28970  0.11200  Biso   1.000  H
  C74      1.0000 0.87630  0.25590  0.99900  Biso   1.000  C
  C75      1.0000 0.40220  0.47130  0.50050  Biso   1.000  C
  C76      1.0000 0.94020  0.30090  0.03120  Biso   1.000  C
  C77      1.0000 0.70230  0.08350  0.99570  Biso   1.000  C
  H50      1.0000 0.68010  0.08720  0.95560  Biso   1.000  H
  C78      1.0000 0.49610  0.38470  0.50460  Biso   1.000  C
  H51      1.0000 0.47640  0.38330  0.46440  Biso   1.000  H
  C79      1.0000 0.79050  0.22610  0.91360  Biso   1.000  C
  C80      1.0000 0.27970  0.65250  0.60890  Biso   1.000  C
  H52      1.0000 0.29940  0.65720  0.64890  Biso   1.000  H
  C81      1.0000 0.31800  0.55220  0.49440  Biso   1.000  C
  C82      1.0000 0.22250  0.63830  0.49140  Biso   1.000  C
  H53      1.0000 0.20160  0.63450  0.45130  Biso   1.000  H
  C83      1.0000 0.46670  0.42720  0.53460  Biso   1.000  C
  C84      1.0000 0.55590  0.34440  0.53660  Biso   1.000  C
  H54      1.0000 0.57580  0.31640  0.51650  Biso   1.000  H
  C85      1.0000 0.75720  0.23670  0.84960  Biso   1.000  C
  C86      1.0000 0.97400  0.33430  0.00140  Biso   1.000  C
  H55      1.0000 0.95690  0.32970  0.96140  Biso   1.000  H
  C87      1.0000 0.76470  0.06430  0.11230  Biso   1.000  C
  H56      1.0000 0.78650  0.05720  0.15220  Biso   1.000  H
  C88      1.0000 0.28520  0.60170  0.52350  Biso   1.000  C
  C89      1.0000 0.76460  0.12160  0.02650  Biso   1.000  C
  C90      1.0000 0.03300  0.37420  0.03210  Biso   1.000  C
  H57      1.0000 0.05500  0.39680  0.01170  Biso   1.000  H
  C91      1.0000 0.32120  0.45610  0.32050  Biso   1.000  C
  H58      1.0000 0.36520  0.43880  0.34080  Biso   1.000  H
  C92      1.0000 0.79590  0.10950  0.08570  Biso   1.000  C
  H59      1.0000 0.83800  0.13190  0.10750  Biso   1.000  H
  C93      1.0000 0.31980  0.50210  0.41310  Biso   1.000  C
  C94      1.0000 0.28760  0.49140  0.34890  Biso   1.000  C
  C95      1.0000 0.31350  0.60990  0.58270  Biso   1.000  C
  H60      1.0000 0.35510  0.58690  0.60510  Biso   1.000  H
  C96      1.0000 0.02690  0.35260  0.11690  Biso   1.000  C
  H61      1.0000 0.04440  0.36000  0.15670  Biso   1.000  H
  C97      1.0000 0.19270  0.68010  0.52130  Biso   1.000  C
  H62      1.0000 0.15140  0.70460  0.50010  Biso   1.000  H
  C98      1.0000 0.79470  0.17210  0.99620  Biso   1.000  C
  C99      1.0000 0.67520  0.04040  0.02690  Biso   1.000  C
  H63      1.0000 0.63320  0.01710  0.00650  Biso   1.000  H
  C100     1.0000 0.49840  0.42790  0.59430  Biso   1.000  C
  H64      1.0000 0.48090  0.45760  0.61540  Biso   1.000  H
  C101     1.0000 0.19340  0.50490  0.25870  Biso   1.000  C
  H65      1.0000 0.14940  0.52190  0.23760  Biso   1.000  H
  C102     1.0000 0.28820  0.44640  0.26080  Biso   1.000  C
  H66      1.0000 0.31100  0.42220  0.24160  Biso   1.000  H
  C103     1.0000 0.75510  0.29510  0.76410  Biso   1.000  C
  H67      1.0000 0.77400  0.32990  0.74660  Biso   1.000  H
  C104     1.0000 0.55620  0.38400  0.62180  Biso   1.000  C
  H68      1.0000 0.57550  0.38240  0.66200  Biso   1.000  H
  C105     1.0000 0.78560  0.28760  0.82320  Biso   1.000  C
  H69      1.0000 0.82460  0.31620  0.84510  Biso   1.000  H
  C106     1.0000 0.67200  0.20860  0.75700  Biso   1.000  C
  H70      1.0000 0.63280  0.18090  0.73440  Biso   1.000  H
  C107     1.0000 0.22200  0.51660  0.31780  Biso   1.000  C
  H71      1.0000 0.19810  0.54060  0.33600  Biso   1.000  H
  C108     1.0000 0.69780  0.19930  0.81610  Biso   1.000  C
  H72      1.0000 0.67550  0.16840  0.83280  Biso   1.000  H
  N25      1.0000 0.70430  0.03000  0.08330  Biso   1.000  N
  N26      1.0000 0.06080  0.38290  0.08920  Biso   1.000  N
  N27      1.0000 0.69920  0.25440  0.73030  Biso   1.000  N
  N28      1.0000 0.85230  0.21040  0.02860  Biso   1.000  N
  N29      1.0000 0.84740  0.26680  0.94190  Biso   1.000  N
  N30      1.0000 0.76210  0.17750  0.93830  Biso   1.000  N
  N31      1.0000 0.22010  0.68710  0.57890  Biso   1.000  N
  N32      1.0000 0.58650  0.34320  0.59410  Biso   1.000  N
  N33      1.0000 0.22470  0.47080  0.23000  Biso   1.000  N
  N34      1.0000 0.37410  0.51270  0.52790  Biso   1.000  N
  N35      1.0000 0.37710  0.46300  0.44250  Biso   1.000  N
  N36      1.0000 0.28900  0.54910  0.43650  Biso   1.000  N
  Ag7      1.0000 0.15576  0.45708  0.13274  Biso   1.000  Ag
  Ag8      1.0000 0.17773  0.75501  0.63325  Biso   1.000  Ag
  C109     1.0000 0.46730  0.81070  0.09040  Biso   1.000  C
  H73      1.0000 0.44600  0.78970  0.11200  Biso   1.000  H
  C110     1.0000 0.37630  0.75590  0.99900  Biso   1.000  C
  C111     1.0000 0.90220  0.97130  0.50050  Biso   1.000  C
  C112     1.0000 0.44020  0.80090  0.03120  Biso   1.000  C
  C113     1.0000 0.20230  0.58350  0.99570  Biso   1.000  C
  H74      1.0000 0.18010  0.58720  0.95560  Biso   1.000  H
  C114     1.0000 0.99610  0.88470  0.50460  Biso   1.000  C
  H75      1.0000 0.97640  0.88330  0.46440  Biso   1.000  H
  C115     1.0000 0.29050  0.72610  0.91360  Biso   1.000  C
  C116     1.0000 0.77970  0.15250  0.60890  Biso   1.000  C
  H76      1.0000 0.79940  0.15720  0.64890  Biso   1.000  H
  C117     1.0000 0.81800  0.05220  0.49440  Biso   1.000  C
  C118     1.0000 0.72250  0.13830  0.49140  Biso   1.000  C
  H77      1.0000 0.70160  0.13450  0.45130  Biso   1.000  H
  C119     1.0000 0.96670  0.92720  0.53460  Biso   1.000  C
  C120     1.0000 0.05590  0.84440  0.53660  Biso   1.000  C
  H78      1.0000 0.07580  0.81640  0.51650  Biso   1.000  H
  C121     1.0000 0.25720  0.73670  0.84960  Biso   1.000  C
  C122     1.0000 0.47400  0.83430  0.00140  Biso   1.000  C
  H79      1.0000 0.45690  0.82970  0.96140  Biso   1.000  H
  C123     1.0000 0.26470  0.56430  0.11230  Biso   1.000  C
  H80      1.0000 0.28650  0.55720  0.15220  Biso   1.000  H
  C124     1.0000 0.78520  0.10170  0.52350  Biso   1.000  C
  C125     1.0000 0.26460  0.62160  0.02650  Biso   1.000  C
  C126     1.0000 0.53300  0.87420  0.03210  Biso   1.000  C
  H81      1.0000 0.55500  0.89680  0.01170  Biso   1.000  H
  C127     1.0000 0.82120  0.95610  0.32050  Biso   1.000  C
  H82      1.0000 0.86520  0.93880  0.34080  Biso   1.000  H
  C128     1.0000 0.29590  0.60950  0.08570  Biso   1.000  C
  H83      1.0000 0.33800  0.63190  0.10750  Biso   1.000  H
  C129     1.0000 0.81980  0.00210  0.41310  Biso   1.000  C
  C130     1.0000 0.78760  0.99140  0.34890  Biso   1.000  C
  C131     1.0000 0.81350  0.10990  0.58270  Biso   1.000  C
  H84      1.0000 0.85510  0.08690  0.60510  Biso   1.000  H
  C132     1.0000 0.52690  0.85260  0.11690  Biso   1.000  C
  H85      1.0000 0.54440  0.86000  0.15670  Biso   1.000  H
  C133     1.0000 0.69270  0.18010  0.52130  Biso   1.000  C
  H86      1.0000 0.65140  0.20460  0.50010  Biso   1.000  H
  C134     1.0000 0.29470  0.67210  0.99620  Biso   1.000  C
  C135     1.0000 0.17520  0.54040  0.02690  Biso   1.000  C
  H87      1.0000 0.13320  0.51710  0.00650  Biso   1.000  H
  C136     1.0000 0.99840  0.92790  0.59430  Biso   1.000  C
  H88      1.0000 0.98090  0.95760  0.61540  Biso   1.000  H
  C137     1.0000 0.69340  0.00490  0.25870  Biso   1.000  C
  H89      1.0000 0.64940  0.02190  0.23760  Biso   1.000  H
  C138     1.0000 0.78820  0.94640  0.26080  Biso   1.000  C
  H90      1.0000 0.81100  0.92220  0.24160  Biso   1.000  H
  C139     1.0000 0.25510  0.79510  0.76410  Biso   1.000  C
  H91      1.0000 0.27400  0.82990  0.74660  Biso   1.000  H
  C140     1.0000 0.05620  0.88400  0.62180  Biso   1.000  C
  H92      1.0000 0.07550  0.88240  0.66200  Biso   1.000  H
  C141     1.0000 0.28560  0.78760  0.82320  Biso   1.000  C
  H93      1.0000 0.32460  0.81620  0.84510  Biso   1.000  H
  C142     1.0000 0.17200  0.70860  0.75700  Biso   1.000  C
  H94      1.0000 0.13280  0.68090  0.73440  Biso   1.000  H
  C143     1.0000 0.72200  0.01660  0.31780  Biso   1.000  C
  H95      1.0000 0.69810  0.04060  0.33600  Biso   1.000  H
  C144     1.0000 0.19780  0.69930  0.81610  Biso   1.000  C
  H96      1.0000 0.17550  0.66840  0.83280  Biso   1.000  H
  N37      1.0000 0.20430  0.53000  0.08330  Biso   1.000  N
  N38      1.0000 0.56080  0.88290  0.08920  Biso   1.000  N
  N39      1.0000 0.19920  0.75440  0.73030  Biso   1.000  N
  N40      1.0000 0.35230  0.71040  0.02860  Biso   1.000  N
  N41      1.0000 0.34740  0.76680  0.94190  Biso   1.000  N
  N42      1.0000 0.26210  0.67750  0.93830  Biso   1.000  N
  N43      1.0000 0.72010  0.18710  0.57890  Biso   1.000  N
  N44      1.0000 0.08650  0.84320  0.59410  Biso   1.000  N
  N45      1.0000 0.72470  0.97080  0.23000  Biso   1.000  N
  N46      1.0000 0.87410  0.01270  0.52790  Biso   1.000  N
  N47      1.0000 0.87710  0.96300  0.44250  Biso   1.000  N
  N48      1.0000 0.78900  0.04910  0.43650  Biso   1.000  N
  Ag9      1.0000 0.65576  0.04292  0.63274  Biso   1.000  Ag
  Ag10     1.0000 0.67773  0.74499  0.13325  Biso   1.000  Ag
  C145     1.0000 0.96730  0.68930  0.59040  Biso   1.000  C
  H97      1.0000 0.94600  0.71030  0.61200  Biso   1.000  H
  C146     1.0000 0.87630  0.74410  0.49900  Biso   1.000  C
  C147     1.0000 0.40220  0.52870  0.00050  Biso   1.000  C
  C148     1.0000 0.94020  0.69910  0.53120  Biso   1.000  C
  C149     1.0000 0.70230  0.91650  0.49570  Biso   1.000  C
  H98      1.0000 0.68010  0.91280  0.45560  Biso   1.000  H
  C150     1.0000 0.49610  0.61530  0.00460  Biso   1.000  C
  H99      1.0000 0.47640  0.61670  0.96440  Biso   1.000  H
  C151     1.0000 0.79050  0.77390  0.41360  Biso   1.000  C
  C152     1.0000 0.27970  0.34750  0.10890  Biso   1.000  C
  H100     1.0000 0.29940  0.34280  0.14890  Biso   1.000  H
  C153     1.0000 0.31800  0.44780  0.99440  Biso   1.000  C
  C154     1.0000 0.22250  0.36170  0.99140  Biso   1.000  C
  H101     1.0000 0.20160  0.36550  0.95130  Biso   1.000  H
  C155     1.0000 0.46670  0.57280  0.03460  Biso   1.000  C
  C156     1.0000 0.55590  0.65560  0.03660  Biso   1.000  C
  H102     1.0000 0.57580  0.68360  0.01650  Biso   1.000  H
  C157     1.0000 0.75720  0.76330  0.34960  Biso   1.000  C
  C158     1.0000 0.97400  0.66570  0.50140  Biso   1.000  C
  H103     1.0000 0.95690  0.67030  0.46140  Biso   1.000  H
  C159     1.0000 0.76470  0.93570  0.61230  Biso   1.000  C
  H104     1.0000 0.78650  0.94280  0.65220  Biso   1.000  H
  C160     1.0000 0.28520  0.39830  0.02350  Biso   1.000  C
  C161     1.0000 0.76460  0.87840  0.52650  Biso   1.000  C
  C162     1.0000 0.03300  0.62580  0.53210  Biso   1.000  C
  H105     1.0000 0.05500  0.60320  0.51170  Biso   1.000  H
  C163     1.0000 0.32120  0.54390  0.82050  Biso   1.000  C
  H106     1.0000 0.36520  0.56120  0.84080  Biso   1.000  H
  C164     1.0000 0.79590  0.89050  0.58570  Biso   1.000  C
  H107     1.0000 0.83800  0.86810  0.60750  Biso   1.000  H
  C165     1.0000 0.31980  0.49790  0.91310  Biso   1.000  C
  C166     1.0000 0.28760  0.50860  0.84890  Biso   1.000  C
  C167     1.0000 0.31350  0.39010  0.08270  Biso   1.000  C
  H108     1.0000 0.35510  0.41310  0.10510  Biso   1.000  H
  C168     1.0000 0.02690  0.64740  0.61690  Biso   1.000  C
  H109     1.0000 0.04440  0.64000  0.65670  Biso   1.000  H
  C169     1.0000 0.19270  0.31990  0.02130  Biso   1.000  C
  H110     1.0000 0.15140  0.29540  0.00010  Biso   1.000  H
  C170     1.0000 0.79470  0.82790  0.49620  Biso   1.000  C
  C171     1.0000 0.67520  0.95960  0.52690  Biso   1.000  C
  H111     1.0000 0.63320  0.98290  0.50650  Biso   1.000  H
  C172     1.0000 0.49840  0.57210  0.09430  Biso   1.000  C
  H112     1.0000 0.48090  0.54240  0.11540  Biso   1.000  H
  C173     1.0000 0.19340  0.49510  0.75870  Biso   1.000  C
  H113     1.0000 0.14940  0.47810  0.73760  Biso   1.000  H
  C174     1.0000 0.28820  0.55360  0.76080  Biso   1.000  C
  H114     1.0000 0.31100  0.57780  0.74160  Biso   1.000  H
  C175     1.0000 0.75510  0.70490  0.26410  Biso   1.000  C
  H115     1.0000 0.77400  0.67010  0.24660  Biso   1.000  H
  C176     1.0000 0.55620  0.61600  0.12180  Biso   1.000  C
  H116     1.0000 0.57550  0.61760  0.16200  Biso   1.000  H
  C177     1.0000 0.78560  0.71240  0.32320  Biso   1.000  C
  H117     1.0000 0.82460  0.68380  0.34510  Biso   1.000  H
  C178     1.0000 0.67200  0.79140  0.25700  Biso   1.000  C
  H118     1.0000 0.63280  0.81910  0.23440  Biso   1.000  H
  C179     1.0000 0.22200  0.48340  0.81780  Biso   1.000  C
  H119     1.0000 0.19810  0.45940  0.83600  Biso   1.000  H
  C180     1.0000 0.69780  0.80070  0.31610  Biso   1.000  C
  H120     1.0000 0.67550  0.83160  0.33280  Biso   1.000  H
  N49      1.0000 0.70430  0.97000  0.58330  Biso   1.000  N
  N50      1.0000 0.06080  0.61710  0.58920  Biso   1.000  N
  N51      1.0000 0.69920  0.74560  0.23030  Biso   1.000  N
  N52      1.0000 0.85230  0.78960  0.52860  Biso   1.000  N
  N53      1.0000 0.84740  0.73320  0.44190  Biso   1.000  N
  N54      1.0000 0.76210  0.82250  0.43830  Biso   1.000  N
  N55      1.0000 0.22010  0.31290  0.07890  Biso   1.000  N
  N56      1.0000 0.58650  0.65680  0.09410  Biso   1.000  N
  N57      1.0000 0.22470  0.52920  0.73000  Biso   1.000  N
  N58      1.0000 0.37410  0.48730  0.02790  Biso   1.000  N
  N59      1.0000 0.37710  0.53700  0.94250  Biso   1.000  N
  N60      1.0000 0.28900  0.45090  0.93650  Biso   1.000  N
  Ag11     1.0000 0.15576  0.54292  0.63274  Biso   1.000  Ag
  Ag12     1.0000 0.17773  0.24499  0.13325  Biso   1.000  Ag
  C181     1.0000 0.46730  0.18930  0.59040  Biso   1.000  C
  H121     1.0000 0.44600  0.21030  0.61200  Biso   1.000  H
  C182     1.0000 0.37630  0.24410  0.49900  Biso   1.000  C
  C183     1.0000 0.90220  0.02870  0.00050  Biso   1.000  C
  C184     1.0000 0.44020  0.19910  0.53120  Biso   1.000  C
  C185     1.0000 0.20230  0.41650  0.49570  Biso   1.000  C
  H122     1.0000 0.18010  0.41280  0.45560  Biso   1.000  H
  C186     1.0000 0.99610  0.11530  0.00460  Biso   1.000  C
  H123     1.0000 0.97640  0.11670  0.96440  Biso   1.000  H
  C187     1.0000 0.29050  0.27390  0.41360  Biso   1.000  C
  C188     1.0000 0.77970  0.84750  0.10890  Biso   1.000  C
  H124     1.0000 0.79940  0.84280  0.14890  Biso   1.000  H
  C189     1.0000 0.81800  0.94780  0.99440  Biso   1.000  C
  C190     1.0000 0.72250  0.86170  0.99140  Biso   1.000  C
  H125     1.0000 0.70160  0.86550  0.95130  Biso   1.000  H
  C191     1.0000 0.96670  0.07280  0.03460  Biso   1.000  C
  C192     1.0000 0.05590  0.15560  0.03660  Biso   1.000  C
  H126     1.0000 0.07580  0.18360  0.01650  Biso   1.000  H
  C193     1.0000 0.25720  0.26330  0.34960  Biso   1.000  C
  C194     1.0000 0.47400  0.16570  0.50140  Biso   1.000  C
  H127     1.0000 0.45690  0.17030  0.46140  Biso   1.000  H
  C195     1.0000 0.26470  0.43570  0.61230  Biso   1.000  C
  H128     1.0000 0.28650  0.44280  0.65220  Biso   1.000  H
  C196     1.0000 0.78520  0.89830  0.02350  Biso   1.000  C
  C197     1.0000 0.26460  0.37840  0.52650  Biso   1.000  C
  C198     1.0000 0.53300  0.12580  0.53210  Biso   1.000  C
  H129     1.0000 0.55500  0.10320  0.51170  Biso   1.000  H
  C199     1.0000 0.82120  0.04390  0.82050  Biso   1.000  C
  H130     1.0000 0.86520  0.06120  0.84080  Biso   1.000  H
  C200     1.0000 0.29590  0.39050  0.58570  Biso   1.000  C
  H131     1.0000 0.33800  0.36810  0.60750  Biso   1.000  H
  C201     1.0000 0.81980  0.99790  0.91310  Biso   1.000  C
  C202     1.0000 0.78760  0.00860  0.84890  Biso   1.000  C
  C203     1.0000 0.81350  0.89010  0.08270  Biso   1.000  C
  H132     1.0000 0.85510  0.91310  0.10510  Biso   1.000  H
  C204     1.0000 0.52690  0.14740  0.61690  Biso   1.000  C
  H133     1.0000 0.54440  0.14000  0.65670  Biso   1.000  H
  C205     1.0000 0.69270  0.81990  0.02130  Biso   1.000  C
  H134     1.0000 0.65140  0.79540  0.00010  Biso   1.000  H
  C206     1.0000 0.29470  0.32790  0.49620  Biso   1.000  C
  C207     1.0000 0.17520  0.45960  0.52690  Biso   1.000  C
  H135     1.0000 0.13320  0.48290  0.50650  Biso   1.000  H
  C208     1.0000 0.99840  0.07210  0.09430  Biso   1.000  C
  H136     1.0000 0.98090  0.04240  0.11540  Biso   1.000  H
  C209     1.0000 0.69340  0.99510  0.75870  Biso   1.000  C
  H137     1.0000 0.64940  0.97810  0.73760  Biso   1.000  H
  C210     1.0000 0.78820  0.05360  0.76080  Biso   1.000  C
  H138     1.0000 0.81100  0.07780  0.74160  Biso   1.000  H
  C211     1.0000 0.25510  0.20490  0.26410  Biso   1.000  C
  H139     1.0000 0.27400  0.17010  0.24660  Biso   1.000  H
  C212     1.0000 0.05620  0.11600  0.12180  Biso   1.000  C
  H140     1.0000 0.07550  0.11760  0.16200  Biso   1.000  H
  C213     1.0000 0.28560  0.21240  0.32320  Biso   1.000  C
  H141     1.0000 0.32460  0.18380  0.34510  Biso   1.000  H
  C214     1.0000 0.17200  0.29140  0.25700  Biso   1.000  C
  H142     1.0000 0.13280  0.31910  0.23440  Biso   1.000  H
  C215     1.0000 0.72200  0.98340  0.81780  Biso   1.000  C
  H143     1.0000 0.69810  0.95940  0.83600  Biso   1.000  H
  C216     1.0000 0.19780  0.30070  0.31610  Biso   1.000  C
  H144     1.0000 0.17550  0.33160  0.33280  Biso   1.000  H
  N61      1.0000 0.20430  0.47000  0.58330  Biso   1.000  N
  N62      1.0000 0.56080  0.11710  0.58920  Biso   1.000  N
  N63      1.0000 0.19920  0.24560  0.23030  Biso   1.000  N
  N64      1.0000 0.35230  0.28960  0.52860  Biso   1.000  N
  N65      1.0000 0.34740  0.23320  0.44190  Biso   1.000  N
  N66      1.0000 0.26210  0.32250  0.43830  Biso   1.000  N
  N67      1.0000 0.72010  0.81290  0.07890  Biso   1.000  N
  N68      1.0000 0.08650  0.15680  0.09410  Biso   1.000  N
  N69      1.0000 0.72470  0.02920  0.73000  Biso   1.000  N
  N70      1.0000 0.87410  0.98730  0.02790  Biso   1.000  N
  N71      1.0000 0.87710  0.03700  0.94250  Biso   1.000  N
  N72      1.0000 0.78900  0.95090  0.93650  Biso   1.000  N
  Ag13     1.0000 0.34424  0.04292  0.86726  Biso   1.000  Ag
  Ag14     1.0000 0.32227  0.74499  0.36675  Biso   1.000  Ag
  C217     1.0000 0.03270  0.68930  0.90960  Biso   1.000  C
  H145     1.0000 0.05400  0.71030  0.88800  Biso   1.000  H
  C218     1.0000 0.12370  0.74410  0.00100  Biso   1.000  C
  C219     1.0000 0.59780  0.52870  0.49950  Biso   1.000  C
  C220     1.0000 0.05980  0.69910  0.96880  Biso   1.000  C
  C221     1.0000 0.29770  0.91650  0.00430  Biso   1.000  C
  H146     1.0000 0.31990  0.91280  0.04440  Biso   1.000  H
  C222     1.0000 0.50390  0.61530  0.49540  Biso   1.000  C
  H147     1.0000 0.52360  0.61670  0.53560  Biso   1.000  H
  C223     1.0000 0.20950  0.77390  0.08640  Biso   1.000  C
  C224     1.0000 0.72030  0.34750  0.39110  Biso   1.000  C
  H148     1.0000 0.70060  0.34280  0.35110  Biso   1.000  H
  C225     1.0000 0.68200  0.44780  0.50560  Biso   1.000  C
  C226     1.0000 0.77750  0.36170  0.50860  Biso   1.000  C
  H149     1.0000 0.79840  0.36550  0.54870  Biso   1.000  H
  C227     1.0000 0.53330  0.57280  0.46540  Biso   1.000  C
  C228     1.0000 0.44410  0.65560  0.46340  Biso   1.000  C
  H150     1.0000 0.42420  0.68360  0.48350  Biso   1.000  H
  C229     1.0000 0.24280  0.76330  0.15040  Biso   1.000  C
  C230     1.0000 0.02600  0.66570  0.99860  Biso   1.000  C
  H151     1.0000 0.04310  0.67030  0.03860  Biso   1.000  H
  C231     1.0000 0.23530  0.93570  0.88770  Biso   1.000  C
  H152     1.0000 0.21350  0.94280  0.84780  Biso   1.000  H
  C232     1.0000 0.71480  0.39830  0.47650  Biso   1.000  C
  C233     1.0000 0.23540  0.87840  0.97350  Biso   1.000  C
  C234     1.0000 0.96700  0.62580  0.96790  Biso   1.000  C
  H153     1.0000 0.94500  0.60320  0.98830  Biso   1.000  H
  C235     1.0000 0.67880  0.54390  0.67950  Biso   1.000  C
  H154     1.0000 0.63480  0.56120  0.65920  Biso   1.000  H
  C236     1.0000 0.20410  0.89050  0.91430  Biso   1.000  C
  H155     1.0000 0.16200  0.86810  0.89250  Biso   1.000  H
  C237     1.0000 0.68020  0.49790  0.58690  Biso   1.000  C
  C238     1.0000 0.71240  0.50860  0.65110  Biso   1.000  C
  C239     1.0000 0.68650  0.39010  0.41730  Biso   1.000  C
  H156     1.0000 0.64490  0.41310  0.39490  Biso   1.000  H
  C240     1.0000 0.97310  0.64740  0.88310  Biso   1.000  C
  H157     1.0000 0.95560  0.64000  0.84330  Biso   1.000  H
  C241     1.0000 0.80730  0.31990  0.47870  Biso   1.000  C
  H158     1.0000 0.84860  0.29540  0.49990  Biso   1.000  H
  C242     1.0000 0.20530  0.82790  0.00380  Biso   1.000  C
  C243     1.0000 0.32480  0.95960  0.97310  Biso   1.000  C
  H159     1.0000 0.36680  0.98290  0.99350  Biso   1.000  H
  C244     1.0000 0.50160  0.57210  0.40570  Biso   1.000  C
  H160     1.0000 0.51910  0.54240  0.38460  Biso   1.000  H
  C245     1.0000 0.80660  0.49510  0.74130  Biso   1.000  C
  H161     1.0000 0.85060  0.47810  0.76240  Biso   1.000  H
  C246     1.0000 0.71180  0.55360  0.73920  Biso   1.000  C
  H162     1.0000 0.68900  0.57780  0.75840  Biso   1.000  H
  C247     1.0000 0.24490  0.70490  0.23590  Biso   1.000  C
  H163     1.0000 0.22600  0.67010  0.25340  Biso   1.000  H
  C248     1.0000 0.44380  0.61600  0.37820  Biso   1.000  C
  H164     1.0000 0.42450  0.61760  0.33800  Biso   1.000  H
  C249     1.0000 0.21440  0.71240  0.17680  Biso   1.000  C
  H165     1.0000 0.17540  0.68380  0.15490  Biso   1.000  H
  C250     1.0000 0.32800  0.79140  0.24300  Biso   1.000  C
  H166     1.0000 0.36720  0.81910  0.26560  Biso   1.000  H
  C251     1.0000 0.77800  0.48340  0.68220  Biso   1.000  C
  H167     1.0000 0.80190  0.45940  0.66400  Biso   1.000  H
  C252     1.0000 0.30220  0.80070  0.18390  Biso   1.000  C
  H168     1.0000 0.32450  0.83160  0.16720  Biso   1.000  H
  N73      1.0000 0.29570  0.97000  0.91670  Biso   1.000  N
  N74      1.0000 0.93920  0.61710  0.91080  Biso   1.000  N
  N75      1.0000 0.30080  0.74560  0.26970  Biso   1.000  N
  N76      1.0000 0.14770  0.78960  0.97140  Biso   1.000  N
  N77      1.0000 0.15260  0.73320  0.05810  Biso   1.000  N
  N78      1.0000 0.23790  0.82250  0.06170  Biso   1.000  N
  N79      1.0000 0.77990  0.31290  0.42110  Biso   1.000  N
  N80      1.0000 0.41350  0.65680  0.40590  Biso   1.000  N
  N81      1.0000 0.77530  0.52920  0.77000  Biso   1.000  N
  N82      1.0000 0.62590  0.48730  0.47210  Biso   1.000  N
  N83      1.0000 0.62290  0.53700  0.55750  Biso   1.000  N
  N84      1.0000 0.71100  0.45090  0.56350  Biso   1.000  N
  Ag15     1.0000 0.84424  0.54292  0.86726  Biso   1.000  Ag
  Ag16     1.0000 0.82227  0.24499  0.36675  Biso   1.000  Ag
  C253     1.0000 0.53270  0.18930  0.90960  Biso   1.000  C
  H169     1.0000 0.55400  0.21030  0.88800  Biso   1.000  H
  C254     1.0000 0.62370  0.24410  0.00100  Biso   1.000  C
  C255     1.0000 0.09780  0.02870  0.49950  Biso   1.000  C
  C256     1.0000 0.55980  0.19910  0.96880  Biso   1.000  C
  C257     1.0000 0.79770  0.41650  0.00430  Biso   1.000  C
  H170     1.0000 0.81990  0.41280  0.04440  Biso   1.000  H
  C258     1.0000 0.00390  0.11530  0.49540  Biso   1.000  C
  H171     1.0000 0.02360  0.11670  0.53560  Biso   1.000  H
  C259     1.0000 0.70950  0.27390  0.08640  Biso   1.000  C
  C260     1.0000 0.22030  0.84750  0.39110  Biso   1.000  C
  H172     1.0000 0.20060  0.84280  0.35110  Biso   1.000  H
  C261     1.0000 0.18200  0.94780  0.50560  Biso   1.000  C
  C262     1.0000 0.27750  0.86170  0.50860  Biso   1.000  C
  H173     1.0000 0.29840  0.86550  0.54870  Biso   1.000  H
  C263     1.0000 0.03330  0.07280  0.46540  Biso   1.000  C
  C264     1.0000 0.94410  0.15560  0.46340  Biso   1.000  C
  H174     1.0000 0.92420  0.18360  0.48350  Biso   1.000  H
  C265     1.0000 0.74280  0.26330  0.15040  Biso   1.000  C
  C266     1.0000 0.52600  0.16570  0.99860  Biso   1.000  C
  H175     1.0000 0.54310  0.17030  0.03860  Biso   1.000  H
  C267     1.0000 0.73530  0.43570  0.88770  Biso   1.000  C
  H176     1.0000 0.71350  0.44280  0.84780  Biso   1.000  H
  C268     1.0000 0.21480  0.89830  0.47650  Biso   1.000  C
  C269     1.0000 0.73540  0.37840  0.97350  Biso   1.000  C
  C270     1.0000 0.46700  0.12580  0.96790  Biso   1.000  C
  H177     1.0000 0.44500  0.10320  0.98830  Biso   1.000  H
  C271     1.0000 0.17880  0.04390  0.67950  Biso   1.000  C
  H178     1.0000 0.13480  0.06120  0.65920  Biso   1.000  H
  C272     1.0000 0.70410  0.39050  0.91430  Biso   1.000  C
  H179     1.0000 0.66200  0.36810  0.89250  Biso   1.000  H
  C273     1.0000 0.18020  0.99790  0.58690  Biso   1.000  C
  C274     1.0000 0.21240  0.00860  0.65110  Biso   1.000  C
  C275     1.0000 0.18650  0.89010  0.41730  Biso   1.000  C
  H180     1.0000 0.14490  0.91310  0.39490  Biso   1.000  H
  C276     1.0000 0.47310  0.14740  0.88310  Biso   1.000  C
  H181     1.0000 0.45560  0.14000  0.84330  Biso   1.000  H
  C277     1.0000 0.30730  0.81990  0.47870  Biso   1.000  C
  H182     1.0000 0.34860  0.79540  0.49990  Biso   1.000  H
  C278     1.0000 0.70530  0.32790  0.00380  Biso   1.000  C
  C279     1.0000 0.82480  0.45960  0.97310  Biso   1.000  C
  H183     1.0000 0.86680  0.48290  0.99350  Biso   1.000  H
  C280     1.0000 0.00160  0.07210  0.40570  Biso   1.000  C
  H184     1.0000 0.01910  0.04240  0.38460  Biso   1.000  H
  C281     1.0000 0.30660  0.99510  0.74130  Biso   1.000  C
  H185     1.0000 0.35060  0.97810  0.76240  Biso   1.000  H
  C282     1.0000 0.21180  0.05360  0.73920  Biso   1.000  C
  H186     1.0000 0.18900  0.07780  0.75840  Biso   1.000  H
  C283     1.0000 0.74490  0.20490  0.23590  Biso   1.000  C
  H187     1.0000 0.72600  0.17010  0.25340  Biso   1.000  H
  C284     1.0000 0.94380  0.11600  0.37820  Biso   1.000  C
  H188     1.0000 0.92450  0.11760  0.33800  Biso   1.000  H
  C285     1.0000 0.71440  0.21240  0.17680  Biso   1.000  C
  H189     1.0000 0.67540  0.18380  0.15490  Biso   1.000  H
  C286     1.0000 0.82800  0.29140  0.24300  Biso   1.000  C
  H190     1.0000 0.86720  0.31910  0.26560  Biso   1.000  H
  C287     1.0000 0.27800  0.98340  0.68220  Biso   1.000  C
  H191     1.0000 0.30190  0.95940  0.66400  Biso   1.000  H
  C288     1.0000 0.80220  0.30070  0.18390  Biso   1.000  C
  H192     1.0000 0.82450  0.33160  0.16720  Biso   1.000  H
  N85      1.0000 0.79570  0.47000  0.91670  Biso   1.000  N
  N86      1.0000 0.43920  0.11710  0.91080  Biso   1.000  N
  N87      1.0000 0.80080  0.24560  0.26970  Biso   1.000  N
  N88      1.0000 0.64770  0.28960  0.97140  Biso   1.000  N
  N89      1.0000 0.65260  0.23320  0.05810  Biso   1.000  N
  N90      1.0000 0.73790  0.32250  0.06170  Biso   1.000  N
  N91      1.0000 0.27990  0.81290  0.42110  Biso   1.000  N
  N92      1.0000 0.91350  0.15680  0.40590  Biso   1.000  N
  N93      1.0000 0.27530  0.02920  0.77000  Biso   1.000  N
  N94      1.0000 0.12590  0.98730  0.47210  Biso   1.000  N
  N95      1.0000 0.12290  0.03700  0.55750  Biso   1.000  N
  N96      1.0000 0.21100  0.95090  0.56350  Biso   1.000  N
