data_image0
_cell_length_a       22.002
_cell_length_b       16.7356
_cell_length_c       25.5607
_cell_angle_alpha    90
_cell_angle_beta     115.199
_cell_angle_gamma    90

_symmetry_space_group_name_H-M    "P 1"
_symmetry_int_tables_number       1

loop_
  _symmetry_equiv_pos_as_xyz
  'x, y, z'

loop_
  _atom_site_label
  _atom_site_occupancy
  _atom_site_fract_x
  _atom_site_fract_y
  _atom_site_fract_z
  _atom_site_thermal_displace_type
  _atom_site_B_iso_or_equiv
  _atom_site_type_symbol
  Ag1      1.0000 0.84423  0.95667  0.36683  Biso   1.000  Ag
  Ag2      1.0000 0.82171  0.25616  0.86644  Biso   1.000  Ag
  C1       1.0000 0.09760  0.47160  0.99910  Biso   1.000  C
  C2       1.0000 0.53260  0.31030  0.40900  Biso   1.000  C
  H1       1.0000 0.55400  0.28960  0.38760  Biso   1.000  H
  C3       1.0000 0.62340  0.25570  0.50030  Biso   1.000  C
  C4       1.0000 0.00370  0.38500  0.99460  Biso   1.000  C
  H2       1.0000 0.02350  0.38340  0.03480  Biso   1.000  H
  C5       1.0000 0.55970  0.30020  0.46800  Biso   1.000  C
  C6       1.0000 0.18170  0.55260  0.00530  Biso   1.000  C
  C7       1.0000 0.03310  0.42740  0.96500  Biso   1.000  C
  C8       1.0000 0.79750  0.08370  0.50370  Biso   1.000  C
  H3       1.0000 0.81970  0.08770  0.54370  Biso   1.000  H
  C9       1.0000 0.70940  0.22510  0.58580  Biso   1.000  C
  C10      1.0000 0.94420  0.34480  0.96290  Biso   1.000  C
  H4       1.0000 0.92460  0.31690  0.98320  Biso   1.000  H
  C11      1.0000 0.27700  0.63850  0.00830  Biso   1.000  C
  H5       1.0000 0.29780  0.63480  0.04850  Biso   1.000  H
  C12      1.0000 0.22020  0.65270  0.89080  Biso   1.000  C
  H6       1.0000 0.20040  0.65740  0.85080  Biso   1.000  H
  C13      1.0000 0.74270  0.23670  0.64950  Biso   1.000  C
  C14      1.0000 0.73520  0.12120  0.47300  Biso   1.000  C
  C15      1.0000 0.17880  0.45580  0.17900  Biso   1.000  C
  H7       1.0000 0.13480  0.43800  0.15870  Biso   1.000  H
  C16      1.0000 0.21410  0.60150  0.97580  Biso   1.000  C
  C17      1.0000 0.73540  0.06430  0.38740  Biso   1.000  C
  H8       1.0000 0.71380  0.05730  0.34760  Biso   1.000  H
  C18      1.0000 0.21210  0.49140  0.15060  Biso   1.000  C
  C19      1.0000 0.52580  0.33430  0.49760  Biso   1.000  C
  H9       1.0000 0.54320  0.33040  0.53760  Biso   1.000  H
  C20      1.0000 0.46720  0.37350  0.46750  Biso   1.000  C
  H10      1.0000 0.44530  0.39590  0.48800  Biso   1.000  H
  C21      1.0000 0.17990  0.50210  0.08620  Biso   1.000  C
  C22      1.0000 0.18630  0.60970  0.91710  Biso   1.000  C
  H11      1.0000 0.14480  0.58670  0.89460  Biso   1.000  H
  C23      1.0000 0.30680  0.68070  0.97820  Biso   1.000  C
  H12      1.0000 0.34780  0.70550  0.99930  Biso   1.000  H
  C24      1.0000 0.70380  0.10940  0.41370  Biso   1.000  C
  H13      1.0000 0.66190  0.13170  0.39190  Biso   1.000  H
  C25      1.0000 0.70510  0.17180  0.50340  Biso   1.000  C
  C26      1.0000 0.47290  0.35190  0.38220  Biso   1.000  C
  H14      1.0000 0.45560  0.35940  0.34240  Biso   1.000  H
  C27      1.0000 0.82500  0.04060  0.47290  Biso   1.000  C
  H15      1.0000 0.86700  0.01750  0.49340  Biso   1.000  H
  C28      1.0000 0.00150  0.42770  0.90540  Biso   1.000  C
  H16      1.0000 0.01920  0.45710  0.88420  Biso   1.000  H
  C29      1.0000 0.30560  0.50480  0.24050  Biso   1.000  C
  H17      1.0000 0.34950  0.52230  0.26150  Biso   1.000  H
  C30      1.0000 0.21140  0.44680  0.23850  Biso   1.000  C
  H18      1.0000 0.18820  0.42320  0.25760  Biso   1.000  H
  C31      1.0000 0.94380  0.38430  0.87780  Biso   1.000  C
  H19      1.0000 0.92450  0.38260  0.83760  Biso   1.000  H
  C32      1.0000 0.74480  0.29480  0.73500  Biso   1.000  C
  H20      1.0000 0.72620  0.33000  0.75240  Biso   1.000  H
  C33      1.0000 0.27770  0.51650  0.18180  Biso   1.000  C
  H21      1.0000 0.30190  0.54030  0.16380  Biso   1.000  H
  C34      1.0000 0.71420  0.28690  0.67620  Biso   1.000  C
  H22      1.0000 0.67490  0.31460  0.65440  Biso   1.000  H
  C35      1.0000 0.80250  0.19940  0.68360  Biso   1.000  C
  H23      1.0000 0.82500  0.16830  0.66730  Biso   1.000  H
  C36      1.0000 0.82750  0.20980  0.74210  Biso   1.000  C
  H24      1.0000 0.86700  0.18300  0.76480  Biso   1.000  H
  N1       1.0000 0.79550  0.03000  0.41630  Biso   1.000  N
  N2       1.0000 0.43900  0.38170  0.41000  Biso   1.000  N
  N3       1.0000 0.80060  0.25420  0.76900  Biso   1.000  N
  N4       1.0000 0.64780  0.21010  0.47080  Biso   1.000  N
  N5       1.0000 0.65250  0.26600  0.55740  Biso   1.000  N
  N6       1.0000 0.73750  0.17740  0.56090  Biso   1.000  N
  N7       1.0000 0.27930  0.68720  0.92060  Biso   1.000  N
  N8       1.0000 0.91340  0.34370  0.90560  Biso   1.000  N
  N9       1.0000 0.27490  0.47040  0.26980  Biso   1.000  N
  N10      1.0000 0.12550  0.51290  0.97180  Biso   1.000  N
  N11      1.0000 0.12300  0.46300  0.05690  Biso   1.000  N
  N12      1.0000 0.21090  0.54900  0.06310  Biso   1.000  N
  Ag3      1.0000 0.34423  0.45667  0.36683  Biso   1.000  Ag
  Ag4      1.0000 0.32171  0.75616  0.86644  Biso   1.000  Ag
  C37      1.0000 0.59760  0.97160  0.99910  Biso   1.000  C
  C38      1.0000 0.03260  0.81030  0.40900  Biso   1.000  C
  H25      1.0000 0.05400  0.78960  0.38760  Biso   1.000  H
  C39      1.0000 0.12340  0.75570  0.50030  Biso   1.000  C
  C40      1.0000 0.50370  0.88500  0.99460  Biso   1.000  C
  H26      1.0000 0.52350  0.88340  0.03480  Biso   1.000  H
  C41      1.0000 0.05970  0.80020  0.46800  Biso   1.000  C
  C42      1.0000 0.68170  0.05260  0.00530  Biso   1.000  C
  C43      1.0000 0.53310  0.92740  0.96500  Biso   1.000  C
  C44      1.0000 0.29750  0.58370  0.50370  Biso   1.000  C
  H27      1.0000 0.31970  0.58770  0.54370  Biso   1.000  H
  C45      1.0000 0.20940  0.72510  0.58580  Biso   1.000  C
  C46      1.0000 0.44420  0.84480  0.96290  Biso   1.000  C
  H28      1.0000 0.42460  0.81690  0.98320  Biso   1.000  H
  C47      1.0000 0.77700  0.13850  0.00830  Biso   1.000  C
  H29      1.0000 0.79780  0.13480  0.04850  Biso   1.000  H
  C48      1.0000 0.72020  0.15270  0.89080  Biso   1.000  C
  H30      1.0000 0.70040  0.15740  0.85080  Biso   1.000  H
  C49      1.0000 0.24270  0.73670  0.64950  Biso   1.000  C
  C50      1.0000 0.23520  0.62120  0.47300  Biso   1.000  C
  C51      1.0000 0.67880  0.95580  0.17900  Biso   1.000  C
  H31      1.0000 0.63480  0.93800  0.15870  Biso   1.000  H
  C52      1.0000 0.71410  0.10150  0.97580  Biso   1.000  C
  C53      1.0000 0.23540  0.56430  0.38740  Biso   1.000  C
  H32      1.0000 0.21380  0.55730  0.34760  Biso   1.000  H
  C54      1.0000 0.71210  0.99140  0.15060  Biso   1.000  C
  C55      1.0000 0.02580  0.83430  0.49760  Biso   1.000  C
  H33      1.0000 0.04320  0.83040  0.53760  Biso   1.000  H
  C56      1.0000 0.96720  0.87350  0.46750  Biso   1.000  C
  H34      1.0000 0.94530  0.89590  0.48800  Biso   1.000  H
  C57      1.0000 0.67990  0.00210  0.08620  Biso   1.000  C
  C58      1.0000 0.68630  0.10970  0.91710  Biso   1.000  C
  H35      1.0000 0.64480  0.08670  0.89460  Biso   1.000  H
  C59      1.0000 0.80680  0.18070  0.97820  Biso   1.000  C
  H36      1.0000 0.84780  0.20550  0.99930  Biso   1.000  H
  C60      1.0000 0.20380  0.60940  0.41370  Biso   1.000  C
  H37      1.0000 0.16190  0.63170  0.39190  Biso   1.000  H
  C61      1.0000 0.20510  0.67180  0.50340  Biso   1.000  C
  C62      1.0000 0.97290  0.85190  0.38220  Biso   1.000  C
  H38      1.0000 0.95560  0.85940  0.34240  Biso   1.000  H
  C63      1.0000 0.32500  0.54060  0.47290  Biso   1.000  C
  H39      1.0000 0.36700  0.51750  0.49340  Biso   1.000  H
  C64      1.0000 0.50150  0.92770  0.90540  Biso   1.000  C
  H40      1.0000 0.51920  0.95710  0.88420  Biso   1.000  H
  C65      1.0000 0.80560  0.00480  0.24050  Biso   1.000  C
  H41      1.0000 0.84950  0.02230  0.26150  Biso   1.000  H
  C66      1.0000 0.71140  0.94680  0.23850  Biso   1.000  C
  H42      1.0000 0.68820  0.92320  0.25760  Biso   1.000  H
  C67      1.0000 0.44380  0.88430  0.87780  Biso   1.000  C
  H43      1.0000 0.42450  0.88260  0.83760  Biso   1.000  H
  C68      1.0000 0.24480  0.79480  0.73500  Biso   1.000  C
  H44      1.0000 0.22620  0.83000  0.75240  Biso   1.000  H
  C69      1.0000 0.77770  0.01650  0.18180  Biso   1.000  C
  H45      1.0000 0.80190  0.04030  0.16380  Biso   1.000  H
  C70      1.0000 0.21420  0.78690  0.67620  Biso   1.000  C
  H46      1.0000 0.17490  0.81460  0.65440  Biso   1.000  H
  C71      1.0000 0.30250  0.69940  0.68360  Biso   1.000  C
  H47      1.0000 0.32500  0.66830  0.66730  Biso   1.000  H
  C72      1.0000 0.32750  0.70980  0.74210  Biso   1.000  C
  H48      1.0000 0.36700  0.68300  0.76480  Biso   1.000  H
  N13      1.0000 0.29550  0.53000  0.41630  Biso   1.000  N
  N14      1.0000 0.93900  0.88170  0.41000  Biso   1.000  N
  N15      1.0000 0.30060  0.75420  0.76900  Biso   1.000  N
  N16      1.0000 0.14780  0.71010  0.47080  Biso   1.000  N
  N17      1.0000 0.15250  0.76600  0.55740  Biso   1.000  N
  N18      1.0000 0.23750  0.67740  0.56090  Biso   1.000  N
  N19      1.0000 0.77930  0.18720  0.92060  Biso   1.000  N
  N20      1.0000 0.41340  0.84370  0.90560  Biso   1.000  N
  N21      1.0000 0.77490  0.97040  0.26980  Biso   1.000  N
  N22      1.0000 0.62550  0.01290  0.97180  Biso   1.000  N
  N23      1.0000 0.62300  0.96300  0.05690  Biso   1.000  N
  N24      1.0000 0.71090  0.04900  0.06310  Biso   1.000  N
  Ag5      1.0000 0.15577  0.95667  0.13317  Biso   1.000  Ag
  Ag6      1.0000 0.17829  0.25616  0.63356  Biso   1.000  Ag
  C73      1.0000 0.90240  0.47160  0.50090  Biso   1.000  C
  C74      1.0000 0.46740  0.31030  0.09100  Biso   1.000  C
  H49      1.0000 0.44600  0.28960  0.11240  Biso   1.000  H
  C75      1.0000 0.37660  0.25570  0.99970  Biso   1.000  C
  C76      1.0000 0.99630  0.38500  0.50540  Biso   1.000  C
  H50      1.0000 0.97650  0.38340  0.46520  Biso   1.000  H
  C77      1.0000 0.44030  0.30020  0.03200  Biso   1.000  C
  C78      1.0000 0.81830  0.55260  0.49470  Biso   1.000  C
  C79      1.0000 0.96690  0.42740  0.53500  Biso   1.000  C
  C80      1.0000 0.20250  0.08370  0.99630  Biso   1.000  C
  H51      1.0000 0.18030  0.08770  0.95630  Biso   1.000  H
  C81      1.0000 0.29060  0.22510  0.91420  Biso   1.000  C
  C82      1.0000 0.05580  0.34480  0.53710  Biso   1.000  C
  H52      1.0000 0.07540  0.31690  0.51680  Biso   1.000  H
  C83      1.0000 0.72300  0.63850  0.49170  Biso   1.000  C
  H53      1.0000 0.70220  0.63480  0.45150  Biso   1.000  H
  C84      1.0000 0.77980  0.65270  0.60920  Biso   1.000  C
  H54      1.0000 0.79960  0.65740  0.64920  Biso   1.000  H
  C85      1.0000 0.25730  0.23670  0.85050  Biso   1.000  C
  C86      1.0000 0.26480  0.12120  0.02700  Biso   1.000  C
  C87      1.0000 0.82120  0.45580  0.32100  Biso   1.000  C
  H55      1.0000 0.86520  0.43800  0.34130  Biso   1.000  H
  C88      1.0000 0.78590  0.60150  0.52420  Biso   1.000  C
  C89      1.0000 0.26460  0.06430  0.11260  Biso   1.000  C
  H56      1.0000 0.28620  0.05730  0.15240  Biso   1.000  H
  C90      1.0000 0.78790  0.49140  0.34940  Biso   1.000  C
  C91      1.0000 0.47420  0.33430  0.00240  Biso   1.000  C
  H57      1.0000 0.45680  0.33040  0.96240  Biso   1.000  H
  C92      1.0000 0.53280  0.37350  0.03250  Biso   1.000  C
  H58      1.0000 0.55470  0.39590  0.01200  Biso   1.000  H
  C93      1.0000 0.82010  0.50210  0.41380  Biso   1.000  C
  C94      1.0000 0.81370  0.60970  0.58290  Biso   1.000  C
  H59      1.0000 0.85520  0.58670  0.60540  Biso   1.000  H
  C95      1.0000 0.69320  0.68070  0.52180  Biso   1.000  C
  H60      1.0000 0.65220  0.70550  0.50070  Biso   1.000  H
  C96      1.0000 0.29620  0.10940  0.08630  Biso   1.000  C
  H61      1.0000 0.33810  0.13170  0.10810  Biso   1.000  H
  C97      1.0000 0.29490  0.17180  0.99660  Biso   1.000  C
  C98      1.0000 0.52710  0.35190  0.11780  Biso   1.000  C
  H62      1.0000 0.54440  0.35940  0.15760  Biso   1.000  H
  C99      1.0000 0.17500  0.04060  0.02710  Biso   1.000  C
  H63      1.0000 0.13300  0.01750  0.00660  Biso   1.000  H
  C100     1.0000 0.99850  0.42770  0.59460  Biso   1.000  C
  H64      1.0000 0.98080  0.45710  0.61580  Biso   1.000  H
  C101     1.0000 0.69440  0.50480  0.25950  Biso   1.000  C
  H65      1.0000 0.65050  0.52230  0.23850  Biso   1.000  H
  C102     1.0000 0.78860  0.44680  0.26150  Biso   1.000  C
  H66      1.0000 0.81180  0.42320  0.24240  Biso   1.000  H
  C103     1.0000 0.05620  0.38430  0.62220  Biso   1.000  C
  H67      1.0000 0.07550  0.38260  0.66240  Biso   1.000  H
  C104     1.0000 0.25520  0.29480  0.76500  Biso   1.000  C
  H68      1.0000 0.27380  0.33000  0.74760  Biso   1.000  H
  C105     1.0000 0.72230  0.51650  0.31820  Biso   1.000  C
  H69      1.0000 0.69810  0.54030  0.33620  Biso   1.000  H
  C106     1.0000 0.28580  0.28690  0.82380  Biso   1.000  C
  H70      1.0000 0.32510  0.31460  0.84560  Biso   1.000  H
  C107     1.0000 0.19750  0.19940  0.81640  Biso   1.000  C
  H71      1.0000 0.17500  0.16830  0.83270  Biso   1.000  H
  C108     1.0000 0.17250  0.20980  0.75790  Biso   1.000  C
  H72      1.0000 0.13300  0.18300  0.73520  Biso   1.000  H
  N25      1.0000 0.20450  0.03000  0.08370  Biso   1.000  N
  N26      1.0000 0.56100  0.38170  0.09000  Biso   1.000  N
  N27      1.0000 0.19940  0.25420  0.73100  Biso   1.000  N
  N28      1.0000 0.35220  0.21010  0.02920  Biso   1.000  N
  N29      1.0000 0.34750  0.26600  0.94260  Biso   1.000  N
  N30      1.0000 0.26250  0.17740  0.93910  Biso   1.000  N
  N31      1.0000 0.72070  0.68720  0.57940  Biso   1.000  N
  N32      1.0000 0.08660  0.34370  0.59440  Biso   1.000  N
  N33      1.0000 0.72510  0.47040  0.23020  Biso   1.000  N
  N34      1.0000 0.87450  0.51290  0.52820  Biso   1.000  N
  N35      1.0000 0.87700  0.46300  0.44310  Biso   1.000  N
  N36      1.0000 0.78910  0.54900  0.43690  Biso   1.000  N
  Ag7      1.0000 0.65577  0.45667  0.13317  Biso   1.000  Ag
  Ag8      1.0000 0.67829  0.75616  0.63356  Biso   1.000  Ag
  C109     1.0000 0.40240  0.97160  0.50090  Biso   1.000  C
  C110     1.0000 0.96740  0.81030  0.09100  Biso   1.000  C
  H73      1.0000 0.94600  0.78960  0.11240  Biso   1.000  H
  C111     1.0000 0.87660  0.75570  0.99970  Biso   1.000  C
  C112     1.0000 0.49630  0.88500  0.50540  Biso   1.000  C
  H74      1.0000 0.47650  0.88340  0.46520  Biso   1.000  H
  C113     1.0000 0.94030  0.80020  0.03200  Biso   1.000  C
  C114     1.0000 0.31830  0.05260  0.49470  Biso   1.000  C
  C115     1.0000 0.46690  0.92740  0.53500  Biso   1.000  C
  C116     1.0000 0.70250  0.58370  0.99630  Biso   1.000  C
  H75      1.0000 0.68030  0.58770  0.95630  Biso   1.000  H
  C117     1.0000 0.79060  0.72510  0.91420  Biso   1.000  C
  C118     1.0000 0.55580  0.84480  0.53710  Biso   1.000  C
  H76      1.0000 0.57540  0.81690  0.51680  Biso   1.000  H
  C119     1.0000 0.22300  0.13850  0.49170  Biso   1.000  C
  H77      1.0000 0.20220  0.13480  0.45150  Biso   1.000  H
  C120     1.0000 0.27980  0.15270  0.60920  Biso   1.000  C
  H78      1.0000 0.29960  0.15740  0.64920  Biso   1.000  H
  C121     1.0000 0.75730  0.73670  0.85050  Biso   1.000  C
  C122     1.0000 0.76480  0.62120  0.02700  Biso   1.000  C
  C123     1.0000 0.32120  0.95580  0.32100  Biso   1.000  C
  H79      1.0000 0.36520  0.93800  0.34130  Biso   1.000  H
  C124     1.0000 0.28590  0.10150  0.52420  Biso   1.000  C
  C125     1.0000 0.76460  0.56430  0.11260  Biso   1.000  C
  H80      1.0000 0.78620  0.55730  0.15240  Biso   1.000  H
  C126     1.0000 0.28790  0.99140  0.34940  Biso   1.000  C
  C127     1.0000 0.97420  0.83430  0.00240  Biso   1.000  C
  H81      1.0000 0.95680  0.83040  0.96240  Biso   1.000  H
  C128     1.0000 0.03280  0.87350  0.03250  Biso   1.000  C
  H82      1.0000 0.05470  0.89590  0.01200  Biso   1.000  H
  C129     1.0000 0.32010  0.00210  0.41380  Biso   1.000  C
  C130     1.0000 0.31370  0.10970  0.58290  Biso   1.000  C
  H83      1.0000 0.35520  0.08670  0.60540  Biso   1.000  H
  C131     1.0000 0.19320  0.18070  0.52180  Biso   1.000  C
  H84      1.0000 0.15220  0.20550  0.50070  Biso   1.000  H
  C132     1.0000 0.79620  0.60940  0.08630  Biso   1.000  C
  H85      1.0000 0.83810  0.63170  0.10810  Biso   1.000  H
  C133     1.0000 0.79490  0.67180  0.99660  Biso   1.000  C
  C134     1.0000 0.02710  0.85190  0.11780  Biso   1.000  C
  H86      1.0000 0.04440  0.85940  0.15760  Biso   1.000  H
  C135     1.0000 0.67500  0.54060  0.02710  Biso   1.000  C
  H87      1.0000 0.63300  0.51750  0.00660  Biso   1.000  H
  C136     1.0000 0.49850  0.92770  0.59460  Biso   1.000  C
  H88      1.0000 0.48080  0.95710  0.61580  Biso   1.000  H
  C137     1.0000 0.19440  0.00480  0.25950  Biso   1.000  C
  H89      1.0000 0.15050  0.02230  0.23850  Biso   1.000  H
  C138     1.0000 0.28860  0.94680  0.26150  Biso   1.000  C
  H90      1.0000 0.31180  0.92320  0.24240  Biso   1.000  H
  C139     1.0000 0.55620  0.88430  0.62220  Biso   1.000  C
  H91      1.0000 0.57550  0.88260  0.66240  Biso   1.000  H
  C140     1.0000 0.75520  0.79480  0.76500  Biso   1.000  C
  H92      1.0000 0.77380  0.83000  0.74760  Biso   1.000  H
  C141     1.0000 0.22230  0.01650  0.31820  Biso   1.000  C
  H93      1.0000 0.19810  0.04030  0.33620  Biso   1.000  H
  C142     1.0000 0.78580  0.78690  0.82380  Biso   1.000  C
  H94      1.0000 0.82510  0.81460  0.84560  Biso   1.000  H
  C143     1.0000 0.69750  0.69940  0.81640  Biso   1.000  C
  H95      1.0000 0.67500  0.66830  0.83270  Biso   1.000  H
  C144     1.0000 0.67250  0.70980  0.75790  Biso   1.000  C
  H96      1.0000 0.63300  0.68300  0.73520  Biso   1.000  H
  N37      1.0000 0.70450  0.53000  0.08370  Biso   1.000  N
  N38      1.0000 0.06100  0.88170  0.09000  Biso   1.000  N
  N39      1.0000 0.69940  0.75420  0.73100  Biso   1.000  N
  N40      1.0000 0.85220  0.71010  0.02920  Biso   1.000  N
  N41      1.0000 0.84750  0.76600  0.94260  Biso   1.000  N
  N42      1.0000 0.76250  0.67740  0.93910  Biso   1.000  N
  N43      1.0000 0.22070  0.18720  0.57940  Biso   1.000  N
  N44      1.0000 0.58660  0.84370  0.59440  Biso   1.000  N
  N45      1.0000 0.22510  0.97040  0.23020  Biso   1.000  N
  N46      1.0000 0.37450  0.01290  0.52820  Biso   1.000  N
  N47      1.0000 0.37700  0.96300  0.44310  Biso   1.000  N
  N48      1.0000 0.28910  0.04900  0.43690  Biso   1.000  N
  Ag9      1.0000 0.15577  0.04333  0.63317  Biso   1.000  Ag
  Ag10     1.0000 0.17829  0.74384  0.13356  Biso   1.000  Ag
  C145     1.0000 0.90240  0.52840  0.00090  Biso   1.000  C
  C146     1.0000 0.46740  0.68970  0.59100  Biso   1.000  C
  H97      1.0000 0.44600  0.71040  0.61240  Biso   1.000  H
  C147     1.0000 0.37660  0.74430  0.49970  Biso   1.000  C
  C148     1.0000 0.99630  0.61500  0.00540  Biso   1.000  C
  H98      1.0000 0.97650  0.61660  0.96520  Biso   1.000  H
  C149     1.0000 0.44030  0.69980  0.53200  Biso   1.000  C
  C150     1.0000 0.81830  0.44740  0.99470  Biso   1.000  C
  C151     1.0000 0.96690  0.57260  0.03500  Biso   1.000  C
  C152     1.0000 0.20250  0.91630  0.49630  Biso   1.000  C
  H99      1.0000 0.18030  0.91230  0.45630  Biso   1.000  H
  C153     1.0000 0.29060  0.77490  0.41420  Biso   1.000  C
  C154     1.0000 0.05580  0.65520  0.03710  Biso   1.000  C
  H100     1.0000 0.07540  0.68310  0.01680  Biso   1.000  H
  C155     1.0000 0.72300  0.36150  0.99170  Biso   1.000  C
  H101     1.0000 0.70220  0.36520  0.95150  Biso   1.000  H
  C156     1.0000 0.77980  0.34730  0.10920  Biso   1.000  C
  H102     1.0000 0.79960  0.34260  0.14920  Biso   1.000  H
  C157     1.0000 0.25730  0.76330  0.35050  Biso   1.000  C
  C158     1.0000 0.26480  0.87880  0.52700  Biso   1.000  C
  C159     1.0000 0.82120  0.54420  0.82100  Biso   1.000  C
  H103     1.0000 0.86520  0.56200  0.84130  Biso   1.000  H
  C160     1.0000 0.78590  0.39850  0.02420  Biso   1.000  C
  C161     1.0000 0.26460  0.93570  0.61260  Biso   1.000  C
  H104     1.0000 0.28620  0.94270  0.65240  Biso   1.000  H
  C162     1.0000 0.78790  0.50860  0.84940  Biso   1.000  C
  C163     1.0000 0.47420  0.66570  0.50240  Biso   1.000  C
  H105     1.0000 0.45680  0.66960  0.46240  Biso   1.000  H
  C164     1.0000 0.53280  0.62650  0.53250  Biso   1.000  C
  H106     1.0000 0.55470  0.60410  0.51200  Biso   1.000  H
  C165     1.0000 0.82010  0.49790  0.91380  Biso   1.000  C
  C166     1.0000 0.81370  0.39030  0.08290  Biso   1.000  C
  H107     1.0000 0.85520  0.41330  0.10540  Biso   1.000  H
  C167     1.0000 0.69320  0.31930  0.02180  Biso   1.000  C
  H108     1.0000 0.65220  0.29450  0.00070  Biso   1.000  H
  C168     1.0000 0.29620  0.89060  0.58630  Biso   1.000  C
  H109     1.0000 0.33810  0.86830  0.60810  Biso   1.000  H
  C169     1.0000 0.29490  0.82820  0.49660  Biso   1.000  C
  C170     1.0000 0.52710  0.64810  0.61780  Biso   1.000  C
  H110     1.0000 0.54440  0.64060  0.65760  Biso   1.000  H
  C171     1.0000 0.17500  0.95940  0.52710  Biso   1.000  C
  H111     1.0000 0.13300  0.98250  0.50660  Biso   1.000  H
  C172     1.0000 0.99850  0.57230  0.09460  Biso   1.000  C
  H112     1.0000 0.98080  0.54290  0.11580  Biso   1.000  H
  C173     1.0000 0.69440  0.49520  0.75950  Biso   1.000  C
  H113     1.0000 0.65050  0.47770  0.73850  Biso   1.000  H
  C174     1.0000 0.78860  0.55320  0.76150  Biso   1.000  C
  H114     1.0000 0.81180  0.57680  0.74240  Biso   1.000  H
  C175     1.0000 0.05620  0.61570  0.12220  Biso   1.000  C
  H115     1.0000 0.07550  0.61740  0.16240  Biso   1.000  H
  C176     1.0000 0.25520  0.70520  0.26500  Biso   1.000  C
  H116     1.0000 0.27380  0.67000  0.24760  Biso   1.000  H
  C177     1.0000 0.72230  0.48350  0.81820  Biso   1.000  C
  H117     1.0000 0.69810  0.45970  0.83620  Biso   1.000  H
  C178     1.0000 0.28580  0.71310  0.32380  Biso   1.000  C
  H118     1.0000 0.32510  0.68540  0.34560  Biso   1.000  H
  C179     1.0000 0.19750  0.80060  0.31640  Biso   1.000  C
  H119     1.0000 0.17500  0.83170  0.33270  Biso   1.000  H
  C180     1.0000 0.17250  0.79020  0.25790  Biso   1.000  C
  H120     1.0000 0.13300  0.81700  0.23520  Biso   1.000  H
  N49      1.0000 0.20450  0.97000  0.58370  Biso   1.000  N
  N50      1.0000 0.56100  0.61830  0.59000  Biso   1.000  N
  N51      1.0000 0.19940  0.74580  0.23100  Biso   1.000  N
  N52      1.0000 0.35220  0.78990  0.52920  Biso   1.000  N
  N53      1.0000 0.34750  0.73400  0.44260  Biso   1.000  N
  N54      1.0000 0.26250  0.82260  0.43910  Biso   1.000  N
  N55      1.0000 0.72070  0.31280  0.07940  Biso   1.000  N
  N56      1.0000 0.08660  0.65630  0.09440  Biso   1.000  N
  N57      1.0000 0.72510  0.52960  0.73020  Biso   1.000  N
  N58      1.0000 0.87450  0.48710  0.02820  Biso   1.000  N
  N59      1.0000 0.87700  0.53700  0.94310  Biso   1.000  N
  N60      1.0000 0.78910  0.45100  0.93690  Biso   1.000  N
  Ag11     1.0000 0.65577  0.54333  0.63317  Biso   1.000  Ag
  Ag12     1.0000 0.67829  0.24384  0.13356  Biso   1.000  Ag
  C181     1.0000 0.40240  0.02840  0.00090  Biso   1.000  C
  C182     1.0000 0.96740  0.18970  0.59100  Biso   1.000  C
  H121     1.0000 0.94600  0.21040  0.61240  Biso   1.000  H
  C183     1.0000 0.87660  0.24430  0.49970  Biso   1.000  C
  C184     1.0000 0.49630  0.11500  0.00540  Biso   1.000  C
  H122     1.0000 0.47650  0.11660  0.96520  Biso   1.000  H
  C185     1.0000 0.94030  0.19980  0.53200  Biso   1.000  C
  C186     1.0000 0.31830  0.94740  0.99470  Biso   1.000  C
  C187     1.0000 0.46690  0.07260  0.03500  Biso   1.000  C
  C188     1.0000 0.70250  0.41630  0.49630  Biso   1.000  C
  H123     1.0000 0.68030  0.41230  0.45630  Biso   1.000  H
  C189     1.0000 0.79060  0.27490  0.41420  Biso   1.000  C
  C190     1.0000 0.55580  0.15520  0.03710  Biso   1.000  C
  H124     1.0000 0.57540  0.18310  0.01680  Biso   1.000  H
  C191     1.0000 0.22300  0.86150  0.99170  Biso   1.000  C
  H125     1.0000 0.20220  0.86520  0.95150  Biso   1.000  H
  C192     1.0000 0.27980  0.84730  0.10920  Biso   1.000  C
  H126     1.0000 0.29960  0.84260  0.14920  Biso   1.000  H
  C193     1.0000 0.75730  0.26330  0.35050  Biso   1.000  C
  C194     1.0000 0.76480  0.37880  0.52700  Biso   1.000  C
  C195     1.0000 0.32120  0.04420  0.82100  Biso   1.000  C
  H127     1.0000 0.36520  0.06200  0.84130  Biso   1.000  H
  C196     1.0000 0.28590  0.89850  0.02420  Biso   1.000  C
  C197     1.0000 0.76460  0.43570  0.61260  Biso   1.000  C
  H128     1.0000 0.78620  0.44270  0.65240  Biso   1.000  H
  C198     1.0000 0.28790  0.00860  0.84940  Biso   1.000  C
  C199     1.0000 0.97420  0.16570  0.50240  Biso   1.000  C
  H129     1.0000 0.95680  0.16960  0.46240  Biso   1.000  H
  C200     1.0000 0.03280  0.12650  0.53250  Biso   1.000  C
  H130     1.0000 0.05470  0.10410  0.51200  Biso   1.000  H
  C201     1.0000 0.32010  0.99790  0.91380  Biso   1.000  C
  C202     1.0000 0.31370  0.89030  0.08290  Biso   1.000  C
  H131     1.0000 0.35520  0.91330  0.10540  Biso   1.000  H
  C203     1.0000 0.19320  0.81930  0.02180  Biso   1.000  C
  H132     1.0000 0.15220  0.79450  0.00070  Biso   1.000  H
  C204     1.0000 0.79620  0.39060  0.58630  Biso   1.000  C
  H133     1.0000 0.83810  0.36830  0.60810  Biso   1.000  H
  C205     1.0000 0.79490  0.32820  0.49660  Biso   1.000  C
  C206     1.0000 0.02710  0.14810  0.61780  Biso   1.000  C
  H134     1.0000 0.04440  0.14060  0.65760  Biso   1.000  H
  C207     1.0000 0.67500  0.45940  0.52710  Biso   1.000  C
  H135     1.0000 0.63300  0.48250  0.50660  Biso   1.000  H
  C208     1.0000 0.49850  0.07230  0.09460  Biso   1.000  C
  H136     1.0000 0.48080  0.04290  0.11580  Biso   1.000  H
  C209     1.0000 0.19440  0.99520  0.75950  Biso   1.000  C
  H137     1.0000 0.15050  0.97770  0.73850  Biso   1.000  H
  C210     1.0000 0.28860  0.05320  0.76150  Biso   1.000  C
  H138     1.0000 0.31180  0.07680  0.74240  Biso   1.000  H
  C211     1.0000 0.55620  0.11570  0.12220  Biso   1.000  C
  H139     1.0000 0.57550  0.11740  0.16240  Biso   1.000  H
  C212     1.0000 0.75520  0.20520  0.26500  Biso   1.000  C
  H140     1.0000 0.77380  0.17000  0.24760  Biso   1.000  H
  C213     1.0000 0.22230  0.98350  0.81820  Biso   1.000  C
  H141     1.0000 0.19810  0.95970  0.83620  Biso   1.000  H
  C214     1.0000 0.78580  0.21310  0.32380  Biso   1.000  C
  H142     1.0000 0.82510  0.18540  0.34560  Biso   1.000  H
  C215     1.0000 0.69750  0.30060  0.31640  Biso   1.000  C
  H143     1.0000 0.67500  0.33170  0.33270  Biso   1.000  H
  C216     1.0000 0.67250  0.29020  0.25790  Biso   1.000  C
  H144     1.0000 0.63300  0.31700  0.23520  Biso   1.000  H
  N61      1.0000 0.70450  0.47000  0.58370  Biso   1.000  N
  N62      1.0000 0.06100  0.11830  0.59000  Biso   1.000  N
  N63      1.0000 0.69940  0.24580  0.23100  Biso   1.000  N
  N64      1.0000 0.85220  0.28990  0.52920  Biso   1.000  N
  N65      1.0000 0.84750  0.23400  0.44260  Biso   1.000  N
  N66      1.0000 0.76250  0.32260  0.43910  Biso   1.000  N
  N67      1.0000 0.22070  0.81280  0.07940  Biso   1.000  N
  N68      1.0000 0.58660  0.15630  0.09440  Biso   1.000  N
  N69      1.0000 0.22510  0.02960  0.73020  Biso   1.000  N
  N70      1.0000 0.37450  0.98710  0.02820  Biso   1.000  N
  N71      1.0000 0.37700  0.03700  0.94310  Biso   1.000  N
  N72      1.0000 0.28910  0.95100  0.93690  Biso   1.000  N
  Ag13     1.0000 0.84423  0.04333  0.86683  Biso   1.000  Ag
  Ag14     1.0000 0.82171  0.74384  0.36644  Biso   1.000  Ag
  C217     1.0000 0.09760  0.52840  0.49910  Biso   1.000  C
  C218     1.0000 0.53260  0.68970  0.90900  Biso   1.000  C
  H145     1.0000 0.55400  0.71040  0.88760  Biso   1.000  H
  C219     1.0000 0.62340  0.74430  0.00030  Biso   1.000  C
  C220     1.0000 0.00370  0.61500  0.49460  Biso   1.000  C
  H146     1.0000 0.02350  0.61660  0.53480  Biso   1.000  H
  C221     1.0000 0.55970  0.69980  0.96800  Biso   1.000  C
  C222     1.0000 0.18170  0.44740  0.50530  Biso   1.000  C
  C223     1.0000 0.03310  0.57260  0.46500  Biso   1.000  C
  C224     1.0000 0.79750  0.91630  0.00370  Biso   1.000  C
  H147     1.0000 0.81970  0.91230  0.04370  Biso   1.000  H
  C225     1.0000 0.70940  0.77490  0.08580  Biso   1.000  C
  C226     1.0000 0.94420  0.65520  0.46290  Biso   1.000  C
  H148     1.0000 0.92460  0.68310  0.48320  Biso   1.000  H
  C227     1.0000 0.27700  0.36150  0.50830  Biso   1.000  C
  H149     1.0000 0.29780  0.36520  0.54850  Biso   1.000  H
  C228     1.0000 0.22020  0.34730  0.39080  Biso   1.000  C
  H150     1.0000 0.20040  0.34260  0.35080  Biso   1.000  H
  C229     1.0000 0.74270  0.76330  0.14950  Biso   1.000  C
  C230     1.0000 0.73520  0.87880  0.97300  Biso   1.000  C
  C231     1.0000 0.17880  0.54420  0.67900  Biso   1.000  C
  H151     1.0000 0.13480  0.56200  0.65870  Biso   1.000  H
  C232     1.0000 0.21410  0.39850  0.47580  Biso   1.000  C
  C233     1.0000 0.73540  0.93570  0.88740  Biso   1.000  C
  H152     1.0000 0.71380  0.94270  0.84760  Biso   1.000  H
  C234     1.0000 0.21210  0.50860  0.65060  Biso   1.000  C
  C235     1.0000 0.52580  0.66570  0.99760  Biso   1.000  C
  H153     1.0000 0.54320  0.66960  0.03760  Biso   1.000  H
  C236     1.0000 0.46720  0.62650  0.96750  Biso   1.000  C
  H154     1.0000 0.44530  0.60410  0.98800  Biso   1.000  H
  C237     1.0000 0.17990  0.49790  0.58620  Biso   1.000  C
  C238     1.0000 0.18630  0.39030  0.41710  Biso   1.000  C
  H155     1.0000 0.14480  0.41330  0.39460  Biso   1.000  H
  C239     1.0000 0.30680  0.31930  0.47820  Biso   1.000  C
  H156     1.0000 0.34780  0.29450  0.49930  Biso   1.000  H
  C240     1.0000 0.70380  0.89060  0.91370  Biso   1.000  C
  H157     1.0000 0.66190  0.86830  0.89190  Biso   1.000  H
  C241     1.0000 0.70510  0.82820  0.00340  Biso   1.000  C
  C242     1.0000 0.47290  0.64810  0.88220  Biso   1.000  C
  H158     1.0000 0.45560  0.64060  0.84240  Biso   1.000  H
  C243     1.0000 0.82500  0.95940  0.97290  Biso   1.000  C
  H159     1.0000 0.86700  0.98250  0.99340  Biso   1.000  H
  C244     1.0000 0.00150  0.57230  0.40540  Biso   1.000  C
  H160     1.0000 0.01920  0.54290  0.38420  Biso   1.000  H
  C245     1.0000 0.30560  0.49520  0.74050  Biso   1.000  C
  H161     1.0000 0.34950  0.47770  0.76150  Biso   1.000  H
  C246     1.0000 0.21140  0.55320  0.73850  Biso   1.000  C
  H162     1.0000 0.18820  0.57680  0.75760  Biso   1.000  H
  C247     1.0000 0.94380  0.61570  0.37780  Biso   1.000  C
  H163     1.0000 0.92450  0.61740  0.33760  Biso   1.000  H
  C248     1.0000 0.74480  0.70520  0.23500  Biso   1.000  C
  H164     1.0000 0.72620  0.67000  0.25240  Biso   1.000  H
  C249     1.0000 0.27770  0.48350  0.68180  Biso   1.000  C
  H165     1.0000 0.30190  0.45970  0.66380  Biso   1.000  H
  C250     1.0000 0.71420  0.71310  0.17620  Biso   1.000  C
  H166     1.0000 0.67490  0.68540  0.15440  Biso   1.000  H
  C251     1.0000 0.80250  0.80060  0.18360  Biso   1.000  C
  H167     1.0000 0.82500  0.83170  0.16730  Biso   1.000  H
  C252     1.0000 0.82750  0.79020  0.24210  Biso   1.000  C
  H168     1.0000 0.86700  0.81700  0.26480  Biso   1.000  H
  N73      1.0000 0.79550  0.97000  0.91630  Biso   1.000  N
  N74      1.0000 0.43900  0.61830  0.91000  Biso   1.000  N
  N75      1.0000 0.80060  0.74580  0.26900  Biso   1.000  N
  N76      1.0000 0.64780  0.78990  0.97080  Biso   1.000  N
  N77      1.0000 0.65250  0.73400  0.05740  Biso   1.000  N
  N78      1.0000 0.73750  0.82260  0.06090  Biso   1.000  N
  N79      1.0000 0.27930  0.31280  0.42060  Biso   1.000  N
  N80      1.0000 0.91340  0.65630  0.40560  Biso   1.000  N
  N81      1.0000 0.27490  0.52960  0.76980  Biso   1.000  N
  N82      1.0000 0.12550  0.48710  0.47180  Biso   1.000  N
  N83      1.0000 0.12300  0.53700  0.55690  Biso   1.000  N
  N84      1.0000 0.21090  0.45100  0.56310  Biso   1.000  N
  Ag15     1.0000 0.34423  0.54333  0.86683  Biso   1.000  Ag
  Ag16     1.0000 0.32171  0.24384  0.36644  Biso   1.000  Ag
  C253     1.0000 0.59760  0.02840  0.49910  Biso   1.000  C
  C254     1.0000 0.03260  0.18970  0.90900  Biso   1.000  C
  H169     1.0000 0.05400  0.21040  0.88760  Biso   1.000  H
  C255     1.0000 0.12340  0.24430  0.00030  Biso   1.000  C
  C256     1.0000 0.50370  0.11500  0.49460  Biso   1.000  C
  H170     1.0000 0.52350  0.11660  0.53480  Biso   1.000  H
  C257     1.0000 0.05970  0.19980  0.96800  Biso   1.000  C
  C258     1.0000 0.68170  0.94740  0.50530  Biso   1.000  C
  C259     1.0000 0.53310  0.07260  0.46500  Biso   1.000  C
  C260     1.0000 0.29750  0.41630  0.00370  Biso   1.000  C
  H171     1.0000 0.31970  0.41230  0.04370  Biso   1.000  H
  C261     1.0000 0.20940  0.27490  0.08580  Biso   1.000  C
  C262     1.0000 0.44420  0.15520  0.46290  Biso   1.000  C
  H172     1.0000 0.42460  0.18310  0.48320  Biso   1.000  H
  C263     1.0000 0.77700  0.86150  0.50830  Biso   1.000  C
  H173     1.0000 0.79780  0.86520  0.54850  Biso   1.000  H
  C264     1.0000 0.72020  0.84730  0.39080  Biso   1.000  C
  H174     1.0000 0.70040  0.84260  0.35080  Biso   1.000  H
  C265     1.0000 0.24270  0.26330  0.14950  Biso   1.000  C
  C266     1.0000 0.23520  0.37880  0.97300  Biso   1.000  C
  C267     1.0000 0.67880  0.04420  0.67900  Biso   1.000  C
  H175     1.0000 0.63480  0.06200  0.65870  Biso   1.000  H
  C268     1.0000 0.71410  0.89850  0.47580  Biso   1.000  C
  C269     1.0000 0.23540  0.43570  0.88740  Biso   1.000  C
  H176     1.0000 0.21380  0.44270  0.84760  Biso   1.000  H
  C270     1.0000 0.71210  0.00860  0.65060  Biso   1.000  C
  C271     1.0000 0.02580  0.16570  0.99760  Biso   1.000  C
  H177     1.0000 0.04320  0.16960  0.03760  Biso   1.000  H
  C272     1.0000 0.96720  0.12650  0.96750  Biso   1.000  C
  H178     1.0000 0.94530  0.10410  0.98800  Biso   1.000  H
  C273     1.0000 0.67990  0.99790  0.58620  Biso   1.000  C
  C274     1.0000 0.68630  0.89030  0.41710  Biso   1.000  C
  H179     1.0000 0.64480  0.91330  0.39460  Biso   1.000  H
  C275     1.0000 0.80680  0.81930  0.47820  Biso   1.000  C
  H180     1.0000 0.84780  0.79450  0.49930  Biso   1.000  H
  C276     1.0000 0.20380  0.39060  0.91370  Biso   1.000  C
  H181     1.0000 0.16190  0.36830  0.89190  Biso   1.000  H
  C277     1.0000 0.20510  0.32820  0.00340  Biso   1.000  C
  C278     1.0000 0.97290  0.14810  0.88220  Biso   1.000  C
  H182     1.0000 0.95560  0.14060  0.84240  Biso   1.000  H
  C279     1.0000 0.32500  0.45940  0.97290  Biso   1.000  C
  H183     1.0000 0.36700  0.48250  0.99340  Biso   1.000  H
  C280     1.0000 0.50150  0.07230  0.40540  Biso   1.000  C
  H184     1.0000 0.51920  0.04290  0.38420  Biso   1.000  H
  C281     1.0000 0.80560  0.99520  0.74050  Biso   1.000  C
  H185     1.0000 0.84950  0.97770  0.76150  Biso   1.000  H
  C282     1.0000 0.71140  0.05320  0.73850  Biso   1.000  C
  H186     1.0000 0.68820  0.07680  0.75760  Biso   1.000  H
  C283     1.0000 0.44380  0.11570  0.37780  Biso   1.000  C
  H187     1.0000 0.42450  0.11740  0.33760  Biso   1.000  H
  C284     1.0000 0.24480  0.20520  0.23500  Biso   1.000  C
  H188     1.0000 0.22620  0.17000  0.25240  Biso   1.000  H
  C285     1.0000 0.77770  0.98350  0.68180  Biso   1.000  C
  H189     1.0000 0.80190  0.95970  0.66380  Biso   1.000  H
  C286     1.0000 0.21420  0.21310  0.17620  Biso   1.000  C
  H190     1.0000 0.17490  0.18540  0.15440  Biso   1.000  H
  C287     1.0000 0.30250  0.30060  0.18360  Biso   1.000  C
  H191     1.0000 0.32500  0.33170  0.16730  Biso   1.000  H
  C288     1.0000 0.32750  0.29020  0.24210  Biso   1.000  C
  H192     1.0000 0.36700  0.31700  0.26480  Biso   1.000  H
  N85      1.0000 0.29550  0.47000  0.91630  Biso   1.000  N
  N86      1.0000 0.93900  0.11830  0.91000  Biso   1.000  N
  N87      1.0000 0.30060  0.24580  0.26900  Biso   1.000  N
  N88      1.0000 0.14780  0.28990  0.97080  Biso   1.000  N
  N89      1.0000 0.15250  0.23400  0.05740  Biso   1.000  N
  N90      1.0000 0.23750  0.32260  0.06090  Biso   1.000  N
  N91      1.0000 0.77930  0.81280  0.42060  Biso   1.000  N
  N92      1.0000 0.41340  0.15630  0.40560  Biso   1.000  N
  N93      1.0000 0.77490  0.02960  0.76980  Biso   1.000  N
  N94      1.0000 0.62550  0.98710  0.47180  Biso   1.000  N
  N95      1.0000 0.62300  0.03700  0.55690  Biso   1.000  N
  N96      1.0000 0.71090  0.95100  0.56310  Biso   1.000  N
