data_image0
_cell_length_a       21.9302
_cell_length_b       16.7795
_cell_length_c       25.488
_cell_angle_alpha    90
_cell_angle_beta     115.029
_cell_angle_gamma    90

_symmetry_space_group_name_H-M    "P 1"
_symmetry_int_tables_number       1

loop_
  _symmetry_equiv_pos_as_xyz
  'x, y, z'

loop_
  _atom_site_label
  _atom_site_occupancy
  _atom_site_fract_x
  _atom_site_fract_y
  _atom_site_fract_z
  _atom_site_thermal_displace_type
  _atom_site_B_iso_or_equiv
  _atom_site_type_symbol
  Ag1      1.0000 0.34423  0.45588  0.36631  Biso   1.000  Ag
  Ag2      1.0000 0.32111  0.75773  0.86597  Biso   1.000  Ag
  C1       1.0000 0.59760  0.97180  0.99860  Biso   1.000  C
  C2       1.0000 0.03240  0.80910  0.40820  Biso   1.000  C
  H1       1.0000 0.05370  0.78780  0.38670  Biso   1.000  H
  C3       1.0000 0.77620  0.13870  0.00700  Biso   1.000  C
  H2       1.0000 0.79690  0.13470  0.04720  Biso   1.000  H
  C4       1.0000 0.05970  0.79950  0.46710  Biso   1.000  C
  C5       1.0000 0.29730  0.58330  0.50290  Biso   1.000  C
  H3       1.0000 0.31940  0.58730  0.54300  Biso   1.000  H
  C6       1.0000 0.12280  0.75560  0.49930  Biso   1.000  C
  C7       1.0000 0.50350  0.88570  0.99390  Biso   1.000  C
  H4       1.0000 0.52320  0.88410  0.03410  Biso   1.000  H
  C8       1.0000 0.53260  0.92790  0.96440  Biso   1.000  C
  C9       1.0000 0.68150  0.05240  0.00440  Biso   1.000  C
  C10      1.0000 0.20930  0.72510  0.58510  Biso   1.000  C
  C11      1.0000 0.71370  0.10170  0.97500  Biso   1.000  C
  C12      1.0000 0.71960  0.15250  0.88980  Biso   1.000  C
  H5       1.0000 0.70030  0.15640  0.84970  Biso   1.000  H
  C13      1.0000 0.44350  0.84500  0.96200  Biso   1.000  C
  H6       1.0000 0.42410  0.81610  0.98220  Biso   1.000  H
  C14      1.0000 0.71170  0.99170  0.15000  Biso   1.000  C
  C15      1.0000 0.23480  0.62080  0.47200  Biso   1.000  C
  C16      1.0000 0.23570  0.56450  0.38670  Biso   1.000  C
  H7       1.0000 0.21470  0.55860  0.34670  Biso   1.000  H
  C17      1.0000 0.24260  0.73630  0.64880  Biso   1.000  C
  C18      1.0000 0.67870  0.95540  0.17920  Biso   1.000  C
  H8       1.0000 0.63490  0.93710  0.15890  Biso   1.000  H
  C19      1.0000 0.02490  0.83420  0.49660  Biso   1.000  C
  H9       1.0000 0.04190  0.83080  0.53670  Biso   1.000  H
  C20      1.0000 0.80630  0.18120  0.97760  Biso   1.000  C
  H10      1.0000 0.84720  0.20630  0.99890  Biso   1.000  H
  C21      1.0000 0.67940  0.00250  0.08480  Biso   1.000  C
  C22      1.0000 0.20410  0.60930  0.41330  Biso   1.000  C
  H11      1.0000 0.16200  0.63150  0.39140  Biso   1.000  H
  C23      1.0000 0.20470  0.67120  0.50200  Biso   1.000  C
  C24      1.0000 0.68550  0.11050  0.91620  Biso   1.000  C
  H12      1.0000 0.64360  0.08840  0.89390  Biso   1.000  H
  C25      1.0000 0.32490  0.54090  0.47250  Biso   1.000  C
  H13      1.0000 0.36720  0.51870  0.49290  Biso   1.000  H
  C26      1.0000 0.50110  0.92860  0.90450  Biso   1.000  C
  H14      1.0000 0.51890  0.95790  0.88330  Biso   1.000  H
  C27      1.0000 0.97250  0.85100  0.38090  Biso   1.000  C
  H15      1.0000 0.95490  0.85830  0.34100  Biso   1.000  H
  C28      1.0000 0.80590  0.00460  0.24030  Biso   1.000  C
  H16      1.0000 0.84950  0.02310  0.26140  Biso   1.000  H
  C29      1.0000 0.21350  0.78600  0.67560  Biso   1.000  C
  H17      1.0000 0.17380  0.81310  0.65410  Biso   1.000  H
  C30      1.0000 0.96680  0.87230  0.46600  Biso   1.000  C
  H18      1.0000 0.94430  0.89450  0.48630  Biso   1.000  H
  C31      1.0000 0.71070  0.94630  0.23790  Biso   1.000  C
  H19      1.0000 0.68730  0.92290  0.25690  Biso   1.000  H
  C32      1.0000 0.24520  0.79370  0.73460  Biso   1.000  C
  H20      1.0000 0.22660  0.82840  0.75220  Biso   1.000  H
  C33      1.0000 0.44310  0.88540  0.87700  Biso   1.000  C
  H21      1.0000 0.42380  0.88380  0.83670  Biso   1.000  H
  C34      1.0000 0.77740  0.01520  0.18080  Biso   1.000  C
  H22      1.0000 0.80200  0.03740  0.16230  Biso   1.000  H
  C35      1.0000 0.30200  0.69980  0.68200  Biso   1.000  C
  H23      1.0000 0.32450  0.66880  0.66540  Biso   1.000  H
  C36      1.0000 0.32780  0.71080  0.74180  Biso   1.000  C
  H24      1.0000 0.36760  0.68450  0.76470  Biso   1.000  H
  N1       1.0000 0.29510  0.52950  0.41580  Biso   1.000  N
  N2       1.0000 0.93940  0.88070  0.40940  Biso   1.000  N
  N3       1.0000 0.30040  0.75510  0.76800  Biso   1.000  N
  N4       1.0000 0.23680  0.67730  0.56000  Biso   1.000  N
  N5       1.0000 0.14760  0.70950  0.46970  Biso   1.000  N
  N6       1.0000 0.15230  0.76550  0.55660  Biso   1.000  N
  N7       1.0000 0.77920  0.18760  0.92010  Biso   1.000  N
  N8       1.0000 0.41270  0.84530  0.90480  Biso   1.000  N
  N9       1.0000 0.77510  0.96980  0.26950  Biso   1.000  N
  N10      1.0000 0.62490  0.01350  0.97050  Biso   1.000  N
  N11      1.0000 0.71070  0.04900  0.06250  Biso   1.000  N
  N12      1.0000 0.62230  0.96230  0.05610  Biso   1.000  N
  Ag3      1.0000 0.84423  0.95588  0.36631  Biso   1.000  Ag
  Ag4      1.0000 0.82111  0.25773  0.86597  Biso   1.000  Ag
  C37      1.0000 0.09760  0.47180  0.99860  Biso   1.000  C
  C38      1.0000 0.53240  0.30910  0.40820  Biso   1.000  C
  H25      1.0000 0.55370  0.28780  0.38670  Biso   1.000  H
  C39      1.0000 0.27620  0.63870  0.00700  Biso   1.000  C
  H26      1.0000 0.29690  0.63470  0.04720  Biso   1.000  H
  C40      1.0000 0.55970  0.29950  0.46710  Biso   1.000  C
  C41      1.0000 0.79730  0.08330  0.50290  Biso   1.000  C
  H27      1.0000 0.81940  0.08730  0.54300  Biso   1.000  H
  C42      1.0000 0.62280  0.25560  0.49930  Biso   1.000  C
  C43      1.0000 0.00350  0.38570  0.99390  Biso   1.000  C
  H28      1.0000 0.02320  0.38410  0.03410  Biso   1.000  H
  C44      1.0000 0.03260  0.42790  0.96440  Biso   1.000  C
  C45      1.0000 0.18150  0.55240  0.00440  Biso   1.000  C
  C46      1.0000 0.70930  0.22510  0.58510  Biso   1.000  C
  C47      1.0000 0.21370  0.60170  0.97500  Biso   1.000  C
  C48      1.0000 0.21960  0.65250  0.88980  Biso   1.000  C
  H29      1.0000 0.20030  0.65640  0.84970  Biso   1.000  H
  C49      1.0000 0.94350  0.34500  0.96200  Biso   1.000  C
  H30      1.0000 0.92410  0.31610  0.98220  Biso   1.000  H
  C50      1.0000 0.21170  0.49170  0.15000  Biso   1.000  C
  C51      1.0000 0.73480  0.12080  0.47200  Biso   1.000  C
  C52      1.0000 0.73570  0.06450  0.38670  Biso   1.000  C
  H31      1.0000 0.71470  0.05860  0.34670  Biso   1.000  H
  C53      1.0000 0.74260  0.23630  0.64880  Biso   1.000  C
  C54      1.0000 0.17870  0.45540  0.17920  Biso   1.000  C
  H32      1.0000 0.13490  0.43710  0.15890  Biso   1.000  H
  C55      1.0000 0.52490  0.33420  0.49660  Biso   1.000  C
  H33      1.0000 0.54190  0.33080  0.53670  Biso   1.000  H
  C56      1.0000 0.30630  0.68120  0.97760  Biso   1.000  C
  H34      1.0000 0.34720  0.70630  0.99890  Biso   1.000  H
  C57      1.0000 0.17940  0.50250  0.08480  Biso   1.000  C
  C58      1.0000 0.70410  0.10930  0.41330  Biso   1.000  C
  H35      1.0000 0.66200  0.13150  0.39140  Biso   1.000  H
  C59      1.0000 0.70470  0.17120  0.50200  Biso   1.000  C
  C60      1.0000 0.18550  0.61050  0.91620  Biso   1.000  C
  H36      1.0000 0.14360  0.58840  0.89390  Biso   1.000  H
  C61      1.0000 0.82490  0.04090  0.47250  Biso   1.000  C
  H37      1.0000 0.86720  0.01870  0.49290  Biso   1.000  H
  C62      1.0000 0.00110  0.42860  0.90450  Biso   1.000  C
  H38      1.0000 0.01890  0.45790  0.88330  Biso   1.000  H
  C63      1.0000 0.47250  0.35100  0.38090  Biso   1.000  C
  H39      1.0000 0.45490  0.35830  0.34100  Biso   1.000  H
  C64      1.0000 0.30590  0.50460  0.24030  Biso   1.000  C
  H40      1.0000 0.34950  0.52310  0.26140  Biso   1.000  H
  C65      1.0000 0.71350  0.28600  0.67560  Biso   1.000  C
  H41      1.0000 0.67380  0.31310  0.65410  Biso   1.000  H
  C66      1.0000 0.46680  0.37230  0.46600  Biso   1.000  C
  H42      1.0000 0.44430  0.39450  0.48630  Biso   1.000  H
  C67      1.0000 0.21070  0.44630  0.23790  Biso   1.000  C
  H43      1.0000 0.18730  0.42290  0.25690  Biso   1.000  H
  C68      1.0000 0.74520  0.29370  0.73460  Biso   1.000  C
  H44      1.0000 0.72660  0.32840  0.75220  Biso   1.000  H
  C69      1.0000 0.94310  0.38540  0.87700  Biso   1.000  C
  H45      1.0000 0.92380  0.38380  0.83670  Biso   1.000  H
  C70      1.0000 0.27740  0.51520  0.18080  Biso   1.000  C
  H46      1.0000 0.30200  0.53740  0.16230  Biso   1.000  H
  C71      1.0000 0.80200  0.19980  0.68200  Biso   1.000  C
  H47      1.0000 0.82450  0.16880  0.66540  Biso   1.000  H
  C72      1.0000 0.82780  0.21080  0.74180  Biso   1.000  C
  H48      1.0000 0.86760  0.18450  0.76470  Biso   1.000  H
  N13      1.0000 0.79510  0.02950  0.41580  Biso   1.000  N
  N14      1.0000 0.43940  0.38070  0.40940  Biso   1.000  N
  N15      1.0000 0.80040  0.25510  0.76800  Biso   1.000  N
  N16      1.0000 0.73680  0.17730  0.56000  Biso   1.000  N
  N17      1.0000 0.64760  0.20950  0.46970  Biso   1.000  N
  N18      1.0000 0.65230  0.26550  0.55660  Biso   1.000  N
  N19      1.0000 0.27920  0.68760  0.92010  Biso   1.000  N
  N20      1.0000 0.91270  0.34530  0.90480  Biso   1.000  N
  N21      1.0000 0.27510  0.46980  0.26950  Biso   1.000  N
  N22      1.0000 0.12490  0.51350  0.97050  Biso   1.000  N
  N23      1.0000 0.21070  0.54900  0.06250  Biso   1.000  N
  N24      1.0000 0.12230  0.46230  0.05610  Biso   1.000  N
  Ag5      1.0000 0.65577  0.45588  0.13369  Biso   1.000  Ag
  Ag6      1.0000 0.67889  0.75773  0.63403  Biso   1.000  Ag
  C73      1.0000 0.40240  0.97180  0.50140  Biso   1.000  C
  C74      1.0000 0.96760  0.80910  0.09180  Biso   1.000  C
  H49      1.0000 0.94630  0.78780  0.11330  Biso   1.000  H
  C75      1.0000 0.22380  0.13870  0.49300  Biso   1.000  C
  H50      1.0000 0.20310  0.13470  0.45280  Biso   1.000  H
  C76      1.0000 0.94030  0.79950  0.03290  Biso   1.000  C
  C77      1.0000 0.70270  0.58330  0.99710  Biso   1.000  C
  H51      1.0000 0.68060  0.58730  0.95700  Biso   1.000  H
  C78      1.0000 0.87720  0.75560  0.00070  Biso   1.000  C
  C79      1.0000 0.49650  0.88570  0.50610  Biso   1.000  C
  H52      1.0000 0.47680  0.88410  0.46590  Biso   1.000  H
  C80      1.0000 0.46740  0.92790  0.53560  Biso   1.000  C
  C81      1.0000 0.31850  0.05240  0.49560  Biso   1.000  C
  C82      1.0000 0.79070  0.72510  0.91490  Biso   1.000  C
  C83      1.0000 0.28630  0.10170  0.52500  Biso   1.000  C
  C84      1.0000 0.28040  0.15250  0.61020  Biso   1.000  C
  H53      1.0000 0.29970  0.15640  0.65030  Biso   1.000  H
  C85      1.0000 0.55650  0.84500  0.53800  Biso   1.000  C
  H54      1.0000 0.57590  0.81610  0.51780  Biso   1.000  H
  C86      1.0000 0.28830  0.99170  0.35000  Biso   1.000  C
  C87      1.0000 0.76520  0.62080  0.02800  Biso   1.000  C
  C88      1.0000 0.76430  0.56450  0.11330  Biso   1.000  C
  H55      1.0000 0.78530  0.55860  0.15330  Biso   1.000  H
  C89      1.0000 0.75740  0.73630  0.85120  Biso   1.000  C
  C90      1.0000 0.32130  0.95540  0.32080  Biso   1.000  C
  H56      1.0000 0.36510  0.93710  0.34110  Biso   1.000  H
  C91      1.0000 0.97510  0.83420  0.00340  Biso   1.000  C
  H57      1.0000 0.95810  0.83080  0.96330  Biso   1.000  H
  C92      1.0000 0.19370  0.18120  0.52240  Biso   1.000  C
  H58      1.0000 0.15280  0.20630  0.50110  Biso   1.000  H
  C93      1.0000 0.32060  0.00250  0.41520  Biso   1.000  C
  C94      1.0000 0.79590  0.60930  0.08670  Biso   1.000  C
  H59      1.0000 0.83800  0.63150  0.10860  Biso   1.000  H
  C95      1.0000 0.79530  0.67120  0.99800  Biso   1.000  C
  C96      1.0000 0.31450  0.11050  0.58380  Biso   1.000  C
  H60      1.0000 0.35640  0.08840  0.60610  Biso   1.000  H
  C97      1.0000 0.67510  0.54090  0.02750  Biso   1.000  C
  H61      1.0000 0.63280  0.51870  0.00710  Biso   1.000  H
  C98      1.0000 0.49890  0.92860  0.59550  Biso   1.000  C
  H62      1.0000 0.48110  0.95790  0.61670  Biso   1.000  H
  C99      1.0000 0.02750  0.85100  0.11910  Biso   1.000  C
  H63      1.0000 0.04510  0.85830  0.15900  Biso   1.000  H
  C100     1.0000 0.19410  0.00460  0.25970  Biso   1.000  C
  H64      1.0000 0.15050  0.02310  0.23860  Biso   1.000  H
  C101     1.0000 0.78650  0.78600  0.82440  Biso   1.000  C
  H65      1.0000 0.82620  0.81310  0.84590  Biso   1.000  H
  C102     1.0000 0.03320  0.87230  0.03400  Biso   1.000  C
  H66      1.0000 0.05570  0.89450  0.01370  Biso   1.000  H
  C103     1.0000 0.28930  0.94630  0.26210  Biso   1.000  C
  H67      1.0000 0.31270  0.92290  0.24310  Biso   1.000  H
  C104     1.0000 0.75480  0.79370  0.76540  Biso   1.000  C
  H68      1.0000 0.77340  0.82840  0.74780  Biso   1.000  H
  C105     1.0000 0.55690  0.88540  0.62300  Biso   1.000  C
  H69      1.0000 0.57620  0.88380  0.66330  Biso   1.000  H
  C106     1.0000 0.22260  0.01520  0.31920  Biso   1.000  C
  H70      1.0000 0.19800  0.03740  0.33770  Biso   1.000  H
  C107     1.0000 0.69800  0.69980  0.81800  Biso   1.000  C
  H71      1.0000 0.67550  0.66880  0.83460  Biso   1.000  H
  C108     1.0000 0.67220  0.71080  0.75820  Biso   1.000  C
  H72      1.0000 0.63240  0.68450  0.73530  Biso   1.000  H
  N25      1.0000 0.70490  0.52950  0.08420  Biso   1.000  N
  N26      1.0000 0.06060  0.88070  0.09060  Biso   1.000  N
  N27      1.0000 0.69960  0.75510  0.73200  Biso   1.000  N
  N28      1.0000 0.76320  0.67730  0.94000  Biso   1.000  N
  N29      1.0000 0.85240  0.70950  0.03030  Biso   1.000  N
  N30      1.0000 0.84770  0.76550  0.94340  Biso   1.000  N
  N31      1.0000 0.22080  0.18760  0.57990  Biso   1.000  N
  N32      1.0000 0.58730  0.84530  0.59520  Biso   1.000  N
  N33      1.0000 0.22490  0.96980  0.23050  Biso   1.000  N
  N34      1.0000 0.37510  0.01350  0.52950  Biso   1.000  N
  N35      1.0000 0.28930  0.04900  0.43750  Biso   1.000  N
  N36      1.0000 0.37770  0.96230  0.44390  Biso   1.000  N
  Ag7      1.0000 0.15577  0.95588  0.13369  Biso   1.000  Ag
  Ag8      1.0000 0.17889  0.25773  0.63403  Biso   1.000  Ag
  C109     1.0000 0.90240  0.47180  0.50140  Biso   1.000  C
  C110     1.0000 0.46760  0.30910  0.09180  Biso   1.000  C
  H73      1.0000 0.44630  0.28780  0.11330  Biso   1.000  H
  C111     1.0000 0.72380  0.63870  0.49300  Biso   1.000  C
  H74      1.0000 0.70310  0.63470  0.45280  Biso   1.000  H
  C112     1.0000 0.44030  0.29950  0.03290  Biso   1.000  C
  C113     1.0000 0.20270  0.08330  0.99710  Biso   1.000  C
  H75      1.0000 0.18060  0.08730  0.95700  Biso   1.000  H
  C114     1.0000 0.37720  0.25560  0.00070  Biso   1.000  C
  C115     1.0000 0.99650  0.38570  0.50610  Biso   1.000  C
  H76      1.0000 0.97680  0.38410  0.46590  Biso   1.000  H
  C116     1.0000 0.96740  0.42790  0.53560  Biso   1.000  C
  C117     1.0000 0.81850  0.55240  0.49560  Biso   1.000  C
  C118     1.0000 0.29070  0.22510  0.91490  Biso   1.000  C
  C119     1.0000 0.78630  0.60170  0.52500  Biso   1.000  C
  C120     1.0000 0.78040  0.65250  0.61020  Biso   1.000  C
  H77      1.0000 0.79970  0.65640  0.65030  Biso   1.000  H
  C121     1.0000 0.05650  0.34500  0.53800  Biso   1.000  C
  H78      1.0000 0.07590  0.31610  0.51780  Biso   1.000  H
  C122     1.0000 0.78830  0.49170  0.35000  Biso   1.000  C
  C123     1.0000 0.26520  0.12080  0.02800  Biso   1.000  C
  C124     1.0000 0.26430  0.06450  0.11330  Biso   1.000  C
  H79      1.0000 0.28530  0.05860  0.15330  Biso   1.000  H
  C125     1.0000 0.25740  0.23630  0.85120  Biso   1.000  C
  C126     1.0000 0.82130  0.45540  0.32080  Biso   1.000  C
  H80      1.0000 0.86510  0.43710  0.34110  Biso   1.000  H
  C127     1.0000 0.47510  0.33420  0.00340  Biso   1.000  C
  H81      1.0000 0.45810  0.33080  0.96330  Biso   1.000  H
  C128     1.0000 0.69370  0.68120  0.52240  Biso   1.000  C
  H82      1.0000 0.65280  0.70630  0.50110  Biso   1.000  H
  C129     1.0000 0.82060  0.50250  0.41520  Biso   1.000  C
  C130     1.0000 0.29590  0.10930  0.08670  Biso   1.000  C
  H83      1.0000 0.33800  0.13150  0.10860  Biso   1.000  H
  C131     1.0000 0.29530  0.17120  0.99800  Biso   1.000  C
  C132     1.0000 0.81450  0.61050  0.58380  Biso   1.000  C
  H84      1.0000 0.85640  0.58840  0.60610  Biso   1.000  H
  C133     1.0000 0.17510  0.04090  0.02750  Biso   1.000  C
  H85      1.0000 0.13280  0.01870  0.00710  Biso   1.000  H
  C134     1.0000 0.99890  0.42860  0.59550  Biso   1.000  C
  H86      1.0000 0.98110  0.45790  0.61670  Biso   1.000  H
  C135     1.0000 0.52750  0.35100  0.11910  Biso   1.000  C
  H87      1.0000 0.54510  0.35830  0.15900  Biso   1.000  H
  C136     1.0000 0.69410  0.50460  0.25970  Biso   1.000  C
  H88      1.0000 0.65050  0.52310  0.23860  Biso   1.000  H
  C137     1.0000 0.28650  0.28600  0.82440  Biso   1.000  C
  H89      1.0000 0.32620  0.31310  0.84590  Biso   1.000  H
  C138     1.0000 0.53320  0.37230  0.03400  Biso   1.000  C
  H90      1.0000 0.55570  0.39450  0.01370  Biso   1.000  H
  C139     1.0000 0.78930  0.44630  0.26210  Biso   1.000  C
  H91      1.0000 0.81270  0.42290  0.24310  Biso   1.000  H
  C140     1.0000 0.25480  0.29370  0.76540  Biso   1.000  C
  H92      1.0000 0.27340  0.32840  0.74780  Biso   1.000  H
  C141     1.0000 0.05690  0.38540  0.62300  Biso   1.000  C
  H93      1.0000 0.07620  0.38380  0.66330  Biso   1.000  H
  C142     1.0000 0.72260  0.51520  0.31920  Biso   1.000  C
  H94      1.0000 0.69800  0.53740  0.33770  Biso   1.000  H
  C143     1.0000 0.19800  0.19980  0.81800  Biso   1.000  C
  H95      1.0000 0.17550  0.16880  0.83460  Biso   1.000  H
  C144     1.0000 0.17220  0.21080  0.75820  Biso   1.000  C
  H96      1.0000 0.13240  0.18450  0.73530  Biso   1.000  H
  N37      1.0000 0.20490  0.02950  0.08420  Biso   1.000  N
  N38      1.0000 0.56060  0.38070  0.09060  Biso   1.000  N
  N39      1.0000 0.19960  0.25510  0.73200  Biso   1.000  N
  N40      1.0000 0.26320  0.17730  0.94000  Biso   1.000  N
  N41      1.0000 0.35240  0.20950  0.03030  Biso   1.000  N
  N42      1.0000 0.34770  0.26550  0.94340  Biso   1.000  N
  N43      1.0000 0.72080  0.68760  0.57990  Biso   1.000  N
  N44      1.0000 0.08730  0.34530  0.59520  Biso   1.000  N
  N45      1.0000 0.72490  0.46980  0.23050  Biso   1.000  N
  N46      1.0000 0.87510  0.51350  0.52950  Biso   1.000  N
  N47      1.0000 0.78930  0.54900  0.43750  Biso   1.000  N
  N48      1.0000 0.87770  0.46230  0.44390  Biso   1.000  N
  Ag9      1.0000 0.65577  0.54412  0.63369  Biso   1.000  Ag
  Ag10     1.0000 0.67889  0.24227  0.13403  Biso   1.000  Ag
  C145     1.0000 0.40240  0.02820  0.00140  Biso   1.000  C
  C146     1.0000 0.96760  0.19090  0.59180  Biso   1.000  C
  H97      1.0000 0.94630  0.21220  0.61330  Biso   1.000  H
  C147     1.0000 0.22380  0.86130  0.99300  Biso   1.000  C
  H98      1.0000 0.20310  0.86530  0.95280  Biso   1.000  H
  C148     1.0000 0.94030  0.20050  0.53290  Biso   1.000  C
  C149     1.0000 0.70270  0.41670  0.49710  Biso   1.000  C
  H99      1.0000 0.68060  0.41270  0.45700  Biso   1.000  H
  C150     1.0000 0.87720  0.24440  0.50070  Biso   1.000  C
  C151     1.0000 0.49650  0.11430  0.00610  Biso   1.000  C
  H100     1.0000 0.47680  0.11590  0.96590  Biso   1.000  H
  C152     1.0000 0.46740  0.07210  0.03560  Biso   1.000  C
  C153     1.0000 0.31850  0.94760  0.99560  Biso   1.000  C
  C154     1.0000 0.79070  0.27490  0.41490  Biso   1.000  C
  C155     1.0000 0.28630  0.89830  0.02500  Biso   1.000  C
  C156     1.0000 0.28040  0.84750  0.11020  Biso   1.000  C
  H101     1.0000 0.29970  0.84360  0.15030  Biso   1.000  H
  C157     1.0000 0.55650  0.15500  0.03800  Biso   1.000  C
  H102     1.0000 0.57590  0.18390  0.01780  Biso   1.000  H
  C158     1.0000 0.28830  0.00830  0.85000  Biso   1.000  C
  C159     1.0000 0.76520  0.37920  0.52800  Biso   1.000  C
  C160     1.0000 0.76430  0.43550  0.61330  Biso   1.000  C
  H103     1.0000 0.78530  0.44140  0.65330  Biso   1.000  H
  C161     1.0000 0.75740  0.26370  0.35120  Biso   1.000  C
  C162     1.0000 0.32130  0.04460  0.82080  Biso   1.000  C
  H104     1.0000 0.36510  0.06290  0.84110  Biso   1.000  H
  C163     1.0000 0.97510  0.16580  0.50340  Biso   1.000  C
  H105     1.0000 0.95810  0.16920  0.46330  Biso   1.000  H
  C164     1.0000 0.19370  0.81880  0.02240  Biso   1.000  C
  H106     1.0000 0.15280  0.79370  0.00110  Biso   1.000  H
  C165     1.0000 0.32060  0.99750  0.91520  Biso   1.000  C
  C166     1.0000 0.79590  0.39070  0.58670  Biso   1.000  C
  H107     1.0000 0.83800  0.36850  0.60860  Biso   1.000  H
  C167     1.0000 0.79530  0.32880  0.49800  Biso   1.000  C
  C168     1.0000 0.31450  0.88950  0.08380  Biso   1.000  C
  H108     1.0000 0.35640  0.91160  0.10610  Biso   1.000  H
  C169     1.0000 0.67510  0.45910  0.52750  Biso   1.000  C
  H109     1.0000 0.63280  0.48130  0.50710  Biso   1.000  H
  C170     1.0000 0.49890  0.07140  0.09550  Biso   1.000  C
  H110     1.0000 0.48110  0.04210  0.11670  Biso   1.000  H
  C171     1.0000 0.02750  0.14900  0.61910  Biso   1.000  C
  H111     1.0000 0.04510  0.14170  0.65900  Biso   1.000  H
  C172     1.0000 0.19410  0.99540  0.75970  Biso   1.000  C
  H112     1.0000 0.15050  0.97690  0.73860  Biso   1.000  H
  C173     1.0000 0.78650  0.21400  0.32440  Biso   1.000  C
  H113     1.0000 0.82620  0.18690  0.34590  Biso   1.000  H
  C174     1.0000 0.03320  0.12770  0.53400  Biso   1.000  C
  H114     1.0000 0.05570  0.10550  0.51370  Biso   1.000  H
  C175     1.0000 0.28930  0.05370  0.76210  Biso   1.000  C
  H115     1.0000 0.31270  0.07710  0.74310  Biso   1.000  H
  C176     1.0000 0.75480  0.20630  0.26540  Biso   1.000  C
  H116     1.0000 0.77340  0.17160  0.24780  Biso   1.000  H
  C177     1.0000 0.55690  0.11460  0.12300  Biso   1.000  C
  H117     1.0000 0.57620  0.11620  0.16330  Biso   1.000  H
  C178     1.0000 0.22260  0.98480  0.81920  Biso   1.000  C
  H118     1.0000 0.19800  0.96260  0.83770  Biso   1.000  H
  C179     1.0000 0.69800  0.30020  0.31800  Biso   1.000  C
  H119     1.0000 0.67550  0.33120  0.33460  Biso   1.000  H
  C180     1.0000 0.67220  0.28920  0.25820  Biso   1.000  C
  H120     1.0000 0.63240  0.31550  0.23530  Biso   1.000  H
  N49      1.0000 0.70490  0.47050  0.58420  Biso   1.000  N
  N50      1.0000 0.06060  0.11930  0.59060  Biso   1.000  N
  N51      1.0000 0.69960  0.24490  0.23200  Biso   1.000  N
  N52      1.0000 0.76320  0.32270  0.44000  Biso   1.000  N
  N53      1.0000 0.85240  0.29050  0.53030  Biso   1.000  N
  N54      1.0000 0.84770  0.23450  0.44340  Biso   1.000  N
  N55      1.0000 0.22080  0.81240  0.07990  Biso   1.000  N
  N56      1.0000 0.58730  0.15470  0.09520  Biso   1.000  N
  N57      1.0000 0.22490  0.03020  0.73050  Biso   1.000  N
  N58      1.0000 0.37510  0.98650  0.02950  Biso   1.000  N
  N59      1.0000 0.28930  0.95100  0.93750  Biso   1.000  N
  N60      1.0000 0.37770  0.03770  0.94390  Biso   1.000  N
  Ag11     1.0000 0.15577  0.04412  0.63369  Biso   1.000  Ag
  Ag12     1.0000 0.17889  0.74227  0.13403  Biso   1.000  Ag
  C181     1.0000 0.90240  0.52820  0.00140  Biso   1.000  C
  C182     1.0000 0.46760  0.69090  0.59180  Biso   1.000  C
  H121     1.0000 0.44630  0.71220  0.61330  Biso   1.000  H
  C183     1.0000 0.72380  0.36130  0.99300  Biso   1.000  C
  H122     1.0000 0.70310  0.36530  0.95280  Biso   1.000  H
  C184     1.0000 0.44030  0.70050  0.53290  Biso   1.000  C
  C185     1.0000 0.20270  0.91670  0.49710  Biso   1.000  C
  H123     1.0000 0.18060  0.91270  0.45700  Biso   1.000  H
  C186     1.0000 0.37720  0.74440  0.50070  Biso   1.000  C
  C187     1.0000 0.99650  0.61430  0.00610  Biso   1.000  C
  H124     1.0000 0.97680  0.61590  0.96590  Biso   1.000  H
  C188     1.0000 0.96740  0.57210  0.03560  Biso   1.000  C
  C189     1.0000 0.81850  0.44760  0.99560  Biso   1.000  C
  C190     1.0000 0.29070  0.77490  0.41490  Biso   1.000  C
  C191     1.0000 0.78630  0.39830  0.02500  Biso   1.000  C
  C192     1.0000 0.78040  0.34750  0.11020  Biso   1.000  C
  H125     1.0000 0.79970  0.34360  0.15030  Biso   1.000  H
  C193     1.0000 0.05650  0.65500  0.03800  Biso   1.000  C
  H126     1.0000 0.07590  0.68390  0.01780  Biso   1.000  H
  C194     1.0000 0.78830  0.50830  0.85000  Biso   1.000  C
  C195     1.0000 0.26520  0.87920  0.52800  Biso   1.000  C
  C196     1.0000 0.26430  0.93550  0.61330  Biso   1.000  C
  H127     1.0000 0.28530  0.94140  0.65330  Biso   1.000  H
  C197     1.0000 0.25740  0.76370  0.35120  Biso   1.000  C
  C198     1.0000 0.82130  0.54460  0.82080  Biso   1.000  C
  H128     1.0000 0.86510  0.56290  0.84110  Biso   1.000  H
  C199     1.0000 0.47510  0.66580  0.50340  Biso   1.000  C
  H129     1.0000 0.45810  0.66920  0.46330  Biso   1.000  H
  C200     1.0000 0.69370  0.31880  0.02240  Biso   1.000  C
  H130     1.0000 0.65280  0.29370  0.00110  Biso   1.000  H
  C201     1.0000 0.82060  0.49750  0.91520  Biso   1.000  C
  C202     1.0000 0.29590  0.89070  0.58670  Biso   1.000  C
  H131     1.0000 0.33800  0.86850  0.60860  Biso   1.000  H
  C203     1.0000 0.29530  0.82880  0.49800  Biso   1.000  C
  C204     1.0000 0.81450  0.38950  0.08380  Biso   1.000  C
  H132     1.0000 0.85640  0.41160  0.10610  Biso   1.000  H
  C205     1.0000 0.17510  0.95910  0.52750  Biso   1.000  C
  H133     1.0000 0.13280  0.98130  0.50710  Biso   1.000  H
  C206     1.0000 0.99890  0.57140  0.09550  Biso   1.000  C
  H134     1.0000 0.98110  0.54210  0.11670  Biso   1.000  H
  C207     1.0000 0.52750  0.64900  0.61910  Biso   1.000  C
  H135     1.0000 0.54510  0.64170  0.65900  Biso   1.000  H
  C208     1.0000 0.69410  0.49540  0.75970  Biso   1.000  C
  H136     1.0000 0.65050  0.47690  0.73860  Biso   1.000  H
  C209     1.0000 0.28650  0.71400  0.32440  Biso   1.000  C
  H137     1.0000 0.32620  0.68690  0.34590  Biso   1.000  H
  C210     1.0000 0.53320  0.62770  0.53400  Biso   1.000  C
  H138     1.0000 0.55570  0.60550  0.51370  Biso   1.000  H
  C211     1.0000 0.78930  0.55370  0.76210  Biso   1.000  C
  H139     1.0000 0.81270  0.57710  0.74310  Biso   1.000  H
  C212     1.0000 0.25480  0.70630  0.26540  Biso   1.000  C
  H140     1.0000 0.27340  0.67160  0.24780  Biso   1.000  H
  C213     1.0000 0.05690  0.61460  0.12300  Biso   1.000  C
  H141     1.0000 0.07620  0.61620  0.16330  Biso   1.000  H
  C214     1.0000 0.72260  0.48480  0.81920  Biso   1.000  C
  H142     1.0000 0.69800  0.46260  0.83770  Biso   1.000  H
  C215     1.0000 0.19800  0.80020  0.31800  Biso   1.000  C
  H143     1.0000 0.17550  0.83120  0.33460  Biso   1.000  H
  C216     1.0000 0.17220  0.78920  0.25820  Biso   1.000  C
  H144     1.0000 0.13240  0.81550  0.23530  Biso   1.000  H
  N61      1.0000 0.20490  0.97050  0.58420  Biso   1.000  N
  N62      1.0000 0.56060  0.61930  0.59060  Biso   1.000  N
  N63      1.0000 0.19960  0.74490  0.23200  Biso   1.000  N
  N64      1.0000 0.26320  0.82270  0.44000  Biso   1.000  N
  N65      1.0000 0.35240  0.79050  0.53030  Biso   1.000  N
  N66      1.0000 0.34770  0.73450  0.44340  Biso   1.000  N
  N67      1.0000 0.72080  0.31240  0.07990  Biso   1.000  N
  N68      1.0000 0.08730  0.65470  0.09520  Biso   1.000  N
  N69      1.0000 0.72490  0.53020  0.73050  Biso   1.000  N
  N70      1.0000 0.87510  0.48650  0.02950  Biso   1.000  N
  N71      1.0000 0.78930  0.45100  0.93750  Biso   1.000  N
  N72      1.0000 0.87770  0.53770  0.94390  Biso   1.000  N
  Ag13     1.0000 0.34423  0.54412  0.86631  Biso   1.000  Ag
  Ag14     1.0000 0.32111  0.24227  0.36597  Biso   1.000  Ag
  C217     1.0000 0.59760  0.02820  0.49860  Biso   1.000  C
  C218     1.0000 0.03240  0.19090  0.90820  Biso   1.000  C
  H145     1.0000 0.05370  0.21220  0.88670  Biso   1.000  H
  C219     1.0000 0.77620  0.86130  0.50700  Biso   1.000  C
  H146     1.0000 0.79690  0.86530  0.54720  Biso   1.000  H
  C220     1.0000 0.05970  0.20050  0.96710  Biso   1.000  C
  C221     1.0000 0.29730  0.41670  0.00290  Biso   1.000  C
  H147     1.0000 0.31940  0.41270  0.04300  Biso   1.000  H
  C222     1.0000 0.12280  0.24440  0.99930  Biso   1.000  C
  C223     1.0000 0.50350  0.11430  0.49390  Biso   1.000  C
  H148     1.0000 0.52320  0.11590  0.53410  Biso   1.000  H
  C224     1.0000 0.53260  0.07210  0.46440  Biso   1.000  C
  C225     1.0000 0.68150  0.94760  0.50440  Biso   1.000  C
  C226     1.0000 0.20930  0.27490  0.08510  Biso   1.000  C
  C227     1.0000 0.71370  0.89830  0.47500  Biso   1.000  C
  C228     1.0000 0.71960  0.84750  0.38980  Biso   1.000  C
  H149     1.0000 0.70030  0.84360  0.34970  Biso   1.000  H
  C229     1.0000 0.44350  0.15500  0.46200  Biso   1.000  C
  H150     1.0000 0.42410  0.18390  0.48220  Biso   1.000  H
  C230     1.0000 0.71170  0.00830  0.65000  Biso   1.000  C
  C231     1.0000 0.23480  0.37920  0.97200  Biso   1.000  C
  C232     1.0000 0.23570  0.43550  0.88670  Biso   1.000  C
  H151     1.0000 0.21470  0.44140  0.84670  Biso   1.000  H
  C233     1.0000 0.24260  0.26370  0.14880  Biso   1.000  C
  C234     1.0000 0.67870  0.04460  0.67920  Biso   1.000  C
  H152     1.0000 0.63490  0.06290  0.65890  Biso   1.000  H
  C235     1.0000 0.02490  0.16580  0.99660  Biso   1.000  C
  H153     1.0000 0.04190  0.16920  0.03670  Biso   1.000  H
  C236     1.0000 0.80630  0.81880  0.47760  Biso   1.000  C
  H154     1.0000 0.84720  0.79370  0.49890  Biso   1.000  H
  C237     1.0000 0.67940  0.99750  0.58480  Biso   1.000  C
  C238     1.0000 0.20410  0.39070  0.91330  Biso   1.000  C
  H155     1.0000 0.16200  0.36850  0.89140  Biso   1.000  H
  C239     1.0000 0.20470  0.32880  0.00200  Biso   1.000  C
  C240     1.0000 0.68550  0.88950  0.41620  Biso   1.000  C
  H156     1.0000 0.64360  0.91160  0.39390  Biso   1.000  H
  C241     1.0000 0.32490  0.45910  0.97250  Biso   1.000  C
  H157     1.0000 0.36720  0.48130  0.99290  Biso   1.000  H
  C242     1.0000 0.50110  0.07140  0.40450  Biso   1.000  C
  H158     1.0000 0.51890  0.04210  0.38330  Biso   1.000  H
  C243     1.0000 0.97250  0.14900  0.88090  Biso   1.000  C
  H159     1.0000 0.95490  0.14170  0.84100  Biso   1.000  H
  C244     1.0000 0.80590  0.99540  0.74030  Biso   1.000  C
  H160     1.0000 0.84950  0.97690  0.76140  Biso   1.000  H
  C245     1.0000 0.21350  0.21400  0.17560  Biso   1.000  C
  H161     1.0000 0.17380  0.18690  0.15410  Biso   1.000  H
  C246     1.0000 0.96680  0.12770  0.96600  Biso   1.000  C
  H162     1.0000 0.94430  0.10550  0.98630  Biso   1.000  H
  C247     1.0000 0.71070  0.05370  0.73790  Biso   1.000  C
  H163     1.0000 0.68730  0.07710  0.75690  Biso   1.000  H
  C248     1.0000 0.24520  0.20630  0.23460  Biso   1.000  C
  H164     1.0000 0.22660  0.17160  0.25220  Biso   1.000  H
  C249     1.0000 0.44310  0.11460  0.37700  Biso   1.000  C
  H165     1.0000 0.42380  0.11620  0.33670  Biso   1.000  H
  C250     1.0000 0.77740  0.98480  0.68080  Biso   1.000  C
  H166     1.0000 0.80200  0.96260  0.66230  Biso   1.000  H
  C251     1.0000 0.30200  0.30020  0.18200  Biso   1.000  C
  H167     1.0000 0.32450  0.33120  0.16540  Biso   1.000  H
  C252     1.0000 0.32780  0.28920  0.24180  Biso   1.000  C
  H168     1.0000 0.36760  0.31550  0.26470  Biso   1.000  H
  N73      1.0000 0.29510  0.47050  0.91580  Biso   1.000  N
  N74      1.0000 0.93940  0.11930  0.90940  Biso   1.000  N
  N75      1.0000 0.30040  0.24490  0.26800  Biso   1.000  N
  N76      1.0000 0.23680  0.32270  0.06000  Biso   1.000  N
  N77      1.0000 0.14760  0.29050  0.96970  Biso   1.000  N
  N78      1.0000 0.15230  0.23450  0.05660  Biso   1.000  N
  N79      1.0000 0.77920  0.81240  0.42010  Biso   1.000  N
  N80      1.0000 0.41270  0.15470  0.40480  Biso   1.000  N
  N81      1.0000 0.77510  0.03020  0.76950  Biso   1.000  N
  N82      1.0000 0.62490  0.98650  0.47050  Biso   1.000  N
  N83      1.0000 0.71070  0.95100  0.56250  Biso   1.000  N
  N84      1.0000 0.62230  0.03770  0.55610  Biso   1.000  N
  Ag15     1.0000 0.84423  0.04412  0.86631  Biso   1.000  Ag
  Ag16     1.0000 0.82111  0.74227  0.36597  Biso   1.000  Ag
  C253     1.0000 0.09760  0.52820  0.49860  Biso   1.000  C
  C254     1.0000 0.53240  0.69090  0.90820  Biso   1.000  C
  H169     1.0000 0.55370  0.71220  0.88670  Biso   1.000  H
  C255     1.0000 0.27620  0.36130  0.50700  Biso   1.000  C
  H170     1.0000 0.29690  0.36530  0.54720  Biso   1.000  H
  C256     1.0000 0.55970  0.70050  0.96710  Biso   1.000  C
  C257     1.0000 0.79730  0.91670  0.00290  Biso   1.000  C
  H171     1.0000 0.81940  0.91270  0.04300  Biso   1.000  H
  C258     1.0000 0.62280  0.74440  0.99930  Biso   1.000  C
  C259     1.0000 0.00350  0.61430  0.49390  Biso   1.000  C
  H172     1.0000 0.02320  0.61590  0.53410  Biso   1.000  H
  C260     1.0000 0.03260  0.57210  0.46440  Biso   1.000  C
  C261     1.0000 0.18150  0.44760  0.50440  Biso   1.000  C
  C262     1.0000 0.70930  0.77490  0.08510  Biso   1.000  C
  C263     1.0000 0.21370  0.39830  0.47500  Biso   1.000  C
  C264     1.0000 0.21960  0.34750  0.38980  Biso   1.000  C
  H173     1.0000 0.20030  0.34360  0.34970  Biso   1.000  H
  C265     1.0000 0.94350  0.65500  0.46200  Biso   1.000  C
  H174     1.0000 0.92410  0.68390  0.48220  Biso   1.000  H
  C266     1.0000 0.21170  0.50830  0.65000  Biso   1.000  C
  C267     1.0000 0.73480  0.87920  0.97200  Biso   1.000  C
  C268     1.0000 0.73570  0.93550  0.88670  Biso   1.000  C
  H175     1.0000 0.71470  0.94140  0.84670  Biso   1.000  H
  C269     1.0000 0.74260  0.76370  0.14880  Biso   1.000  C
  C270     1.0000 0.17870  0.54460  0.67920  Biso   1.000  C
  H176     1.0000 0.13490  0.56290  0.65890  Biso   1.000  H
  C271     1.0000 0.52490  0.66580  0.99660  Biso   1.000  C
  H177     1.0000 0.54190  0.66920  0.03670  Biso   1.000  H
  C272     1.0000 0.30630  0.31880  0.47760  Biso   1.000  C
  H178     1.0000 0.34720  0.29370  0.49890  Biso   1.000  H
  C273     1.0000 0.17940  0.49750  0.58480  Biso   1.000  C
  C274     1.0000 0.70410  0.89070  0.91330  Biso   1.000  C
  H179     1.0000 0.66200  0.86850  0.89140  Biso   1.000  H
  C275     1.0000 0.70470  0.82880  0.00200  Biso   1.000  C
  C276     1.0000 0.18550  0.38950  0.41620  Biso   1.000  C
  H180     1.0000 0.14360  0.41160  0.39390  Biso   1.000  H
  C277     1.0000 0.82490  0.95910  0.97250  Biso   1.000  C
  H181     1.0000 0.86720  0.98130  0.99290  Biso   1.000  H
  C278     1.0000 0.00110  0.57140  0.40450  Biso   1.000  C
  H182     1.0000 0.01890  0.54210  0.38330  Biso   1.000  H
  C279     1.0000 0.47250  0.64900  0.88090  Biso   1.000  C
  H183     1.0000 0.45490  0.64170  0.84100  Biso   1.000  H
  C280     1.0000 0.30590  0.49540  0.74030  Biso   1.000  C
  H184     1.0000 0.34950  0.47690  0.76140  Biso   1.000  H
  C281     1.0000 0.71350  0.71400  0.17560  Biso   1.000  C
  H185     1.0000 0.67380  0.68690  0.15410  Biso   1.000  H
  C282     1.0000 0.46680  0.62770  0.96600  Biso   1.000  C
  H186     1.0000 0.44430  0.60550  0.98630  Biso   1.000  H
  C283     1.0000 0.21070  0.55370  0.73790  Biso   1.000  C
  H187     1.0000 0.18730  0.57710  0.75690  Biso   1.000  H
  C284     1.0000 0.74520  0.70630  0.23460  Biso   1.000  C
  H188     1.0000 0.72660  0.67160  0.25220  Biso   1.000  H
  C285     1.0000 0.94310  0.61460  0.37700  Biso   1.000  C
  H189     1.0000 0.92380  0.61620  0.33670  Biso   1.000  H
  C286     1.0000 0.27740  0.48480  0.68080  Biso   1.000  C
  H190     1.0000 0.30200  0.46260  0.66230  Biso   1.000  H
  C287     1.0000 0.80200  0.80020  0.18200  Biso   1.000  C
  H191     1.0000 0.82450  0.83120  0.16540  Biso   1.000  H
  C288     1.0000 0.82780  0.78920  0.24180  Biso   1.000  C
  H192     1.0000 0.86760  0.81550  0.26470  Biso   1.000  H
  N85      1.0000 0.79510  0.97050  0.91580  Biso   1.000  N
  N86      1.0000 0.43940  0.61930  0.90940  Biso   1.000  N
  N87      1.0000 0.80040  0.74490  0.26800  Biso   1.000  N
  N88      1.0000 0.73680  0.82270  0.06000  Biso   1.000  N
  N89      1.0000 0.64760  0.79050  0.96970  Biso   1.000  N
  N90      1.0000 0.65230  0.73450  0.05660  Biso   1.000  N
  N91      1.0000 0.27920  0.31240  0.42010  Biso   1.000  N
  N92      1.0000 0.91270  0.65470  0.40480  Biso   1.000  N
  N93      1.0000 0.27510  0.53020  0.76950  Biso   1.000  N
  N94      1.0000 0.12490  0.48650  0.47050  Biso   1.000  N
  N95      1.0000 0.21070  0.45100  0.56250  Biso   1.000  N
  N96      1.0000 0.12230  0.53770  0.55610  Biso   1.000  N
