data_image0
_cell_length_a       22.1162
_cell_length_b       16.2831
_cell_length_c       25.6433
_cell_angle_alpha    90
_cell_angle_beta     115.366
_cell_angle_gamma    90

_symmetry_space_group_name_H-M    "P 1"
_symmetry_int_tables_number       1

loop_
  _symmetry_equiv_pos_as_xyz
  'x, y, z'

loop_
  _atom_site_label
  _atom_site_occupancy
  _atom_site_fract_x
  _atom_site_fract_y
  _atom_site_fract_z
  _atom_site_thermal_displace_type
  _atom_site_B_iso_or_equiv
  _atom_site_type_symbol
  Ag1      1.0000 0.34378  0.04313  0.36771  Biso   1.000  Ag
  Ag2      1.0000 0.82279  0.24829  0.86718  Biso   1.000  Ag
  N1       1.0000 0.12260  0.03760  0.05920  Biso   1.000  N
  N2       1.0000 0.28000  0.81330  0.92140  Biso   1.000  N
  N3       1.0000 0.43890  0.11570  0.41220  Biso   1.000  N
  N4       1.0000 0.73840  0.32260  0.56310  Biso   1.000  N
  N5       1.0000 0.91280  0.15820  0.90740  Biso   1.000  N
  C1       1.0000 0.73540  0.43470  0.38810  Biso   1.000  C
  H1       1.0000 0.71390  0.44050  0.34820  Biso   1.000  H
  C2       1.0000 0.21940  0.84860  0.89210  Biso   1.000  C
  H2       1.0000 0.19930  0.84440  0.85210  Biso   1.000  H
  N6       1.0000 0.21120  0.95070  0.06480  Biso   1.000  N
  C3       1.0000 0.53310  0.18720  0.41100  Biso   1.000  C
  H3       1.0000 0.55520  0.20710  0.38990  Biso   1.000  H
  N7       1.0000 0.79590  0.46970  0.41680  Biso   1.000  N
  N8       1.0000 0.64790  0.28970  0.47260  Biso   1.000  N
  N9       1.0000 0.80000  0.24710  0.77140  Biso   1.000  N
  C4       1.0000 0.62390  0.24310  0.50250  Biso   1.000  C
  C5       1.0000 0.09760  0.02980  0.00130  Biso   1.000  C
  C6       1.0000 0.27780  0.86180  0.00920  Biso   1.000  C
  H4       1.0000 0.29870  0.86540  0.04930  Biso   1.000  H
  N10      1.0000 0.12630  0.98890  0.97330  Biso   1.000  N
  C7       1.0000 0.79830  0.41630  0.50500  Biso   1.000  C
  H5       1.0000 0.82050  0.41230  0.54490  Biso   1.000  H
  N11      1.0000 0.27600  0.02910  0.27180  Biso   1.000  N
  C8       1.0000 0.55960  0.19840  0.47020  Biso   1.000  C
  C9       1.0000 0.00310  0.11600  0.99640  Biso   1.000  C
  H6       1.0000 0.02260  0.11710  0.03650  Biso   1.000  H
  C10      1.0000 0.94310  0.11670  0.87960  Biso   1.000  C
  H7       1.0000 0.92330  0.11770  0.83940  Biso   1.000  H
  C11      1.0000 0.70950  0.27360  0.58770  Biso   1.000  C
  C12      1.0000 0.52530  0.16510  0.50020  Biso   1.000  C
  H8       1.0000 0.54240  0.17000  0.54010  Biso   1.000  H
  N12      1.0000 0.65300  0.23170  0.55960  Biso   1.000  N
  C13      1.0000 0.30770  0.99550  0.24300  Biso   1.000  C
  H9       1.0000 0.35200  0.97930  0.26370  Biso   1.000  H
  C14      1.0000 0.74290  0.26300  0.65140  Biso   1.000  C
  C15      1.0000 0.17870  0.04410  0.18140  Biso   1.000  C
  H10      1.0000 0.13460  0.06160  0.16130  Biso   1.000  H
  C16      1.0000 0.94300  0.15690  0.96490  Biso   1.000  C
  H11      1.0000 0.92290  0.18460  0.98500  Biso   1.000  H
  C17      1.0000 0.47320  0.14590  0.38410  Biso   1.000  C
  H12      1.0000 0.45550  0.13860  0.34440  Biso   1.000  H
  C18      1.0000 0.21250  0.00820  0.15210  Biso   1.000  C
  C19      1.0000 0.82640  0.45980  0.47400  Biso   1.000  C
  H13      1.0000 0.86850  0.48300  0.49420  Biso   1.000  H
  C20      1.0000 0.00170  0.07320  0.90710  Biso   1.000  C
  H14      1.0000 0.01990  0.04400  0.88600  Biso   1.000  H
  C21      1.0000 0.82840  0.29270  0.74510  Biso   1.000  C
  H15      1.0000 0.86830  0.31920  0.76790  Biso   1.000  H
  C22      1.0000 0.03310  0.07390  0.96710  Biso   1.000  C
  C23      1.0000 0.21530  0.89840  0.97760  Biso   1.000  C
  C24      1.0000 0.18580  0.89080  0.91850  Biso   1.000  C
  H16      1.0000 0.14390  0.91370  0.89660  Biso   1.000  H
  C25      1.0000 0.70400  0.39040  0.41560  Biso   1.000  C
  H17      1.0000 0.66160  0.36860  0.39430  Biso   1.000  H
  C26      1.0000 0.70610  0.32780  0.50530  Biso   1.000  C
  C27      1.0000 0.21160  0.05350  0.24090  Biso   1.000  C
  H18      1.0000 0.18880  0.07730  0.26030  Biso   1.000  H
  C28      1.0000 0.18010  0.99720  0.08820  Biso   1.000  C
  C29      1.0000 0.18250  0.94800  0.00710  Biso   1.000  C
  C30      1.0000 0.73560  0.37850  0.47450  Biso   1.000  C
  C31      1.0000 0.30800  0.81990  0.97910  Biso   1.000  C
  H19      1.0000 0.34940  0.79550  0.00000  Biso   1.000  H
  C32      1.0000 0.80190  0.30350  0.68530  Biso   1.000  C
  H20      1.0000 0.82320  0.33670  0.66880  Biso   1.000  H
  C33      1.0000 0.46630  0.12530  0.46970  Biso   1.000  C
  H21      1.0000 0.44370  0.10360  0.49000  Biso   1.000  H
  C34      1.0000 0.71480  0.21130  0.67790  Biso   1.000  C
  H22      1.0000 0.67650  0.18110  0.65610  Biso   1.000  H
  C35      1.0000 0.74460  0.20530  0.73740  Biso   1.000  C
  H23      1.0000 0.72540  0.17060  0.75490  Biso   1.000  H
  C36      1.0000 0.27800  0.98350  0.18350  Biso   1.000  C
  H24      1.0000 0.30190  0.95930  0.16520  Biso   1.000  H
  Ag3      1.0000 0.84378  0.54313  0.36771  Biso   1.000  Ag
  Ag4      1.0000 0.32279  0.74829  0.86718  Biso   1.000  Ag
  N13      1.0000 0.62260  0.53760  0.05920  Biso   1.000  N
  N14      1.0000 0.78000  0.31330  0.92140  Biso   1.000  N
  N15      1.0000 0.93890  0.61570  0.41220  Biso   1.000  N
  N16      1.0000 0.23840  0.82260  0.56310  Biso   1.000  N
  N17      1.0000 0.41280  0.65820  0.90740  Biso   1.000  N
  C37      1.0000 0.23540  0.93470  0.38810  Biso   1.000  C
  H25      1.0000 0.21390  0.94050  0.34820  Biso   1.000  H
  C38      1.0000 0.71940  0.34860  0.89210  Biso   1.000  C
  H26      1.0000 0.69930  0.34440  0.85210  Biso   1.000  H
  N18      1.0000 0.71120  0.45070  0.06480  Biso   1.000  N
  C39      1.0000 0.03310  0.68720  0.41100  Biso   1.000  C
  H27      1.0000 0.05520  0.70710  0.38990  Biso   1.000  H
  N19      1.0000 0.29590  0.96970  0.41680  Biso   1.000  N
  N20      1.0000 0.14790  0.78970  0.47260  Biso   1.000  N
  N21      1.0000 0.30000  0.74710  0.77140  Biso   1.000  N
  C40      1.0000 0.12390  0.74310  0.50250  Biso   1.000  C
  C41      1.0000 0.59760  0.52980  0.00130  Biso   1.000  C
  C42      1.0000 0.77780  0.36180  0.00920  Biso   1.000  C
  H28      1.0000 0.79870  0.36540  0.04930  Biso   1.000  H
  N22      1.0000 0.62630  0.48890  0.97330  Biso   1.000  N
  C43      1.0000 0.29830  0.91630  0.50500  Biso   1.000  C
  H29      1.0000 0.32050  0.91230  0.54490  Biso   1.000  H
  N23      1.0000 0.77600  0.52910  0.27180  Biso   1.000  N
  C44      1.0000 0.05960  0.69840  0.47020  Biso   1.000  C
  C45      1.0000 0.50310  0.61600  0.99640  Biso   1.000  C
  H30      1.0000 0.52260  0.61710  0.03650  Biso   1.000  H
  C46      1.0000 0.44310  0.61670  0.87960  Biso   1.000  C
  H31      1.0000 0.42330  0.61770  0.83940  Biso   1.000  H
  C47      1.0000 0.20950  0.77360  0.58770  Biso   1.000  C
  C48      1.0000 0.02530  0.66510  0.50020  Biso   1.000  C
  H32      1.0000 0.04240  0.67000  0.54010  Biso   1.000  H
  N24      1.0000 0.15300  0.73170  0.55960  Biso   1.000  N
  C49      1.0000 0.80770  0.49550  0.24300  Biso   1.000  C
  H33      1.0000 0.85200  0.47930  0.26370  Biso   1.000  H
  C50      1.0000 0.24290  0.76300  0.65140  Biso   1.000  C
  C51      1.0000 0.67870  0.54410  0.18140  Biso   1.000  C
  H34      1.0000 0.63460  0.56160  0.16130  Biso   1.000  H
  C52      1.0000 0.44300  0.65690  0.96490  Biso   1.000  C
  H35      1.0000 0.42290  0.68460  0.98500  Biso   1.000  H
  C53      1.0000 0.97320  0.64590  0.38410  Biso   1.000  C
  H36      1.0000 0.95550  0.63860  0.34440  Biso   1.000  H
  C54      1.0000 0.71250  0.50820  0.15210  Biso   1.000  C
  C55      1.0000 0.32640  0.95980  0.47400  Biso   1.000  C
  H37      1.0000 0.36850  0.98300  0.49420  Biso   1.000  H
  C56      1.0000 0.50170  0.57320  0.90710  Biso   1.000  C
  H38      1.0000 0.51990  0.54400  0.88600  Biso   1.000  H
  C57      1.0000 0.32840  0.79270  0.74510  Biso   1.000  C
  H39      1.0000 0.36830  0.81920  0.76790  Biso   1.000  H
  C58      1.0000 0.53310  0.57390  0.96710  Biso   1.000  C
  C59      1.0000 0.71530  0.39840  0.97760  Biso   1.000  C
  C60      1.0000 0.68580  0.39080  0.91850  Biso   1.000  C
  H40      1.0000 0.64390  0.41370  0.89660  Biso   1.000  H
  C61      1.0000 0.20400  0.89040  0.41560  Biso   1.000  C
  H41      1.0000 0.16160  0.86860  0.39430  Biso   1.000  H
  C62      1.0000 0.20610  0.82780  0.50530  Biso   1.000  C
  C63      1.0000 0.71160  0.55350  0.24090  Biso   1.000  C
  H42      1.0000 0.68880  0.57730  0.26030  Biso   1.000  H
  C64      1.0000 0.68010  0.49720  0.08820  Biso   1.000  C
  C65      1.0000 0.68250  0.44800  0.00710  Biso   1.000  C
  C66      1.0000 0.23560  0.87850  0.47450  Biso   1.000  C
  C67      1.0000 0.80800  0.31990  0.97910  Biso   1.000  C
  H43      1.0000 0.84940  0.29550  0.00000  Biso   1.000  H
  C68      1.0000 0.30190  0.80350  0.68530  Biso   1.000  C
  H44      1.0000 0.32320  0.83670  0.66880  Biso   1.000  H
  C69      1.0000 0.96630  0.62530  0.46970  Biso   1.000  C
  H45      1.0000 0.94370  0.60360  0.49000  Biso   1.000  H
  C70      1.0000 0.21480  0.71130  0.67790  Biso   1.000  C
  H46      1.0000 0.17650  0.68110  0.65610  Biso   1.000  H
  C71      1.0000 0.24460  0.70530  0.73740  Biso   1.000  C
  H47      1.0000 0.22540  0.67060  0.75490  Biso   1.000  H
  C72      1.0000 0.77800  0.48350  0.18350  Biso   1.000  C
  H48      1.0000 0.80190  0.45930  0.16520  Biso   1.000  H
  Ag5      1.0000 0.65622  0.04313  0.13229  Biso   1.000  Ag
  Ag6      1.0000 0.17721  0.24829  0.63282  Biso   1.000  Ag
  N25      1.0000 0.87740  0.03760  0.44080  Biso   1.000  N
  N26      1.0000 0.72000  0.81330  0.57860  Biso   1.000  N
  N27      1.0000 0.56110  0.11570  0.08780  Biso   1.000  N
  N28      1.0000 0.26160  0.32260  0.93690  Biso   1.000  N
  N29      1.0000 0.08720  0.15820  0.59260  Biso   1.000  N
  C73      1.0000 0.26460  0.43470  0.11190  Biso   1.000  C
  H49      1.0000 0.28610  0.44050  0.15180  Biso   1.000  H
  C74      1.0000 0.78060  0.84860  0.60790  Biso   1.000  C
  H50      1.0000 0.80070  0.84440  0.64790  Biso   1.000  H
  N30      1.0000 0.78880  0.95070  0.43520  Biso   1.000  N
  C75      1.0000 0.46690  0.18720  0.08900  Biso   1.000  C
  H51      1.0000 0.44480  0.20710  0.11010  Biso   1.000  H
  N31      1.0000 0.20410  0.46970  0.08320  Biso   1.000  N
  N32      1.0000 0.35210  0.28970  0.02740  Biso   1.000  N
  N33      1.0000 0.20000  0.24710  0.72860  Biso   1.000  N
  C76      1.0000 0.37610  0.24310  0.99750  Biso   1.000  C
  C77      1.0000 0.90240  0.02980  0.49870  Biso   1.000  C
  C78      1.0000 0.72220  0.86180  0.49080  Biso   1.000  C
  H52      1.0000 0.70130  0.86540  0.45070  Biso   1.000  H
  N34      1.0000 0.87370  0.98890  0.52670  Biso   1.000  N
  C79      1.0000 0.20170  0.41630  0.99500  Biso   1.000  C
  H53      1.0000 0.17950  0.41230  0.95510  Biso   1.000  H
  N35      1.0000 0.72400  0.02910  0.22820  Biso   1.000  N
  C80      1.0000 0.44040  0.19840  0.02980  Biso   1.000  C
  C81      1.0000 0.99690  0.11600  0.50360  Biso   1.000  C
  H54      1.0000 0.97740  0.11710  0.46350  Biso   1.000  H
  C82      1.0000 0.05690  0.11670  0.62040  Biso   1.000  C
  H55      1.0000 0.07670  0.11770  0.66060  Biso   1.000  H
  C83      1.0000 0.29050  0.27360  0.91230  Biso   1.000  C
  C84      1.0000 0.47470  0.16510  0.99980  Biso   1.000  C
  H56      1.0000 0.45760  0.17000  0.95990  Biso   1.000  H
  N36      1.0000 0.34700  0.23170  0.94040  Biso   1.000  N
  C85      1.0000 0.69230  0.99550  0.25700  Biso   1.000  C
  H57      1.0000 0.64800  0.97930  0.23630  Biso   1.000  H
  C86      1.0000 0.25710  0.26300  0.84860  Biso   1.000  C
  C87      1.0000 0.82130  0.04410  0.31860  Biso   1.000  C
  H58      1.0000 0.86540  0.06160  0.33870  Biso   1.000  H
  C88      1.0000 0.05700  0.15690  0.53510  Biso   1.000  C
  H59      1.0000 0.07710  0.18460  0.51500  Biso   1.000  H
  C89      1.0000 0.52680  0.14590  0.11590  Biso   1.000  C
  H60      1.0000 0.54450  0.13860  0.15560  Biso   1.000  H
  C90      1.0000 0.78750  0.00820  0.34790  Biso   1.000  C
  C91      1.0000 0.17360  0.45980  0.02600  Biso   1.000  C
  H61      1.0000 0.13150  0.48300  0.00580  Biso   1.000  H
  C92      1.0000 0.99830  0.07320  0.59290  Biso   1.000  C
  H62      1.0000 0.98010  0.04400  0.61400  Biso   1.000  H
  C93      1.0000 0.17160  0.29270  0.75490  Biso   1.000  C
  H63      1.0000 0.13170  0.31920  0.73210  Biso   1.000  H
  C94      1.0000 0.96690  0.07390  0.53290  Biso   1.000  C
  C95      1.0000 0.78470  0.89840  0.52240  Biso   1.000  C
  C96      1.0000 0.81420  0.89080  0.58150  Biso   1.000  C
  H64      1.0000 0.85610  0.91370  0.60340  Biso   1.000  H
  C97      1.0000 0.29600  0.39040  0.08440  Biso   1.000  C
  H65      1.0000 0.33840  0.36860  0.10570  Biso   1.000  H
  C98      1.0000 0.29390  0.32780  0.99470  Biso   1.000  C
  C99      1.0000 0.78840  0.05350  0.25910  Biso   1.000  C
  H66      1.0000 0.81120  0.07730  0.23970  Biso   1.000  H
  C100     1.0000 0.81990  0.99720  0.41180  Biso   1.000  C
  C101     1.0000 0.81750  0.94800  0.49290  Biso   1.000  C
  C102     1.0000 0.26440  0.37850  0.02550  Biso   1.000  C
  C103     1.0000 0.69200  0.81990  0.52090  Biso   1.000  C
  H67      1.0000 0.65060  0.79550  0.50000  Biso   1.000  H
  C104     1.0000 0.19810  0.30350  0.81470  Biso   1.000  C
  H68      1.0000 0.17680  0.33670  0.83120  Biso   1.000  H
  C105     1.0000 0.53370  0.12530  0.03030  Biso   1.000  C
  H69      1.0000 0.55630  0.10360  0.01000  Biso   1.000  H
  C106     1.0000 0.28520  0.21130  0.82210  Biso   1.000  C
  H70      1.0000 0.32350  0.18110  0.84390  Biso   1.000  H
  C107     1.0000 0.25540  0.20530  0.76260  Biso   1.000  C
  H71      1.0000 0.27460  0.17060  0.74510  Biso   1.000  H
  C108     1.0000 0.72200  0.98350  0.31650  Biso   1.000  C
  H72      1.0000 0.69810  0.95930  0.33480  Biso   1.000  H
  Ag7      1.0000 0.15622  0.54313  0.13229  Biso   1.000  Ag
  Ag8      1.0000 0.67721  0.74829  0.63282  Biso   1.000  Ag
  N37      1.0000 0.37740  0.53760  0.44080  Biso   1.000  N
  N38      1.0000 0.22000  0.31330  0.57860  Biso   1.000  N
  N39      1.0000 0.06110  0.61570  0.08780  Biso   1.000  N
  N40      1.0000 0.76160  0.82260  0.93690  Biso   1.000  N
  N41      1.0000 0.58720  0.65820  0.59260  Biso   1.000  N
  C109     1.0000 0.76460  0.93470  0.11190  Biso   1.000  C
  H73      1.0000 0.78610  0.94050  0.15180  Biso   1.000  H
  C110     1.0000 0.28060  0.34860  0.60790  Biso   1.000  C
  H74      1.0000 0.30070  0.34440  0.64790  Biso   1.000  H
  N42      1.0000 0.28880  0.45070  0.43520  Biso   1.000  N
  C111     1.0000 0.96690  0.68720  0.08900  Biso   1.000  C
  H75      1.0000 0.94480  0.70710  0.11010  Biso   1.000  H
  N43      1.0000 0.70410  0.96970  0.08320  Biso   1.000  N
  N44      1.0000 0.85210  0.78970  0.02740  Biso   1.000  N
  N45      1.0000 0.70000  0.74710  0.72860  Biso   1.000  N
  C112     1.0000 0.87610  0.74310  0.99750  Biso   1.000  C
  C113     1.0000 0.40240  0.52980  0.49870  Biso   1.000  C
  C114     1.0000 0.22220  0.36180  0.49080  Biso   1.000  C
  H76      1.0000 0.20130  0.36540  0.45070  Biso   1.000  H
  N46      1.0000 0.37370  0.48890  0.52670  Biso   1.000  N
  C115     1.0000 0.70170  0.91630  0.99500  Biso   1.000  C
  H77      1.0000 0.67950  0.91230  0.95510  Biso   1.000  H
  N47      1.0000 0.22400  0.52910  0.22820  Biso   1.000  N
  C116     1.0000 0.94040  0.69840  0.02980  Biso   1.000  C
  C117     1.0000 0.49690  0.61600  0.50360  Biso   1.000  C
  H78      1.0000 0.47740  0.61710  0.46350  Biso   1.000  H
  C118     1.0000 0.55690  0.61670  0.62040  Biso   1.000  C
  H79      1.0000 0.57670  0.61770  0.66060  Biso   1.000  H
  C119     1.0000 0.79050  0.77360  0.91230  Biso   1.000  C
  C120     1.0000 0.97470  0.66510  0.99980  Biso   1.000  C
  H80      1.0000 0.95760  0.67000  0.95990  Biso   1.000  H
  N48      1.0000 0.84700  0.73170  0.94040  Biso   1.000  N
  C121     1.0000 0.19230  0.49550  0.25700  Biso   1.000  C
  H81      1.0000 0.14800  0.47930  0.23630  Biso   1.000  H
  C122     1.0000 0.75710  0.76300  0.84860  Biso   1.000  C
  C123     1.0000 0.32130  0.54410  0.31860  Biso   1.000  C
  H82      1.0000 0.36540  0.56160  0.33870  Biso   1.000  H
  C124     1.0000 0.55700  0.65690  0.53510  Biso   1.000  C
  H83      1.0000 0.57710  0.68460  0.51500  Biso   1.000  H
  C125     1.0000 0.02680  0.64590  0.11590  Biso   1.000  C
  H84      1.0000 0.04450  0.63860  0.15560  Biso   1.000  H
  C126     1.0000 0.28750  0.50820  0.34790  Biso   1.000  C
  C127     1.0000 0.67360  0.95980  0.02600  Biso   1.000  C
  H85      1.0000 0.63150  0.98300  0.00580  Biso   1.000  H
  C128     1.0000 0.49830  0.57320  0.59290  Biso   1.000  C
  H86      1.0000 0.48010  0.54400  0.61400  Biso   1.000  H
  C129     1.0000 0.67160  0.79270  0.75490  Biso   1.000  C
  H87      1.0000 0.63170  0.81920  0.73210  Biso   1.000  H
  C130     1.0000 0.46690  0.57390  0.53290  Biso   1.000  C
  C131     1.0000 0.28470  0.39840  0.52240  Biso   1.000  C
  C132     1.0000 0.31420  0.39080  0.58150  Biso   1.000  C
  H88      1.0000 0.35610  0.41370  0.60340  Biso   1.000  H
  C133     1.0000 0.79600  0.89040  0.08440  Biso   1.000  C
  H89      1.0000 0.83840  0.86860  0.10570  Biso   1.000  H
  C134     1.0000 0.79390  0.82780  0.99470  Biso   1.000  C
  C135     1.0000 0.28840  0.55350  0.25910  Biso   1.000  C
  H90      1.0000 0.31120  0.57730  0.23970  Biso   1.000  H
  C136     1.0000 0.31990  0.49720  0.41180  Biso   1.000  C
  C137     1.0000 0.31750  0.44800  0.49290  Biso   1.000  C
  C138     1.0000 0.76440  0.87850  0.02550  Biso   1.000  C
  C139     1.0000 0.19200  0.31990  0.52090  Biso   1.000  C
  H91      1.0000 0.15060  0.29550  0.50000  Biso   1.000  H
  C140     1.0000 0.69810  0.80350  0.81470  Biso   1.000  C
  H92      1.0000 0.67680  0.83670  0.83120  Biso   1.000  H
  C141     1.0000 0.03370  0.62530  0.03030  Biso   1.000  C
  H93      1.0000 0.05630  0.60360  0.01000  Biso   1.000  H
  C142     1.0000 0.78520  0.71130  0.82210  Biso   1.000  C
  H94      1.0000 0.82350  0.68110  0.84390  Biso   1.000  H
  C143     1.0000 0.75540  0.70530  0.76260  Biso   1.000  C
  H95      1.0000 0.77460  0.67060  0.74510  Biso   1.000  H
  C144     1.0000 0.22200  0.48350  0.31650  Biso   1.000  C
  H96      1.0000 0.19810  0.45930  0.33480  Biso   1.000  H
  Ag9      1.0000 0.65622  0.95687  0.63229  Biso   1.000  Ag
  Ag10     1.0000 0.17721  0.75171  0.13282  Biso   1.000  Ag
  N49      1.0000 0.87740  0.96240  0.94080  Biso   1.000  N
  N50      1.0000 0.72000  0.18670  0.07860  Biso   1.000  N
  N51      1.0000 0.56110  0.88430  0.58780  Biso   1.000  N
  N52      1.0000 0.26160  0.67740  0.43690  Biso   1.000  N
  N53      1.0000 0.08720  0.84180  0.09260  Biso   1.000  N
  C145     1.0000 0.26460  0.56530  0.61190  Biso   1.000  C
  H97      1.0000 0.28610  0.55950  0.65180  Biso   1.000  H
  C146     1.0000 0.78060  0.15140  0.10790  Biso   1.000  C
  H98      1.0000 0.80070  0.15560  0.14790  Biso   1.000  H
  N54      1.0000 0.78880  0.04930  0.93520  Biso   1.000  N
  C147     1.0000 0.46690  0.81280  0.58900  Biso   1.000  C
  H99      1.0000 0.44480  0.79290  0.61010  Biso   1.000  H
  N55      1.0000 0.20410  0.53030  0.58320  Biso   1.000  N
  N56      1.0000 0.35210  0.71030  0.52740  Biso   1.000  N
  N57      1.0000 0.20000  0.75290  0.22860  Biso   1.000  N
  C148     1.0000 0.37610  0.75690  0.49750  Biso   1.000  C
  C149     1.0000 0.90240  0.97020  0.99870  Biso   1.000  C
  C150     1.0000 0.72220  0.13820  0.99080  Biso   1.000  C
  H100     1.0000 0.70130  0.13460  0.95070  Biso   1.000  H
  N58      1.0000 0.87370  0.01110  0.02670  Biso   1.000  N
  C151     1.0000 0.20170  0.58370  0.49500  Biso   1.000  C
  H101     1.0000 0.17950  0.58770  0.45510  Biso   1.000  H
  N59      1.0000 0.72400  0.97090  0.72820  Biso   1.000  N
  C152     1.0000 0.44040  0.80160  0.52980  Biso   1.000  C
  C153     1.0000 0.99690  0.88400  0.00360  Biso   1.000  C
  H102     1.0000 0.97740  0.88290  0.96350  Biso   1.000  H
  C154     1.0000 0.05690  0.88330  0.12040  Biso   1.000  C
  H103     1.0000 0.07670  0.88230  0.16060  Biso   1.000  H
  C155     1.0000 0.29050  0.72640  0.41230  Biso   1.000  C
  C156     1.0000 0.47470  0.83490  0.49980  Biso   1.000  C
  H104     1.0000 0.45760  0.83000  0.45990  Biso   1.000  H
  N60      1.0000 0.34700  0.76830  0.44040  Biso   1.000  N
  C157     1.0000 0.69230  0.00450  0.75700  Biso   1.000  C
  H105     1.0000 0.64800  0.02070  0.73630  Biso   1.000  H
  C158     1.0000 0.25710  0.73700  0.34860  Biso   1.000  C
  C159     1.0000 0.82130  0.95590  0.81860  Biso   1.000  C
  H106     1.0000 0.86540  0.93840  0.83870  Biso   1.000  H
  C160     1.0000 0.05700  0.84310  0.03510  Biso   1.000  C
  H107     1.0000 0.07710  0.81540  0.01500  Biso   1.000  H
  C161     1.0000 0.52680  0.85410  0.61590  Biso   1.000  C
  H108     1.0000 0.54450  0.86140  0.65560  Biso   1.000  H
  C162     1.0000 0.78750  0.99180  0.84790  Biso   1.000  C
  C163     1.0000 0.17360  0.54020  0.52600  Biso   1.000  C
  H109     1.0000 0.13150  0.51700  0.50580  Biso   1.000  H
  C164     1.0000 0.99830  0.92680  0.09290  Biso   1.000  C
  H110     1.0000 0.98010  0.95600  0.11400  Biso   1.000  H
  C165     1.0000 0.17160  0.70730  0.25490  Biso   1.000  C
  H111     1.0000 0.13170  0.68080  0.23210  Biso   1.000  H
  C166     1.0000 0.96690  0.92610  0.03290  Biso   1.000  C
  C167     1.0000 0.78470  0.10160  0.02240  Biso   1.000  C
  C168     1.0000 0.81420  0.10920  0.08150  Biso   1.000  C
  H112     1.0000 0.85610  0.08630  0.10340  Biso   1.000  H
  C169     1.0000 0.29600  0.60960  0.58440  Biso   1.000  C
  H113     1.0000 0.33840  0.63140  0.60570  Biso   1.000  H
  C170     1.0000 0.29390  0.67220  0.49470  Biso   1.000  C
  C171     1.0000 0.78840  0.94650  0.75910  Biso   1.000  C
  H114     1.0000 0.81120  0.92270  0.73970  Biso   1.000  H
  C172     1.0000 0.81990  0.00280  0.91180  Biso   1.000  C
  C173     1.0000 0.81750  0.05200  0.99290  Biso   1.000  C
  C174     1.0000 0.26440  0.62150  0.52550  Biso   1.000  C
  C175     1.0000 0.69200  0.18010  0.02090  Biso   1.000  C
  H115     1.0000 0.65060  0.20450  0.00000  Biso   1.000  H
  C176     1.0000 0.19810  0.69650  0.31470  Biso   1.000  C
  H116     1.0000 0.17680  0.66330  0.33120  Biso   1.000  H
  C177     1.0000 0.53370  0.87470  0.53030  Biso   1.000  C
  H117     1.0000 0.55630  0.89640  0.51000  Biso   1.000  H
  C178     1.0000 0.28520  0.78870  0.32210  Biso   1.000  C
  H118     1.0000 0.32350  0.81890  0.34390  Biso   1.000  H
  C179     1.0000 0.25540  0.79470  0.26260  Biso   1.000  C
  H119     1.0000 0.27460  0.82940  0.24510  Biso   1.000  H
  C180     1.0000 0.72200  0.01650  0.81650  Biso   1.000  C
  H120     1.0000 0.69810  0.04070  0.83480  Biso   1.000  H
  Ag11     1.0000 0.15622  0.45687  0.63229  Biso   1.000  Ag
  Ag12     1.0000 0.67721  0.25171  0.13282  Biso   1.000  Ag
  N61      1.0000 0.37740  0.46240  0.94080  Biso   1.000  N
  N62      1.0000 0.22000  0.68670  0.07860  Biso   1.000  N
  N63      1.0000 0.06110  0.38430  0.58780  Biso   1.000  N
  N64      1.0000 0.76160  0.17740  0.43690  Biso   1.000  N
  N65      1.0000 0.58720  0.34180  0.09260  Biso   1.000  N
  C181     1.0000 0.76460  0.06530  0.61190  Biso   1.000  C
  H121     1.0000 0.78610  0.05950  0.65180  Biso   1.000  H
  C182     1.0000 0.28060  0.65140  0.10790  Biso   1.000  C
  H122     1.0000 0.30070  0.65560  0.14790  Biso   1.000  H
  N66      1.0000 0.28880  0.54930  0.93520  Biso   1.000  N
  C183     1.0000 0.96690  0.31280  0.58900  Biso   1.000  C
  H123     1.0000 0.94480  0.29290  0.61010  Biso   1.000  H
  N67      1.0000 0.70410  0.03030  0.58320  Biso   1.000  N
  N68      1.0000 0.85210  0.21030  0.52740  Biso   1.000  N
  N69      1.0000 0.70000  0.25290  0.22860  Biso   1.000  N
  C184     1.0000 0.87610  0.25690  0.49750  Biso   1.000  C
  C185     1.0000 0.40240  0.47020  0.99870  Biso   1.000  C
  C186     1.0000 0.22220  0.63820  0.99080  Biso   1.000  C
  H124     1.0000 0.20130  0.63460  0.95070  Biso   1.000  H
  N70      1.0000 0.37370  0.51110  0.02670  Biso   1.000  N
  C187     1.0000 0.70170  0.08370  0.49500  Biso   1.000  C
  H125     1.0000 0.67950  0.08770  0.45510  Biso   1.000  H
  N71      1.0000 0.22400  0.47090  0.72820  Biso   1.000  N
  C188     1.0000 0.94040  0.30160  0.52980  Biso   1.000  C
  C189     1.0000 0.49690  0.38400  0.00360  Biso   1.000  C
  H126     1.0000 0.47740  0.38290  0.96350  Biso   1.000  H
  C190     1.0000 0.55690  0.38330  0.12040  Biso   1.000  C
  H127     1.0000 0.57670  0.38230  0.16060  Biso   1.000  H
  C191     1.0000 0.79050  0.22640  0.41230  Biso   1.000  C
  C192     1.0000 0.97470  0.33490  0.49980  Biso   1.000  C
  H128     1.0000 0.95760  0.33000  0.45990  Biso   1.000  H
  N72      1.0000 0.84700  0.26830  0.44040  Biso   1.000  N
  C193     1.0000 0.19230  0.50450  0.75700  Biso   1.000  C
  H129     1.0000 0.14800  0.52070  0.73630  Biso   1.000  H
  C194     1.0000 0.75710  0.23700  0.34860  Biso   1.000  C
  C195     1.0000 0.32130  0.45590  0.81860  Biso   1.000  C
  H130     1.0000 0.36540  0.43840  0.83870  Biso   1.000  H
  C196     1.0000 0.55700  0.34310  0.03510  Biso   1.000  C
  H131     1.0000 0.57710  0.31540  0.01500  Biso   1.000  H
  C197     1.0000 0.02680  0.35410  0.61590  Biso   1.000  C
  H132     1.0000 0.04450  0.36140  0.65560  Biso   1.000  H
  C198     1.0000 0.28750  0.49180  0.84790  Biso   1.000  C
  C199     1.0000 0.67360  0.04020  0.52600  Biso   1.000  C
  H133     1.0000 0.63150  0.01700  0.50580  Biso   1.000  H
  C200     1.0000 0.49830  0.42680  0.09290  Biso   1.000  C
  H134     1.0000 0.48010  0.45600  0.11400  Biso   1.000  H
  C201     1.0000 0.67160  0.20730  0.25490  Biso   1.000  C
  H135     1.0000 0.63170  0.18080  0.23210  Biso   1.000  H
  C202     1.0000 0.46690  0.42610  0.03290  Biso   1.000  C
  C203     1.0000 0.28470  0.60160  0.02240  Biso   1.000  C
  C204     1.0000 0.31420  0.60920  0.08150  Biso   1.000  C
  H136     1.0000 0.35610  0.58630  0.10340  Biso   1.000  H
  C205     1.0000 0.79600  0.10960  0.58440  Biso   1.000  C
  H137     1.0000 0.83840  0.13140  0.60570  Biso   1.000  H
  C206     1.0000 0.79390  0.17220  0.49470  Biso   1.000  C
  C207     1.0000 0.28840  0.44650  0.75910  Biso   1.000  C
  H138     1.0000 0.31120  0.42270  0.73970  Biso   1.000  H
  C208     1.0000 0.31990  0.50280  0.91180  Biso   1.000  C
  C209     1.0000 0.31750  0.55200  0.99290  Biso   1.000  C
  C210     1.0000 0.76440  0.12150  0.52550  Biso   1.000  C
  C211     1.0000 0.19200  0.68010  0.02090  Biso   1.000  C
  H139     1.0000 0.15060  0.70450  0.00000  Biso   1.000  H
  C212     1.0000 0.69810  0.19650  0.31470  Biso   1.000  C
  H140     1.0000 0.67680  0.16330  0.33120  Biso   1.000  H
  C213     1.0000 0.03370  0.37470  0.53030  Biso   1.000  C
  H141     1.0000 0.05630  0.39640  0.51000  Biso   1.000  H
  C214     1.0000 0.78520  0.28870  0.32210  Biso   1.000  C
  H142     1.0000 0.82350  0.31890  0.34390  Biso   1.000  H
  C215     1.0000 0.75540  0.29470  0.26260  Biso   1.000  C
  H143     1.0000 0.77460  0.32940  0.24510  Biso   1.000  H
  C216     1.0000 0.22200  0.51650  0.81650  Biso   1.000  C
  H144     1.0000 0.19810  0.54070  0.83480  Biso   1.000  H
  Ag13     1.0000 0.34378  0.95687  0.86771  Biso   1.000  Ag
  Ag14     1.0000 0.82279  0.75171  0.36718  Biso   1.000  Ag
  N73      1.0000 0.12260  0.96240  0.55920  Biso   1.000  N
  N74      1.0000 0.28000  0.18670  0.42140  Biso   1.000  N
  N75      1.0000 0.43890  0.88430  0.91220  Biso   1.000  N
  N76      1.0000 0.73840  0.67740  0.06310  Biso   1.000  N
  N77      1.0000 0.91280  0.84180  0.40740  Biso   1.000  N
  C217     1.0000 0.73540  0.56530  0.88810  Biso   1.000  C
  H145     1.0000 0.71390  0.55950  0.84820  Biso   1.000  H
  C218     1.0000 0.21940  0.15140  0.39210  Biso   1.000  C
  H146     1.0000 0.19930  0.15560  0.35210  Biso   1.000  H
  N78      1.0000 0.21120  0.04930  0.56480  Biso   1.000  N
  C219     1.0000 0.53310  0.81280  0.91100  Biso   1.000  C
  H147     1.0000 0.55520  0.79290  0.88990  Biso   1.000  H
  N79      1.0000 0.79590  0.53030  0.91680  Biso   1.000  N
  N80      1.0000 0.64790  0.71030  0.97260  Biso   1.000  N
  N81      1.0000 0.80000  0.75290  0.27140  Biso   1.000  N
  C220     1.0000 0.62390  0.75690  0.00250  Biso   1.000  C
  C221     1.0000 0.09760  0.97020  0.50130  Biso   1.000  C
  C222     1.0000 0.27780  0.13820  0.50920  Biso   1.000  C
  H148     1.0000 0.29870  0.13460  0.54930  Biso   1.000  H
  N82      1.0000 0.12630  0.01110  0.47330  Biso   1.000  N
  C223     1.0000 0.79830  0.58370  0.00500  Biso   1.000  C
  H149     1.0000 0.82050  0.58770  0.04490  Biso   1.000  H
  N83      1.0000 0.27600  0.97090  0.77180  Biso   1.000  N
  C224     1.0000 0.55960  0.80160  0.97020  Biso   1.000  C
  C225     1.0000 0.00310  0.88400  0.49640  Biso   1.000  C
  H150     1.0000 0.02260  0.88290  0.53650  Biso   1.000  H
  C226     1.0000 0.94310  0.88330  0.37960  Biso   1.000  C
  H151     1.0000 0.92330  0.88230  0.33940  Biso   1.000  H
  C227     1.0000 0.70950  0.72640  0.08770  Biso   1.000  C
  C228     1.0000 0.52530  0.83490  0.00020  Biso   1.000  C
  H152     1.0000 0.54240  0.83000  0.04010  Biso   1.000  H
  N84      1.0000 0.65300  0.76830  0.05960  Biso   1.000  N
  C229     1.0000 0.30770  0.00450  0.74300  Biso   1.000  C
  H153     1.0000 0.35200  0.02070  0.76370  Biso   1.000  H
  C230     1.0000 0.74290  0.73700  0.15140  Biso   1.000  C
  C231     1.0000 0.17870  0.95590  0.68140  Biso   1.000  C
  H154     1.0000 0.13460  0.93840  0.66130  Biso   1.000  H
  C232     1.0000 0.94300  0.84310  0.46490  Biso   1.000  C
  H155     1.0000 0.92290  0.81540  0.48500  Biso   1.000  H
  C233     1.0000 0.47320  0.85410  0.88410  Biso   1.000  C
  H156     1.0000 0.45550  0.86140  0.84440  Biso   1.000  H
  C234     1.0000 0.21250  0.99180  0.65210  Biso   1.000  C
  C235     1.0000 0.82640  0.54020  0.97400  Biso   1.000  C
  H157     1.0000 0.86850  0.51700  0.99420  Biso   1.000  H
  C236     1.0000 0.00170  0.92680  0.40710  Biso   1.000  C
  H158     1.0000 0.01990  0.95600  0.38600  Biso   1.000  H
  C237     1.0000 0.82840  0.70730  0.24510  Biso   1.000  C
  H159     1.0000 0.86830  0.68080  0.26790  Biso   1.000  H
  C238     1.0000 0.03310  0.92610  0.46710  Biso   1.000  C
  C239     1.0000 0.21530  0.10160  0.47760  Biso   1.000  C
  C240     1.0000 0.18580  0.10920  0.41850  Biso   1.000  C
  H160     1.0000 0.14390  0.08630  0.39660  Biso   1.000  H
  C241     1.0000 0.70400  0.60960  0.91560  Biso   1.000  C
  H161     1.0000 0.66160  0.63140  0.89430  Biso   1.000  H
  C242     1.0000 0.70610  0.67220  0.00530  Biso   1.000  C
  C243     1.0000 0.21160  0.94650  0.74090  Biso   1.000  C
  H162     1.0000 0.18880  0.92270  0.76030  Biso   1.000  H
  C244     1.0000 0.18010  0.00280  0.58820  Biso   1.000  C
  C245     1.0000 0.18250  0.05200  0.50710  Biso   1.000  C
  C246     1.0000 0.73560  0.62150  0.97450  Biso   1.000  C
  C247     1.0000 0.30800  0.18010  0.47910  Biso   1.000  C
  H163     1.0000 0.34940  0.20450  0.50000  Biso   1.000  H
  C248     1.0000 0.80190  0.69650  0.18530  Biso   1.000  C
  H164     1.0000 0.82320  0.66330  0.16880  Biso   1.000  H
  C249     1.0000 0.46630  0.87470  0.96970  Biso   1.000  C
  H165     1.0000 0.44370  0.89640  0.99000  Biso   1.000  H
  C250     1.0000 0.71480  0.78870  0.17790  Biso   1.000  C
  H166     1.0000 0.67650  0.81890  0.15610  Biso   1.000  H
  C251     1.0000 0.74460  0.79470  0.23740  Biso   1.000  C
  H167     1.0000 0.72540  0.82940  0.25490  Biso   1.000  H
  C252     1.0000 0.27800  0.01650  0.68350  Biso   1.000  C
  H168     1.0000 0.30190  0.04070  0.66520  Biso   1.000  H
  Ag15     1.0000 0.84378  0.45687  0.86771  Biso   1.000  Ag
  Ag16     1.0000 0.32279  0.25171  0.36718  Biso   1.000  Ag
  N85      1.0000 0.62260  0.46240  0.55920  Biso   1.000  N
  N86      1.0000 0.78000  0.68670  0.42140  Biso   1.000  N
  N87      1.0000 0.93890  0.38430  0.91220  Biso   1.000  N
  N88      1.0000 0.23840  0.17740  0.06310  Biso   1.000  N
  N89      1.0000 0.41280  0.34180  0.40740  Biso   1.000  N
  C253     1.0000 0.23540  0.06530  0.88810  Biso   1.000  C
  H169     1.0000 0.21390  0.05950  0.84820  Biso   1.000  H
  C254     1.0000 0.71940  0.65140  0.39210  Biso   1.000  C
  H170     1.0000 0.69930  0.65560  0.35210  Biso   1.000  H
  N90      1.0000 0.71120  0.54930  0.56480  Biso   1.000  N
  C255     1.0000 0.03310  0.31280  0.91100  Biso   1.000  C
  H171     1.0000 0.05520  0.29290  0.88990  Biso   1.000  H
  N91      1.0000 0.29590  0.03030  0.91680  Biso   1.000  N
  N92      1.0000 0.14790  0.21030  0.97260  Biso   1.000  N
  N93      1.0000 0.30000  0.25290  0.27140  Biso   1.000  N
  C256     1.0000 0.12390  0.25690  0.00250  Biso   1.000  C
  C257     1.0000 0.59760  0.47020  0.50130  Biso   1.000  C
  C258     1.0000 0.77780  0.63820  0.50920  Biso   1.000  C
  H172     1.0000 0.79870  0.63460  0.54930  Biso   1.000  H
  N94      1.0000 0.62630  0.51110  0.47330  Biso   1.000  N
  C259     1.0000 0.29830  0.08370  0.00500  Biso   1.000  C
  H173     1.0000 0.32050  0.08770  0.04490  Biso   1.000  H
  N95      1.0000 0.77600  0.47090  0.77180  Biso   1.000  N
  C260     1.0000 0.05960  0.30160  0.97020  Biso   1.000  C
  C261     1.0000 0.50310  0.38400  0.49640  Biso   1.000  C
  H174     1.0000 0.52260  0.38290  0.53650  Biso   1.000  H
  C262     1.0000 0.44310  0.38330  0.37960  Biso   1.000  C
  H175     1.0000 0.42330  0.38230  0.33940  Biso   1.000  H
  C263     1.0000 0.20950  0.22640  0.08770  Biso   1.000  C
  C264     1.0000 0.02530  0.33490  0.00020  Biso   1.000  C
  H176     1.0000 0.04240  0.33000  0.04010  Biso   1.000  H
  N96      1.0000 0.15300  0.26830  0.05960  Biso   1.000  N
  C265     1.0000 0.80770  0.50450  0.74300  Biso   1.000  C
  H177     1.0000 0.85200  0.52070  0.76370  Biso   1.000  H
  C266     1.0000 0.24290  0.23700  0.15140  Biso   1.000  C
  C267     1.0000 0.67870  0.45590  0.68140  Biso   1.000  C
  H178     1.0000 0.63460  0.43840  0.66130  Biso   1.000  H
  C268     1.0000 0.44300  0.34310  0.46490  Biso   1.000  C
  H179     1.0000 0.42290  0.31540  0.48500  Biso   1.000  H
  C269     1.0000 0.97320  0.35410  0.88410  Biso   1.000  C
  H180     1.0000 0.95550  0.36140  0.84440  Biso   1.000  H
  C270     1.0000 0.71250  0.49180  0.65210  Biso   1.000  C
  C271     1.0000 0.32640  0.04020  0.97400  Biso   1.000  C
  H181     1.0000 0.36850  0.01700  0.99420  Biso   1.000  H
  C272     1.0000 0.50170  0.42680  0.40710  Biso   1.000  C
  H182     1.0000 0.51990  0.45600  0.38600  Biso   1.000  H
  C273     1.0000 0.32840  0.20730  0.24510  Biso   1.000  C
  H183     1.0000 0.36830  0.18080  0.26790  Biso   1.000  H
  C274     1.0000 0.53310  0.42610  0.46710  Biso   1.000  C
  C275     1.0000 0.71530  0.60160  0.47760  Biso   1.000  C
  C276     1.0000 0.68580  0.60920  0.41850  Biso   1.000  C
  H184     1.0000 0.64390  0.58630  0.39660  Biso   1.000  H
  C277     1.0000 0.20400  0.10960  0.91560  Biso   1.000  C
  H185     1.0000 0.16160  0.13140  0.89430  Biso   1.000  H
  C278     1.0000 0.20610  0.17220  0.00530  Biso   1.000  C
  C279     1.0000 0.71160  0.44650  0.74090  Biso   1.000  C
  H186     1.0000 0.68880  0.42270  0.76030  Biso   1.000  H
  C280     1.0000 0.68010  0.50280  0.58820  Biso   1.000  C
  C281     1.0000 0.68250  0.55200  0.50710  Biso   1.000  C
  C282     1.0000 0.23560  0.12150  0.97450  Biso   1.000  C
  C283     1.0000 0.80800  0.68010  0.47910  Biso   1.000  C
  H187     1.0000 0.84940  0.70450  0.50000  Biso   1.000  H
  C284     1.0000 0.30190  0.19650  0.18530  Biso   1.000  C
  H188     1.0000 0.32320  0.16330  0.16880  Biso   1.000  H
  C285     1.0000 0.96630  0.37470  0.96970  Biso   1.000  C
  H189     1.0000 0.94370  0.39640  0.99000  Biso   1.000  H
  C286     1.0000 0.21480  0.28870  0.17790  Biso   1.000  C
  H190     1.0000 0.17650  0.31890  0.15610  Biso   1.000  H
  C287     1.0000 0.24460  0.29470  0.23740  Biso   1.000  C
  H191     1.0000 0.22540  0.32940  0.25490  Biso   1.000  H
  C288     1.0000 0.77800  0.51650  0.68350  Biso   1.000  C
  H192     1.0000 0.80190  0.54070  0.66520  Biso   1.000  H
