data_image0
_cell_length_a       21.9475
_cell_length_b       16.6741
_cell_length_c       25.5226
_cell_angle_alpha    90
_cell_angle_beta     115.119
_cell_angle_gamma    90

_symmetry_space_group_name_H-M    "P 1"
_symmetry_int_tables_number       1

loop_
  _symmetry_equiv_pos_as_xyz
  'x, y, z'

loop_
  _atom_site_label
  _atom_site_occupancy
  _atom_site_fract_x
  _atom_site_fract_y
  _atom_site_fract_z
  _atom_site_thermal_displace_type
  _atom_site_B_iso_or_equiv
  _atom_site_type_symbol
  Ag1      1.0000 0.32170  0.74386  0.86643  Biso   1.000  Ag
  Ag2      1.0000 0.84425  0.54332  0.36689  Biso   1.000  Ag
  C1       1.0000 0.59750  0.52830  0.99890  Biso   1.000  C
  C2       1.0000 0.62340  0.24400  0.50040  Biso   1.000  C
  C3       1.0000 0.55970  0.19870  0.46800  Biso   1.000  C
  C4       1.0000 0.77640  0.36150  0.00810  Biso   1.000  C
  H1       1.0000 0.79690  0.36460  0.04830  Biso   1.000  H
  C5       1.0000 0.50360  0.61500  0.99480  Biso   1.000  C
  H2       1.0000 0.52330  0.61650  0.03500  Biso   1.000  H
  C6       1.0000 0.79750  0.41640  0.50380  Biso   1.000  C
  H3       1.0000 0.81950  0.41230  0.54390  Biso   1.000  H
  C7       1.0000 0.53250  0.19040  0.40940  Biso   1.000  C
  H4       1.0000 0.55350  0.21290  0.38800  Biso   1.000  H
  C8       1.0000 0.68140  0.44780  0.00500  Biso   1.000  C
  C9       1.0000 0.71980  0.34710  0.89050  Biso   1.000  C
  H5       1.0000 0.70040  0.34250  0.85040  Biso   1.000  H
  C10      1.0000 0.44370  0.65510  0.96280  Biso   1.000  C
  H6       1.0000 0.42380  0.68330  0.98290  Biso   1.000  H
  C11      1.0000 0.67900  0.54400  0.17940  Biso   1.000  C
  H7       1.0000 0.63500  0.56180  0.15900  Biso   1.000  H
  C12      1.0000 0.70960  0.27400  0.58580  Biso   1.000  C
  C13      1.0000 0.53300  0.57270  0.96490  Biso   1.000  C
  C14      1.0000 0.74270  0.26370  0.64920  Biso   1.000  C
  C15      1.0000 0.73520  0.37910  0.47300  Biso   1.000  C
  C16      1.0000 0.67990  0.49800  0.08570  Biso   1.000  C
  C17      1.0000 0.71200  0.50760  0.15040  Biso   1.000  C
  C18      1.0000 0.73580  0.43510  0.38720  Biso   1.000  C
  H8       1.0000 0.71480  0.44120  0.34730  Biso   1.000  H
  C19      1.0000 0.70380  0.39050  0.41380  Biso   1.000  C
  H9       1.0000 0.66170  0.36840  0.39200  Biso   1.000  H
  C20      1.0000 0.70460  0.32780  0.50310  Biso   1.000  C
  C21      1.0000 0.71460  0.39900  0.97610  Biso   1.000  C
  C22      1.0000 0.52560  0.16500  0.49780  Biso   1.000  C
  H10      1.0000 0.54280  0.16900  0.53790  Biso   1.000  H
  C23      1.0000 0.82520  0.45900  0.47340  Biso   1.000  C
  H11      1.0000 0.86740  0.48170  0.49380  Biso   1.000  H
  C24      1.0000 0.68560  0.38940  0.91670  Biso   1.000  C
  H12      1.0000 0.64340  0.41110  0.89440  Biso   1.000  H
  C25      1.0000 0.80650  0.31920  0.97790  Biso   1.000  C
  H13      1.0000 0.84760  0.29430  0.99910  Biso   1.000  H
  C26      1.0000 0.80620  0.49490  0.24080  Biso   1.000  C
  H14      1.0000 0.85010  0.47720  0.26180  Biso   1.000  H
  C27      1.0000 0.46690  0.12650  0.46730  Biso   1.000  C
  H15      1.0000 0.44430  0.10450  0.48760  Biso   1.000  H
  C28      1.0000 0.47300  0.14790  0.38200  Biso   1.000  C
  H16      1.0000 0.45590  0.13980  0.34220  Biso   1.000  H
  C29      1.0000 0.71110  0.55390  0.23840  Biso   1.000  C
  H17      1.0000 0.68810  0.57850  0.25740  Biso   1.000  H
  C30      1.0000 0.74560  0.20580  0.73550  Biso   1.000  C
  H18      1.0000 0.72680  0.17100  0.75310  Biso   1.000  H
  C31      1.0000 0.50150  0.57220  0.90530  Biso   1.000  C
  H19      1.0000 0.51910  0.54250  0.88400  Biso   1.000  H
  C32      1.0000 0.44380  0.61630  0.87780  Biso   1.000  C
  H20      1.0000 0.42480  0.61880  0.83760  Biso   1.000  H
  C33      1.0000 0.80200  0.30020  0.68280  Biso   1.000  C
  H21      1.0000 0.82480  0.33080  0.66630  Biso   1.000  H
  C34      1.0000 0.71450  0.21290  0.67650  Biso   1.000  C
  H22      1.0000 0.67530  0.18440  0.65490  Biso   1.000  H
  C35      1.0000 0.77770  0.48400  0.18160  Biso   1.000  C
  H23      1.0000 0.80220  0.46140  0.16320  Biso   1.000  H
  C36      1.0000 0.82770  0.29050  0.74260  Biso   1.000  C
  H24      1.0000 0.86690  0.31820  0.76530  Biso   1.000  H
  N1       1.0000 0.41320  0.65580  0.90550  Biso   1.000  N
  N2       1.0000 0.77930  0.31290  0.92070  Biso   1.000  N
  N3       1.0000 0.77530  0.52900  0.26990  Biso   1.000  N
  N4       1.0000 0.62280  0.53720  0.05710  Biso   1.000  N
  N5       1.0000 0.62520  0.48690  0.97110  Biso   1.000  N
  N6       1.0000 0.71090  0.45020  0.06280  Biso   1.000  N
  N7       1.0000 0.79550  0.46980  0.41660  Biso   1.000  N
  N8       1.0000 0.43960  0.11820  0.41050  Biso   1.000  N
  N9       1.0000 0.80080  0.24550  0.76920  Biso   1.000  N
  N10      1.0000 0.73770  0.32290  0.56100  Biso   1.000  N
  N11      1.0000 0.64760  0.29000  0.47060  Biso   1.000  N
  N12      1.0000 0.65250  0.23370  0.55750  Biso   1.000  N
  Ag3      1.0000 0.82170  0.24386  0.86643  Biso   1.000  Ag
  Ag4      1.0000 0.34425  0.04332  0.36689  Biso   1.000  Ag
  C37      1.0000 0.09750  0.02830  0.99890  Biso   1.000  C
  C38      1.0000 0.12340  0.74400  0.50040  Biso   1.000  C
  C39      1.0000 0.05970  0.69870  0.46800  Biso   1.000  C
  C40      1.0000 0.27640  0.86150  0.00810  Biso   1.000  C
  H25      1.0000 0.29690  0.86460  0.04830  Biso   1.000  H
  C41      1.0000 0.00360  0.11500  0.99480  Biso   1.000  C
  H26      1.0000 0.02330  0.11650  0.03500  Biso   1.000  H
  C42      1.0000 0.29750  0.91640  0.50380  Biso   1.000  C
  H27      1.0000 0.31950  0.91230  0.54390  Biso   1.000  H
  C43      1.0000 0.03250  0.69040  0.40940  Biso   1.000  C
  H28      1.0000 0.05350  0.71290  0.38800  Biso   1.000  H
  C44      1.0000 0.18140  0.94780  0.00500  Biso   1.000  C
  C45      1.0000 0.21980  0.84710  0.89050  Biso   1.000  C
  H29      1.0000 0.20040  0.84250  0.85040  Biso   1.000  H
  C46      1.0000 0.94370  0.15510  0.96280  Biso   1.000  C
  H30      1.0000 0.92380  0.18330  0.98290  Biso   1.000  H
  C47      1.0000 0.17900  0.04400  0.17940  Biso   1.000  C
  H31      1.0000 0.13500  0.06180  0.15900  Biso   1.000  H
  C48      1.0000 0.20960  0.77400  0.58580  Biso   1.000  C
  C49      1.0000 0.03300  0.07270  0.96490  Biso   1.000  C
  C50      1.0000 0.24270  0.76370  0.64920  Biso   1.000  C
  C51      1.0000 0.23520  0.87910  0.47300  Biso   1.000  C
  C52      1.0000 0.17990  0.99800  0.08570  Biso   1.000  C
  C53      1.0000 0.21200  0.00760  0.15040  Biso   1.000  C
  C54      1.0000 0.23580  0.93510  0.38720  Biso   1.000  C
  H32      1.0000 0.21480  0.94120  0.34730  Biso   1.000  H
  C55      1.0000 0.20380  0.89050  0.41380  Biso   1.000  C
  H33      1.0000 0.16170  0.86840  0.39200  Biso   1.000  H
  C56      1.0000 0.20460  0.82780  0.50310  Biso   1.000  C
  C57      1.0000 0.21460  0.89900  0.97610  Biso   1.000  C
  C58      1.0000 0.02560  0.66500  0.49780  Biso   1.000  C
  H34      1.0000 0.04280  0.66900  0.53790  Biso   1.000  H
  C59      1.0000 0.32520  0.95900  0.47340  Biso   1.000  C
  H35      1.0000 0.36740  0.98170  0.49380  Biso   1.000  H
  C60      1.0000 0.18560  0.88940  0.91670  Biso   1.000  C
  H36      1.0000 0.14340  0.91110  0.89440  Biso   1.000  H
  C61      1.0000 0.30650  0.81920  0.97790  Biso   1.000  C
  H37      1.0000 0.34760  0.79430  0.99910  Biso   1.000  H
  C62      1.0000 0.30620  0.99490  0.24080  Biso   1.000  C
  H38      1.0000 0.35010  0.97720  0.26180  Biso   1.000  H
  C63      1.0000 0.96690  0.62650  0.46730  Biso   1.000  C
  H39      1.0000 0.94430  0.60450  0.48760  Biso   1.000  H
  C64      1.0000 0.97300  0.64790  0.38200  Biso   1.000  C
  H40      1.0000 0.95590  0.63980  0.34220  Biso   1.000  H
  C65      1.0000 0.21110  0.05390  0.23840  Biso   1.000  C
  H41      1.0000 0.18810  0.07850  0.25740  Biso   1.000  H
  C66      1.0000 0.24560  0.70580  0.73550  Biso   1.000  C
  H42      1.0000 0.22680  0.67100  0.75310  Biso   1.000  H
  C67      1.0000 0.00150  0.07220  0.90530  Biso   1.000  C
  H43      1.0000 0.01910  0.04250  0.88400  Biso   1.000  H
  C68      1.0000 0.94380  0.11630  0.87780  Biso   1.000  C
  H44      1.0000 0.92480  0.11880  0.83760  Biso   1.000  H
  C69      1.0000 0.30200  0.80020  0.68280  Biso   1.000  C
  H45      1.0000 0.32480  0.83080  0.66630  Biso   1.000  H
  C70      1.0000 0.21450  0.71290  0.67650  Biso   1.000  C
  H46      1.0000 0.17530  0.68440  0.65490  Biso   1.000  H
  C71      1.0000 0.27770  0.98400  0.18160  Biso   1.000  C
  H47      1.0000 0.30220  0.96140  0.16320  Biso   1.000  H
  C72      1.0000 0.32770  0.79050  0.74260  Biso   1.000  C
  H48      1.0000 0.36690  0.81820  0.76530  Biso   1.000  H
  N13      1.0000 0.91320  0.15580  0.90550  Biso   1.000  N
  N14      1.0000 0.27930  0.81290  0.92070  Biso   1.000  N
  N15      1.0000 0.27530  0.02900  0.26990  Biso   1.000  N
  N16      1.0000 0.12280  0.03720  0.05710  Biso   1.000  N
  N17      1.0000 0.12520  0.98690  0.97110  Biso   1.000  N
  N18      1.0000 0.21090  0.95020  0.06280  Biso   1.000  N
  N19      1.0000 0.29550  0.96980  0.41660  Biso   1.000  N
  N20      1.0000 0.93960  0.61820  0.41050  Biso   1.000  N
  N21      1.0000 0.30080  0.74550  0.76920  Biso   1.000  N
  N22      1.0000 0.23770  0.82290  0.56100  Biso   1.000  N
  N23      1.0000 0.14760  0.79000  0.47060  Biso   1.000  N
  N24      1.0000 0.15250  0.73370  0.55750  Biso   1.000  N
  Ag5      1.0000 0.67830  0.74386  0.63357  Biso   1.000  Ag
  Ag6      1.0000 0.15575  0.54332  0.13311  Biso   1.000  Ag
  C73      1.0000 0.40250  0.52830  0.50110  Biso   1.000  C
  C74      1.0000 0.37660  0.24400  0.99960  Biso   1.000  C
  C75      1.0000 0.44030  0.19870  0.03200  Biso   1.000  C
  C76      1.0000 0.22360  0.36150  0.49190  Biso   1.000  C
  H49      1.0000 0.20310  0.36460  0.45170  Biso   1.000  H
  C77      1.0000 0.49640  0.61500  0.50520  Biso   1.000  C
  H50      1.0000 0.47670  0.61650  0.46500  Biso   1.000  H
  C78      1.0000 0.20250  0.41640  0.99620  Biso   1.000  C
  H51      1.0000 0.18050  0.41230  0.95610  Biso   1.000  H
  C79      1.0000 0.46750  0.19040  0.09060  Biso   1.000  C
  H52      1.0000 0.44650  0.21290  0.11200  Biso   1.000  H
  C80      1.0000 0.31860  0.44780  0.49500  Biso   1.000  C
  C81      1.0000 0.28020  0.34710  0.60950  Biso   1.000  C
  H53      1.0000 0.29960  0.34250  0.64960  Biso   1.000  H
  C82      1.0000 0.55630  0.65510  0.53720  Biso   1.000  C
  H54      1.0000 0.57620  0.68330  0.51710  Biso   1.000  H
  C83      1.0000 0.32100  0.54400  0.32060  Biso   1.000  C
  H55      1.0000 0.36500  0.56180  0.34100  Biso   1.000  H
  C84      1.0000 0.29040  0.27400  0.91420  Biso   1.000  C
  C85      1.0000 0.46700  0.57270  0.53510  Biso   1.000  C
  C86      1.0000 0.25730  0.26370  0.85080  Biso   1.000  C
  C87      1.0000 0.26480  0.37910  0.02700  Biso   1.000  C
  C88      1.0000 0.32010  0.49800  0.41430  Biso   1.000  C
  C89      1.0000 0.28800  0.50760  0.34960  Biso   1.000  C
  C90      1.0000 0.26420  0.43510  0.11280  Biso   1.000  C
  H56      1.0000 0.28520  0.44120  0.15270  Biso   1.000  H
  C91      1.0000 0.29620  0.39050  0.08620  Biso   1.000  C
  H57      1.0000 0.33830  0.36840  0.10800  Biso   1.000  H
  C92      1.0000 0.29540  0.32780  0.99690  Biso   1.000  C
  C93      1.0000 0.28540  0.39900  0.52390  Biso   1.000  C
  C94      1.0000 0.47440  0.16500  0.00220  Biso   1.000  C
  H58      1.0000 0.45720  0.16900  0.96210  Biso   1.000  H
  C95      1.0000 0.17480  0.45900  0.02660  Biso   1.000  C
  H59      1.0000 0.13260  0.48170  0.00620  Biso   1.000  H
  C96      1.0000 0.31440  0.38940  0.58330  Biso   1.000  C
  H60      1.0000 0.35660  0.41110  0.60560  Biso   1.000  H
  C97      1.0000 0.19350  0.31920  0.52210  Biso   1.000  C
  H61      1.0000 0.15240  0.29430  0.50090  Biso   1.000  H
  C98      1.0000 0.19380  0.49490  0.25920  Biso   1.000  C
  H62      1.0000 0.14990  0.47720  0.23820  Biso   1.000  H
  C99      1.0000 0.53310  0.12650  0.03270  Biso   1.000  C
  H63      1.0000 0.55570  0.10450  0.01240  Biso   1.000  H
  C100     1.0000 0.52700  0.14790  0.11800  Biso   1.000  C
  H64      1.0000 0.54410  0.13980  0.15780  Biso   1.000  H
  C101     1.0000 0.28890  0.55390  0.26160  Biso   1.000  C
  H65      1.0000 0.31190  0.57850  0.24260  Biso   1.000  H
  C102     1.0000 0.25440  0.20580  0.76450  Biso   1.000  C
  H66      1.0000 0.27320  0.17100  0.74690  Biso   1.000  H
  C103     1.0000 0.49850  0.57220  0.59470  Biso   1.000  C
  H67      1.0000 0.48090  0.54250  0.61600  Biso   1.000  H
  C104     1.0000 0.55620  0.61630  0.62220  Biso   1.000  C
  H68      1.0000 0.57520  0.61880  0.66240  Biso   1.000  H
  C105     1.0000 0.19800  0.30020  0.81720  Biso   1.000  C
  H69      1.0000 0.17520  0.33080  0.83370  Biso   1.000  H
  C106     1.0000 0.28550  0.21290  0.82350  Biso   1.000  C
  H70      1.0000 0.32470  0.18440  0.84510  Biso   1.000  H
  C107     1.0000 0.22230  0.48400  0.31840  Biso   1.000  C
  H71      1.0000 0.19780  0.46140  0.33680  Biso   1.000  H
  C108     1.0000 0.17230  0.29050  0.75740  Biso   1.000  C
  H72      1.0000 0.13310  0.31820  0.73470  Biso   1.000  H
  N25      1.0000 0.58680  0.65580  0.59450  Biso   1.000  N
  N26      1.0000 0.22070  0.31290  0.57930  Biso   1.000  N
  N27      1.0000 0.22470  0.52900  0.23010  Biso   1.000  N
  N28      1.0000 0.37720  0.53720  0.44290  Biso   1.000  N
  N29      1.0000 0.37480  0.48690  0.52890  Biso   1.000  N
  N30      1.0000 0.28910  0.45020  0.43720  Biso   1.000  N
  N31      1.0000 0.20450  0.46980  0.08340  Biso   1.000  N
  N32      1.0000 0.56040  0.11820  0.08950  Biso   1.000  N
  N33      1.0000 0.19920  0.24550  0.73080  Biso   1.000  N
  N34      1.0000 0.26230  0.32290  0.93900  Biso   1.000  N
  N35      1.0000 0.35240  0.29000  0.02940  Biso   1.000  N
  N36      1.0000 0.34750  0.23370  0.94250  Biso   1.000  N
  Ag7      1.0000 0.17830  0.24386  0.63357  Biso   1.000  Ag
  Ag8      1.0000 0.65575  0.04332  0.13311  Biso   1.000  Ag
  C109     1.0000 0.90250  0.02830  0.50110  Biso   1.000  C
  C110     1.0000 0.87660  0.74400  0.99960  Biso   1.000  C
  C111     1.0000 0.94030  0.69870  0.03200  Biso   1.000  C
  C112     1.0000 0.72360  0.86150  0.49190  Biso   1.000  C
  H73      1.0000 0.70310  0.86460  0.45170  Biso   1.000  H
  C113     1.0000 0.99640  0.11500  0.50520  Biso   1.000  C
  H74      1.0000 0.97670  0.11650  0.46500  Biso   1.000  H
  C114     1.0000 0.70250  0.91640  0.99620  Biso   1.000  C
  H75      1.0000 0.68050  0.91230  0.95610  Biso   1.000  H
  C115     1.0000 0.96750  0.69040  0.09060  Biso   1.000  C
  H76      1.0000 0.94650  0.71290  0.11200  Biso   1.000  H
  C116     1.0000 0.81860  0.94780  0.49500  Biso   1.000  C
  C117     1.0000 0.78020  0.84710  0.60950  Biso   1.000  C
  H77      1.0000 0.79960  0.84250  0.64960  Biso   1.000  H
  C118     1.0000 0.05630  0.15510  0.53720  Biso   1.000  C
  H78      1.0000 0.07620  0.18330  0.51710  Biso   1.000  H
  C119     1.0000 0.82100  0.04400  0.32060  Biso   1.000  C
  H79      1.0000 0.86500  0.06180  0.34100  Biso   1.000  H
  C120     1.0000 0.79040  0.77400  0.91420  Biso   1.000  C
  C121     1.0000 0.96700  0.07270  0.53510  Biso   1.000  C
  C122     1.0000 0.75730  0.76370  0.85080  Biso   1.000  C
  C123     1.0000 0.76480  0.87910  0.02700  Biso   1.000  C
  C124     1.0000 0.82010  0.99800  0.41430  Biso   1.000  C
  C125     1.0000 0.78800  0.00760  0.34960  Biso   1.000  C
  C126     1.0000 0.76420  0.93510  0.11280  Biso   1.000  C
  H80      1.0000 0.78520  0.94120  0.15270  Biso   1.000  H
  C127     1.0000 0.79620  0.89050  0.08620  Biso   1.000  C
  H81      1.0000 0.83830  0.86840  0.10800  Biso   1.000  H
  C128     1.0000 0.79540  0.82780  0.99690  Biso   1.000  C
  C129     1.0000 0.78540  0.89900  0.52390  Biso   1.000  C
  C130     1.0000 0.97440  0.66500  0.00220  Biso   1.000  C
  H82      1.0000 0.95720  0.66900  0.96210  Biso   1.000  H
  C131     1.0000 0.67480  0.95900  0.02660  Biso   1.000  C
  H83      1.0000 0.63260  0.98170  0.00620  Biso   1.000  H
  C132     1.0000 0.81440  0.88940  0.58330  Biso   1.000  C
  H84      1.0000 0.85660  0.91110  0.60560  Biso   1.000  H
  C133     1.0000 0.69350  0.81920  0.52210  Biso   1.000  C
  H85      1.0000 0.65240  0.79430  0.50090  Biso   1.000  H
  C134     1.0000 0.69380  0.99490  0.25920  Biso   1.000  C
  H86      1.0000 0.64990  0.97720  0.23820  Biso   1.000  H
  C135     1.0000 0.03310  0.62650  0.03270  Biso   1.000  C
  H87      1.0000 0.05570  0.60450  0.01240  Biso   1.000  H
  C136     1.0000 0.02700  0.64790  0.11800  Biso   1.000  C
  H88      1.0000 0.04410  0.63980  0.15780  Biso   1.000  H
  C137     1.0000 0.78890  0.05390  0.26160  Biso   1.000  C
  H89      1.0000 0.81190  0.07850  0.24260  Biso   1.000  H
  C138     1.0000 0.75440  0.70580  0.76450  Biso   1.000  C
  H90      1.0000 0.77320  0.67100  0.74690  Biso   1.000  H
  C139     1.0000 0.99850  0.07220  0.59470  Biso   1.000  C
  H91      1.0000 0.98090  0.04250  0.61600  Biso   1.000  H
  C140     1.0000 0.05620  0.11630  0.62220  Biso   1.000  C
  H92      1.0000 0.07520  0.11880  0.66240  Biso   1.000  H
  C141     1.0000 0.69800  0.80020  0.81720  Biso   1.000  C
  H93      1.0000 0.67520  0.83080  0.83370  Biso   1.000  H
  C142     1.0000 0.78550  0.71290  0.82350  Biso   1.000  C
  H94      1.0000 0.82470  0.68440  0.84510  Biso   1.000  H
  C143     1.0000 0.72230  0.98400  0.31840  Biso   1.000  C
  H95      1.0000 0.69780  0.96140  0.33680  Biso   1.000  H
  C144     1.0000 0.67230  0.79050  0.75740  Biso   1.000  C
  H96      1.0000 0.63310  0.81820  0.73470  Biso   1.000  H
  N37      1.0000 0.08680  0.15580  0.59450  Biso   1.000  N
  N38      1.0000 0.72070  0.81290  0.57930  Biso   1.000  N
  N39      1.0000 0.72470  0.02900  0.23010  Biso   1.000  N
  N40      1.0000 0.87720  0.03720  0.44290  Biso   1.000  N
  N41      1.0000 0.87480  0.98690  0.52890  Biso   1.000  N
  N42      1.0000 0.78910  0.95020  0.43720  Biso   1.000  N
  N43      1.0000 0.70450  0.96980  0.08340  Biso   1.000  N
  N44      1.0000 0.06040  0.61820  0.08950  Biso   1.000  N
  N45      1.0000 0.69920  0.74550  0.73080  Biso   1.000  N
  N46      1.0000 0.76230  0.82290  0.93900  Biso   1.000  N
  N47      1.0000 0.85240  0.79000  0.02940  Biso   1.000  N
  N48      1.0000 0.84750  0.73370  0.94250  Biso   1.000  N
  Ag9      1.0000 0.67830  0.25614  0.13357  Biso   1.000  Ag
  Ag10     1.0000 0.15575  0.45668  0.63311  Biso   1.000  Ag
  C145     1.0000 0.40250  0.47170  0.00110  Biso   1.000  C
  C146     1.0000 0.37660  0.75600  0.49960  Biso   1.000  C
  C147     1.0000 0.44030  0.80130  0.53200  Biso   1.000  C
  C148     1.0000 0.22360  0.63850  0.99190  Biso   1.000  C
  H97      1.0000 0.20310  0.63540  0.95170  Biso   1.000  H
  C149     1.0000 0.49640  0.38500  0.00520  Biso   1.000  C
  H98      1.0000 0.47670  0.38350  0.96500  Biso   1.000  H
  C150     1.0000 0.20250  0.58360  0.49620  Biso   1.000  C
  H99      1.0000 0.18050  0.58770  0.45610  Biso   1.000  H
  C151     1.0000 0.46750  0.80960  0.59060  Biso   1.000  C
  H100     1.0000 0.44650  0.78710  0.61200  Biso   1.000  H
  C152     1.0000 0.31860  0.55220  0.99500  Biso   1.000  C
  C153     1.0000 0.28020  0.65290  0.10950  Biso   1.000  C
  H101     1.0000 0.29960  0.65750  0.14960  Biso   1.000  H
  C154     1.0000 0.55630  0.34490  0.03720  Biso   1.000  C
  H102     1.0000 0.57620  0.31670  0.01710  Biso   1.000  H
  C155     1.0000 0.32100  0.45600  0.82060  Biso   1.000  C
  H103     1.0000 0.36500  0.43820  0.84100  Biso   1.000  H
  C156     1.0000 0.29040  0.72600  0.41420  Biso   1.000  C
  C157     1.0000 0.46700  0.42730  0.03510  Biso   1.000  C
  C158     1.0000 0.25730  0.73630  0.35080  Biso   1.000  C
  C159     1.0000 0.26480  0.62090  0.52700  Biso   1.000  C
  C160     1.0000 0.32010  0.50200  0.91430  Biso   1.000  C
  C161     1.0000 0.28800  0.49240  0.84960  Biso   1.000  C
  C162     1.0000 0.26420  0.56490  0.61280  Biso   1.000  C
  H104     1.0000 0.28520  0.55880  0.65270  Biso   1.000  H
  C163     1.0000 0.29620  0.60950  0.58620  Biso   1.000  C
  H105     1.0000 0.33830  0.63160  0.60800  Biso   1.000  H
  C164     1.0000 0.29540  0.67220  0.49690  Biso   1.000  C
  C165     1.0000 0.28540  0.60100  0.02390  Biso   1.000  C
  C166     1.0000 0.47440  0.83500  0.50220  Biso   1.000  C
  H106     1.0000 0.45720  0.83100  0.46210  Biso   1.000  H
  C167     1.0000 0.17480  0.54100  0.52660  Biso   1.000  C
  H107     1.0000 0.13260  0.51830  0.50620  Biso   1.000  H
  C168     1.0000 0.31440  0.61060  0.08330  Biso   1.000  C
  H108     1.0000 0.35660  0.58890  0.10560  Biso   1.000  H
  C169     1.0000 0.19350  0.68080  0.02210  Biso   1.000  C
  H109     1.0000 0.15240  0.70570  0.00090  Biso   1.000  H
  C170     1.0000 0.19380  0.50510  0.75920  Biso   1.000  C
  H110     1.0000 0.14990  0.52280  0.73820  Biso   1.000  H
  C171     1.0000 0.53310  0.87350  0.53270  Biso   1.000  C
  H111     1.0000 0.55570  0.89550  0.51240  Biso   1.000  H
  C172     1.0000 0.52700  0.85210  0.61800  Biso   1.000  C
  H112     1.0000 0.54410  0.86020  0.65780  Biso   1.000  H
  C173     1.0000 0.28890  0.44610  0.76160  Biso   1.000  C
  H113     1.0000 0.31190  0.42150  0.74260  Biso   1.000  H
  C174     1.0000 0.25440  0.79420  0.26450  Biso   1.000  C
  H114     1.0000 0.27320  0.82900  0.24690  Biso   1.000  H
  C175     1.0000 0.49850  0.42780  0.09470  Biso   1.000  C
  H115     1.0000 0.48090  0.45750  0.11600  Biso   1.000  H
  C176     1.0000 0.55620  0.38370  0.12220  Biso   1.000  C
  H116     1.0000 0.57520  0.38120  0.16240  Biso   1.000  H
  C177     1.0000 0.19800  0.69980  0.31720  Biso   1.000  C
  H117     1.0000 0.17520  0.66920  0.33370  Biso   1.000  H
  C178     1.0000 0.28550  0.78710  0.32350  Biso   1.000  C
  H118     1.0000 0.32470  0.81560  0.34510  Biso   1.000  H
  C179     1.0000 0.22230  0.51600  0.81840  Biso   1.000  C
  H119     1.0000 0.19780  0.53860  0.83680  Biso   1.000  H
  C180     1.0000 0.17230  0.70950  0.25740  Biso   1.000  C
  H120     1.0000 0.13310  0.68180  0.23470  Biso   1.000  H
  N49      1.0000 0.58680  0.34420  0.09450  Biso   1.000  N
  N50      1.0000 0.22070  0.68710  0.07930  Biso   1.000  N
  N51      1.0000 0.22470  0.47100  0.73010  Biso   1.000  N
  N52      1.0000 0.37720  0.46280  0.94290  Biso   1.000  N
  N53      1.0000 0.37480  0.51310  0.02890  Biso   1.000  N
  N54      1.0000 0.28910  0.54980  0.93720  Biso   1.000  N
  N55      1.0000 0.20450  0.53020  0.58340  Biso   1.000  N
  N56      1.0000 0.56040  0.88180  0.58950  Biso   1.000  N
  N57      1.0000 0.19920  0.75450  0.23080  Biso   1.000  N
  N58      1.0000 0.26230  0.67710  0.43900  Biso   1.000  N
  N59      1.0000 0.35240  0.71000  0.52940  Biso   1.000  N
  N60      1.0000 0.34750  0.76630  0.44250  Biso   1.000  N
  Ag11     1.0000 0.17830  0.75614  0.13357  Biso   1.000  Ag
  Ag12     1.0000 0.65575  0.95668  0.63311  Biso   1.000  Ag
  C181     1.0000 0.90250  0.97170  0.00110  Biso   1.000  C
  C182     1.0000 0.87660  0.25600  0.49960  Biso   1.000  C
  C183     1.0000 0.94030  0.30130  0.53200  Biso   1.000  C
  C184     1.0000 0.72360  0.13850  0.99190  Biso   1.000  C
  H121     1.0000 0.70310  0.13540  0.95170  Biso   1.000  H
  C185     1.0000 0.99640  0.88500  0.00520  Biso   1.000  C
  H122     1.0000 0.97670  0.88350  0.96500  Biso   1.000  H
  C186     1.0000 0.70250  0.08360  0.49620  Biso   1.000  C
  H123     1.0000 0.68050  0.08770  0.45610  Biso   1.000  H
  C187     1.0000 0.96750  0.30960  0.59060  Biso   1.000  C
  H124     1.0000 0.94650  0.28710  0.61200  Biso   1.000  H
  C188     1.0000 0.81860  0.05220  0.99500  Biso   1.000  C
  C189     1.0000 0.78020  0.15290  0.10950  Biso   1.000  C
  H125     1.0000 0.79960  0.15750  0.14960  Biso   1.000  H
  C190     1.0000 0.05630  0.84490  0.03720  Biso   1.000  C
  H126     1.0000 0.07620  0.81670  0.01710  Biso   1.000  H
  C191     1.0000 0.82100  0.95600  0.82060  Biso   1.000  C
  H127     1.0000 0.86500  0.93820  0.84100  Biso   1.000  H
  C192     1.0000 0.79040  0.22600  0.41420  Biso   1.000  C
  C193     1.0000 0.96700  0.92730  0.03510  Biso   1.000  C
  C194     1.0000 0.75730  0.23630  0.35080  Biso   1.000  C
  C195     1.0000 0.76480  0.12090  0.52700  Biso   1.000  C
  C196     1.0000 0.82010  0.00200  0.91430  Biso   1.000  C
  C197     1.0000 0.78800  0.99240  0.84960  Biso   1.000  C
  C198     1.0000 0.76420  0.06490  0.61280  Biso   1.000  C
  H128     1.0000 0.78520  0.05880  0.65270  Biso   1.000  H
  C199     1.0000 0.79620  0.10950  0.58620  Biso   1.000  C
  H129     1.0000 0.83830  0.13160  0.60800  Biso   1.000  H
  C200     1.0000 0.79540  0.17220  0.49690  Biso   1.000  C
  C201     1.0000 0.78540  0.10100  0.02390  Biso   1.000  C
  C202     1.0000 0.97440  0.33500  0.50220  Biso   1.000  C
  H130     1.0000 0.95720  0.33100  0.46210  Biso   1.000  H
  C203     1.0000 0.67480  0.04100  0.52660  Biso   1.000  C
  H131     1.0000 0.63260  0.01830  0.50620  Biso   1.000  H
  C204     1.0000 0.81440  0.11060  0.08330  Biso   1.000  C
  H132     1.0000 0.85660  0.08890  0.10560  Biso   1.000  H
  C205     1.0000 0.69350  0.18080  0.02210  Biso   1.000  C
  H133     1.0000 0.65240  0.20570  0.00090  Biso   1.000  H
  C206     1.0000 0.69380  0.00510  0.75920  Biso   1.000  C
  H134     1.0000 0.64990  0.02280  0.73820  Biso   1.000  H
  C207     1.0000 0.03310  0.37350  0.53270  Biso   1.000  C
  H135     1.0000 0.05570  0.39550  0.51240  Biso   1.000  H
  C208     1.0000 0.02700  0.35210  0.61800  Biso   1.000  C
  H136     1.0000 0.04410  0.36020  0.65780  Biso   1.000  H
  C209     1.0000 0.78890  0.94610  0.76160  Biso   1.000  C
  H137     1.0000 0.81190  0.92150  0.74260  Biso   1.000  H
  C210     1.0000 0.75440  0.29420  0.26450  Biso   1.000  C
  H138     1.0000 0.77320  0.32900  0.24690  Biso   1.000  H
  C211     1.0000 0.99850  0.92780  0.09470  Biso   1.000  C
  H139     1.0000 0.98090  0.95750  0.11600  Biso   1.000  H
  C212     1.0000 0.05620  0.88370  0.12220  Biso   1.000  C
  H140     1.0000 0.07520  0.88120  0.16240  Biso   1.000  H
  C213     1.0000 0.69800  0.19980  0.31720  Biso   1.000  C
  H141     1.0000 0.67520  0.16920  0.33370  Biso   1.000  H
  C214     1.0000 0.78550  0.28710  0.32350  Biso   1.000  C
  H142     1.0000 0.82470  0.31560  0.34510  Biso   1.000  H
  C215     1.0000 0.72230  0.01600  0.81840  Biso   1.000  C
  H143     1.0000 0.69780  0.03860  0.83680  Biso   1.000  H
  C216     1.0000 0.67230  0.20950  0.25740  Biso   1.000  C
  H144     1.0000 0.63310  0.18180  0.23470  Biso   1.000  H
  N61      1.0000 0.08680  0.84420  0.09450  Biso   1.000  N
  N62      1.0000 0.72070  0.18710  0.07930  Biso   1.000  N
  N63      1.0000 0.72470  0.97100  0.73010  Biso   1.000  N
  N64      1.0000 0.87720  0.96280  0.94290  Biso   1.000  N
  N65      1.0000 0.87480  0.01310  0.02890  Biso   1.000  N
  N66      1.0000 0.78910  0.04980  0.93720  Biso   1.000  N
  N67      1.0000 0.70450  0.03020  0.58340  Biso   1.000  N
  N68      1.0000 0.06040  0.38180  0.58950  Biso   1.000  N
  N69      1.0000 0.69920  0.25450  0.23080  Biso   1.000  N
  N70      1.0000 0.76230  0.17710  0.43900  Biso   1.000  N
  N71      1.0000 0.85240  0.21000  0.52940  Biso   1.000  N
  N72      1.0000 0.84750  0.26630  0.44250  Biso   1.000  N
  Ag13     1.0000 0.32170  0.25614  0.36643  Biso   1.000  Ag
  Ag14     1.0000 0.84425  0.45668  0.86689  Biso   1.000  Ag
  C217     1.0000 0.59750  0.47170  0.49890  Biso   1.000  C
  C218     1.0000 0.62340  0.75600  0.00040  Biso   1.000  C
  C219     1.0000 0.55970  0.80130  0.96800  Biso   1.000  C
  C220     1.0000 0.77640  0.63850  0.50810  Biso   1.000  C
  H145     1.0000 0.79690  0.63540  0.54830  Biso   1.000  H
  C221     1.0000 0.50360  0.38500  0.49480  Biso   1.000  C
  H146     1.0000 0.52330  0.38350  0.53500  Biso   1.000  H
  C222     1.0000 0.79750  0.58360  0.00380  Biso   1.000  C
  H147     1.0000 0.81950  0.58770  0.04390  Biso   1.000  H
  C223     1.0000 0.53250  0.80960  0.90940  Biso   1.000  C
  H148     1.0000 0.55350  0.78710  0.88800  Biso   1.000  H
  C224     1.0000 0.68140  0.55220  0.50500  Biso   1.000  C
  C225     1.0000 0.71980  0.65290  0.39050  Biso   1.000  C
  H149     1.0000 0.70040  0.65750  0.35040  Biso   1.000  H
  C226     1.0000 0.44370  0.34490  0.46280  Biso   1.000  C
  H150     1.0000 0.42380  0.31670  0.48290  Biso   1.000  H
  C227     1.0000 0.67900  0.45600  0.67940  Biso   1.000  C
  H151     1.0000 0.63500  0.43820  0.65900  Biso   1.000  H
  C228     1.0000 0.70960  0.72600  0.08580  Biso   1.000  C
  C229     1.0000 0.53300  0.42730  0.46490  Biso   1.000  C
  C230     1.0000 0.74270  0.73630  0.14920  Biso   1.000  C
  C231     1.0000 0.73520  0.62090  0.97300  Biso   1.000  C
  C232     1.0000 0.67990  0.50200  0.58570  Biso   1.000  C
  C233     1.0000 0.71200  0.49240  0.65040  Biso   1.000  C
  C234     1.0000 0.73580  0.56490  0.88720  Biso   1.000  C
  H152     1.0000 0.71480  0.55880  0.84730  Biso   1.000  H
  C235     1.0000 0.70380  0.60950  0.91380  Biso   1.000  C
  H153     1.0000 0.66170  0.63160  0.89200  Biso   1.000  H
  C236     1.0000 0.70460  0.67220  0.00310  Biso   1.000  C
  C237     1.0000 0.71460  0.60100  0.47610  Biso   1.000  C
  C238     1.0000 0.52560  0.83500  0.99780  Biso   1.000  C
  H154     1.0000 0.54280  0.83100  0.03790  Biso   1.000  H
  C239     1.0000 0.82520  0.54100  0.97340  Biso   1.000  C
  H155     1.0000 0.86740  0.51830  0.99380  Biso   1.000  H
  C240     1.0000 0.68560  0.61060  0.41670  Biso   1.000  C
  H156     1.0000 0.64340  0.58890  0.39440  Biso   1.000  H
  C241     1.0000 0.80650  0.68080  0.47790  Biso   1.000  C
  H157     1.0000 0.84760  0.70570  0.49910  Biso   1.000  H
  C242     1.0000 0.80620  0.50510  0.74080  Biso   1.000  C
  H158     1.0000 0.85010  0.52280  0.76180  Biso   1.000  H
  C243     1.0000 0.46690  0.87350  0.96730  Biso   1.000  C
  H159     1.0000 0.44430  0.89550  0.98760  Biso   1.000  H
  C244     1.0000 0.47300  0.85210  0.88200  Biso   1.000  C
  H160     1.0000 0.45590  0.86020  0.84220  Biso   1.000  H
  C245     1.0000 0.71110  0.44610  0.73840  Biso   1.000  C
  H161     1.0000 0.68810  0.42150  0.75740  Biso   1.000  H
  C246     1.0000 0.74560  0.79420  0.23550  Biso   1.000  C
  H162     1.0000 0.72680  0.82900  0.25310  Biso   1.000  H
  C247     1.0000 0.50150  0.42780  0.40530  Biso   1.000  C
  H163     1.0000 0.51910  0.45750  0.38400  Biso   1.000  H
  C248     1.0000 0.44380  0.38370  0.37780  Biso   1.000  C
  H164     1.0000 0.42480  0.38120  0.33760  Biso   1.000  H
  C249     1.0000 0.80200  0.69980  0.18280  Biso   1.000  C
  H165     1.0000 0.82480  0.66920  0.16630  Biso   1.000  H
  C250     1.0000 0.71450  0.78710  0.17650  Biso   1.000  C
  H166     1.0000 0.67530  0.81560  0.15490  Biso   1.000  H
  C251     1.0000 0.77770  0.51600  0.68160  Biso   1.000  C
  H167     1.0000 0.80220  0.53860  0.66320  Biso   1.000  H
  C252     1.0000 0.82770  0.70950  0.24260  Biso   1.000  C
  H168     1.0000 0.86690  0.68180  0.26530  Biso   1.000  H
  N73      1.0000 0.41320  0.34420  0.40550  Biso   1.000  N
  N74      1.0000 0.77930  0.68710  0.42070  Biso   1.000  N
  N75      1.0000 0.77530  0.47100  0.76990  Biso   1.000  N
  N76      1.0000 0.62280  0.46280  0.55710  Biso   1.000  N
  N77      1.0000 0.62520  0.51310  0.47110  Biso   1.000  N
  N78      1.0000 0.71090  0.54980  0.56280  Biso   1.000  N
  N79      1.0000 0.79550  0.53020  0.91660  Biso   1.000  N
  N80      1.0000 0.43960  0.88180  0.91050  Biso   1.000  N
  N81      1.0000 0.80080  0.75450  0.26920  Biso   1.000  N
  N82      1.0000 0.73770  0.67710  0.06100  Biso   1.000  N
  N83      1.0000 0.64760  0.71000  0.97060  Biso   1.000  N
  N84      1.0000 0.65250  0.76630  0.05750  Biso   1.000  N
  Ag15     1.0000 0.82170  0.75614  0.36643  Biso   1.000  Ag
  Ag16     1.0000 0.34425  0.95668  0.86689  Biso   1.000  Ag
  C253     1.0000 0.09750  0.97170  0.49890  Biso   1.000  C
  C254     1.0000 0.12340  0.25600  0.00040  Biso   1.000  C
  C255     1.0000 0.05970  0.30130  0.96800  Biso   1.000  C
  C256     1.0000 0.27640  0.13850  0.50810  Biso   1.000  C
  H169     1.0000 0.29690  0.13540  0.54830  Biso   1.000  H
  C257     1.0000 0.00360  0.88500  0.49480  Biso   1.000  C
  H170     1.0000 0.02330  0.88350  0.53500  Biso   1.000  H
  C258     1.0000 0.29750  0.08360  0.00380  Biso   1.000  C
  H171     1.0000 0.31950  0.08770  0.04390  Biso   1.000  H
  C259     1.0000 0.03250  0.30960  0.90940  Biso   1.000  C
  H172     1.0000 0.05350  0.28710  0.88800  Biso   1.000  H
  C260     1.0000 0.18140  0.05220  0.50500  Biso   1.000  C
  C261     1.0000 0.21980  0.15290  0.39050  Biso   1.000  C
  H173     1.0000 0.20040  0.15750  0.35040  Biso   1.000  H
  C262     1.0000 0.94370  0.84490  0.46280  Biso   1.000  C
  H174     1.0000 0.92380  0.81670  0.48290  Biso   1.000  H
  C263     1.0000 0.17900  0.95600  0.67940  Biso   1.000  C
  H175     1.0000 0.13500  0.93820  0.65900  Biso   1.000  H
  C264     1.0000 0.20960  0.22600  0.08580  Biso   1.000  C
  C265     1.0000 0.03300  0.92730  0.46490  Biso   1.000  C
  C266     1.0000 0.24270  0.23630  0.14920  Biso   1.000  C
  C267     1.0000 0.23520  0.12090  0.97300  Biso   1.000  C
  C268     1.0000 0.17990  0.00200  0.58570  Biso   1.000  C
  C269     1.0000 0.21200  0.99240  0.65040  Biso   1.000  C
  C270     1.0000 0.23580  0.06490  0.88720  Biso   1.000  C
  H176     1.0000 0.21480  0.05880  0.84730  Biso   1.000  H
  C271     1.0000 0.20380  0.10950  0.91380  Biso   1.000  C
  H177     1.0000 0.16170  0.13160  0.89200  Biso   1.000  H
  C272     1.0000 0.20460  0.17220  0.00310  Biso   1.000  C
  C273     1.0000 0.21460  0.10100  0.47610  Biso   1.000  C
  C274     1.0000 0.02560  0.33500  0.99780  Biso   1.000  C
  H178     1.0000 0.04280  0.33100  0.03790  Biso   1.000  H
  C275     1.0000 0.32520  0.04100  0.97340  Biso   1.000  C
  H179     1.0000 0.36740  0.01830  0.99380  Biso   1.000  H
  C276     1.0000 0.18560  0.11060  0.41670  Biso   1.000  C
  H180     1.0000 0.14340  0.08890  0.39440  Biso   1.000  H
  C277     1.0000 0.30650  0.18080  0.47790  Biso   1.000  C
  H181     1.0000 0.34760  0.20570  0.49910  Biso   1.000  H
  C278     1.0000 0.30620  0.00510  0.74080  Biso   1.000  C
  H182     1.0000 0.35010  0.02280  0.76180  Biso   1.000  H
  C279     1.0000 0.96690  0.37350  0.96730  Biso   1.000  C
  H183     1.0000 0.94430  0.39550  0.98760  Biso   1.000  H
  C280     1.0000 0.97300  0.35210  0.88200  Biso   1.000  C
  H184     1.0000 0.95590  0.36020  0.84220  Biso   1.000  H
  C281     1.0000 0.21110  0.94610  0.73840  Biso   1.000  C
  H185     1.0000 0.18810  0.92150  0.75740  Biso   1.000  H
  C282     1.0000 0.24560  0.29420  0.23550  Biso   1.000  C
  H186     1.0000 0.22680  0.32900  0.25310  Biso   1.000  H
  C283     1.0000 0.00150  0.92780  0.40530  Biso   1.000  C
  H187     1.0000 0.01910  0.95750  0.38400  Biso   1.000  H
  C284     1.0000 0.94380  0.88370  0.37780  Biso   1.000  C
  H188     1.0000 0.92480  0.88120  0.33760  Biso   1.000  H
  C285     1.0000 0.30200  0.19980  0.18280  Biso   1.000  C
  H189     1.0000 0.32480  0.16920  0.16630  Biso   1.000  H
  C286     1.0000 0.21450  0.28710  0.17650  Biso   1.000  C
  H190     1.0000 0.17530  0.31560  0.15490  Biso   1.000  H
  C287     1.0000 0.27770  0.01600  0.68160  Biso   1.000  C
  H191     1.0000 0.30220  0.03860  0.66320  Biso   1.000  H
  C288     1.0000 0.32770  0.20950  0.24260  Biso   1.000  C
  H192     1.0000 0.36690  0.18180  0.26530  Biso   1.000  H
  N85      1.0000 0.91320  0.84420  0.40550  Biso   1.000  N
  N86      1.0000 0.27930  0.18710  0.42070  Biso   1.000  N
  N87      1.0000 0.27530  0.97100  0.76990  Biso   1.000  N
  N88      1.0000 0.12280  0.96280  0.55710  Biso   1.000  N
  N89      1.0000 0.12520  0.01310  0.47110  Biso   1.000  N
  N90      1.0000 0.21090  0.04980  0.56280  Biso   1.000  N
  N91      1.0000 0.29550  0.03020  0.91660  Biso   1.000  N
  N92      1.0000 0.93960  0.38180  0.91050  Biso   1.000  N
  N93      1.0000 0.30080  0.25450  0.26920  Biso   1.000  N
  N94      1.0000 0.23770  0.17710  0.06100  Biso   1.000  N
  N95      1.0000 0.14760  0.21000  0.97060  Biso   1.000  N
  N96      1.0000 0.15250  0.26630  0.05750  Biso   1.000  N
