data_image0
_cell_length_a       22.0532
_cell_length_b       16.3828
_cell_length_c       25.6809
_cell_angle_alpha    90
_cell_angle_beta     115.391
_cell_angle_gamma    90

_symmetry_space_group_name_H-M    "P 1"
_symmetry_int_tables_number       1

loop_
  _symmetry_equiv_pos_as_xyz
  'x, y, z'

loop_
  _atom_site_label
  _atom_site_occupancy
  _atom_site_fract_x
  _atom_site_fract_y
  _atom_site_fract_z
  _atom_site_thermal_displace_type
  _atom_site_B_iso_or_equiv
  _atom_site_type_symbol
  Ag1      1.0000 0.34389  0.45794  0.36796  Biso   1.000  Ag
  Ag2      1.0000 0.82301  0.25006  0.86755  Biso   1.000  Ag
  C1       1.0000 0.62426  0.25730  0.50269  Biso   1.000  C
  C2       1.0000 0.00246  0.38280  0.99685  Biso   1.000  C
  H1       1.0000 0.02180  0.38200  0.03690  Biso   1.000  H
  C3       1.0000 0.53329  0.31160  0.41154  Biso   1.000  C
  H2       1.0000 0.55470  0.28980  0.39040  Biso   1.000  H
  C4       1.0000 0.27767  0.63710  0.00952  Biso   1.000  C
  H3       1.0000 0.29850  0.63390  0.04950  Biso   1.000  H
  C5       1.0000 0.73574  0.06670  0.38882  Biso   1.000  C
  H4       1.0000 0.71400  0.06090  0.34900  Biso   1.000  H
  C6       1.0000 0.56003  0.30250  0.47056  Biso   1.000  C
  C7       1.0000 0.09731  0.46910  0.00160  Biso   1.000  C
  C8       1.0000 0.21965  0.65060  0.89287  Biso   1.000  C
  H5       1.0000 0.19930  0.65580  0.85300  Biso   1.000  H
  C9       1.0000 0.71001  0.22650  0.58794  Biso   1.000  C
  C10      1.0000 0.94336  0.34240  0.96570  Biso   1.000  C
  H6       1.0000 0.92320  0.31490  0.98580  Biso   1.000  H
  C11      1.0000 0.52662  0.33590  0.50049  Biso   1.000  C
  H7       1.0000 0.54390  0.33100  0.54030  Biso   1.000  H
  C12      1.0000 0.74322  0.23680  0.65183  Biso   1.000  C
  C13      1.0000 0.17820  0.45720  0.18188  Biso   1.000  C
  H8       1.0000 0.13410  0.43950  0.16200  Biso   1.000  H
  C14      1.0000 0.30610  0.50680  0.24296  Biso   1.000  C
  H9       1.0000 0.35030  0.52370  0.26380  Biso   1.000  H
  C15      1.0000 0.21544  0.60030  0.97815  Biso   1.000  C
  C16      1.0000 0.46710  0.37650  0.46970  Biso   1.000  C
  H10      1.0000 0.44490  0.39910  0.49000  Biso   1.000  H
  C17      1.0000 0.17955  0.50240  0.08870  Biso   1.000  C
  C18      1.0000 0.03272  0.42480  0.96747  Biso   1.000  C
  C19      1.0000 0.82586  0.04070  0.47462  Biso   1.000  C
  H11      1.0000 0.86760  0.01640  0.49500  Biso   1.000  H
  C20      1.0000 0.82700  0.20280  0.74480  Biso   1.000  C
  H12      1.0000 0.86550  0.17360  0.76740  Biso   1.000  H
  C21      1.0000 0.18608  0.60800  0.91861  Biso   1.000  C
  H13      1.0000 0.14440  0.58470  0.89650  Biso   1.000  H
  C22      1.0000 0.79855  0.08420  0.50551  Biso   1.000  C
  H14      1.0000 0.82090  0.08840  0.54540  Biso   1.000  H
  C23      1.0000 0.70600  0.17250  0.50584  Biso   1.000  C
  C24      1.0000 0.18210  0.55090  0.00720  Biso   1.000  C
  C25      1.0000 0.30779  0.67840  0.97975  Biso   1.000  C
  H15      1.0000 0.34930  0.70260  0.00080  Biso   1.000  H
  C26      1.0000 0.47327  0.35450  0.38447  Biso   1.000  C
  H16      1.0000 0.45590  0.36200  0.34480  Biso   1.000  H
  C27      1.0000 0.21077  0.44840  0.24078  Biso   1.000  C
  H17      1.0000 0.18780  0.42450  0.25990  Biso   1.000  H
  C28      1.0000 0.00208  0.42470  0.90778  Biso   1.000  C
  H18      1.0000 0.02080  0.45320  0.88690  Biso   1.000  H
  C29      1.0000 0.27737  0.51830  0.18389  Biso   1.000  C
  H19      1.0000 0.30140  0.54250  0.16580  Biso   1.000  H
  C30      1.0000 0.70463  0.11110  0.41562  Biso   1.000  C
  H20      1.0000 0.66260  0.13390  0.39420  Biso   1.000  H
  C31      1.0000 0.94299  0.38130  0.87979  Biso   1.000  C
  H21      1.0000 0.92310  0.38030  0.83970  Biso   1.000  H
  C32      1.0000 0.21120  0.49250  0.15223  Biso   1.000  C
  C33      1.0000 0.73634  0.12190  0.47507  Biso   1.000  C
  C34      1.0000 0.74520  0.29350  0.73782  Biso   1.000  C
  H22      1.0000 0.72660  0.32860  0.75540  Biso   1.000  H
  C35      1.0000 0.71564  0.28840  0.67849  Biso   1.000  C
  H23      1.0000 0.67780  0.31930  0.65680  Biso   1.000  H
  C36      1.0000 0.80146  0.19460  0.68548  Biso   1.000  C
  H24      1.0000 0.82270  0.16180  0.66880  Biso   1.000  H
  N1       1.0000 0.43924  0.38540  0.41206  Biso   1.000  N
  N2       1.0000 0.79631  0.03108  0.41731  Biso   1.000  N
  N3       1.0000 0.79971  0.25010  0.77150  Biso   1.000  N
  N4       1.0000 0.64818  0.21080  0.47294  Biso   1.000  N
  N5       1.0000 0.73866  0.17717  0.56336  Biso   1.000  N
  N6       1.0000 0.65333  0.26830  0.55991  Biso   1.000  N
  N7       1.0000 0.91294  0.34040  0.90776  Biso   1.000  N
  N8       1.0000 0.28001  0.68530  0.92195  Biso   1.000  N
  N9       1.0000 0.27483  0.47310  0.27201  Biso   1.000  N
  N10      1.0000 0.12603  0.50990  0.97341  Biso   1.000  N
  N11      1.0000 0.21081  0.54910  0.06505  Biso   1.000  N
  N12      1.0000 0.12185  0.46240  0.05918  Biso   1.000  N
  Ag3      1.0000 0.84389  0.95794  0.36796  Biso   1.000  Ag
  Ag4      1.0000 0.32301  0.75006  0.86755  Biso   1.000  Ag
  C37      1.0000 0.12426  0.75730  0.50269  Biso   1.000  C
  C38      1.0000 0.50246  0.88280  0.99685  Biso   1.000  C
  H25      1.0000 0.52180  0.88200  0.03690  Biso   1.000  H
  C39      1.0000 0.03329  0.81160  0.41154  Biso   1.000  C
  H26      1.0000 0.05470  0.78980  0.39040  Biso   1.000  H
  C40      1.0000 0.77767  0.13710  0.00952  Biso   1.000  C
  H27      1.0000 0.79850  0.13390  0.04950  Biso   1.000  H
  C41      1.0000 0.23574  0.56670  0.38882  Biso   1.000  C
  H28      1.0000 0.21400  0.56090  0.34900  Biso   1.000  H
  C42      1.0000 0.06003  0.80250  0.47056  Biso   1.000  C
  C43      1.0000 0.59731  0.96910  0.00160  Biso   1.000  C
  C44      1.0000 0.71965  0.15060  0.89287  Biso   1.000  C
  H29      1.0000 0.69930  0.15580  0.85300  Biso   1.000  H
  C45      1.0000 0.21001  0.72650  0.58794  Biso   1.000  C
  C46      1.0000 0.44336  0.84240  0.96570  Biso   1.000  C
  H30      1.0000 0.42320  0.81490  0.98580  Biso   1.000  H
  C47      1.0000 0.02662  0.83590  0.50049  Biso   1.000  C
  H31      1.0000 0.04390  0.83100  0.54030  Biso   1.000  H
  C48      1.0000 0.24322  0.73680  0.65183  Biso   1.000  C
  C49      1.0000 0.67820  0.95720  0.18188  Biso   1.000  C
  H32      1.0000 0.63410  0.93950  0.16200  Biso   1.000  H
  C50      1.0000 0.80610  0.00680  0.24296  Biso   1.000  C
  H33      1.0000 0.85030  0.02370  0.26380  Biso   1.000  H
  C51      1.0000 0.71544  0.10030  0.97815  Biso   1.000  C
  C52      1.0000 0.96710  0.87650  0.46970  Biso   1.000  C
  H34      1.0000 0.94490  0.89910  0.49000  Biso   1.000  H
  C53      1.0000 0.67955  0.00240  0.08870  Biso   1.000  C
  C54      1.0000 0.53272  0.92480  0.96747  Biso   1.000  C
  C55      1.0000 0.32586  0.54070  0.47462  Biso   1.000  C
  H35      1.0000 0.36760  0.51640  0.49500  Biso   1.000  H
  C56      1.0000 0.32700  0.70280  0.74480  Biso   1.000  C
  H36      1.0000 0.36550  0.67360  0.76740  Biso   1.000  H
  C57      1.0000 0.68608  0.10800  0.91861  Biso   1.000  C
  H37      1.0000 0.64440  0.08470  0.89650  Biso   1.000  H
  C58      1.0000 0.29855  0.58420  0.50551  Biso   1.000  C
  H38      1.0000 0.32090  0.58840  0.54540  Biso   1.000  H
  C59      1.0000 0.20600  0.67250  0.50584  Biso   1.000  C
  C60      1.0000 0.68210  0.05090  0.00720  Biso   1.000  C
  C61      1.0000 0.80779  0.17840  0.97975  Biso   1.000  C
  H39      1.0000 0.84930  0.20260  0.00080  Biso   1.000  H
  C62      1.0000 0.97327  0.85450  0.38447  Biso   1.000  C
  H40      1.0000 0.95590  0.86200  0.34480  Biso   1.000  H
  C63      1.0000 0.71077  0.94840  0.24078  Biso   1.000  C
  H41      1.0000 0.68780  0.92450  0.25990  Biso   1.000  H
  C64      1.0000 0.50208  0.92470  0.90778  Biso   1.000  C
  H42      1.0000 0.52080  0.95320  0.88690  Biso   1.000  H
  C65      1.0000 0.77737  0.01830  0.18389  Biso   1.000  C
  H43      1.0000 0.80140  0.04250  0.16580  Biso   1.000  H
  C66      1.0000 0.20463  0.61110  0.41562  Biso   1.000  C
  H44      1.0000 0.16260  0.63390  0.39420  Biso   1.000  H
  C67      1.0000 0.44299  0.88130  0.87979  Biso   1.000  C
  H45      1.0000 0.42310  0.88030  0.83970  Biso   1.000  H
  C68      1.0000 0.71120  0.99250  0.15223  Biso   1.000  C
  C69      1.0000 0.23634  0.62190  0.47507  Biso   1.000  C
  C70      1.0000 0.24520  0.79350  0.73782  Biso   1.000  C
  H46      1.0000 0.22660  0.82860  0.75540  Biso   1.000  H
  C71      1.0000 0.21564  0.78840  0.67849  Biso   1.000  C
  H47      1.0000 0.17780  0.81930  0.65680  Biso   1.000  H
  C72      1.0000 0.30146  0.69460  0.68548  Biso   1.000  C
  H48      1.0000 0.32270  0.66180  0.66880  Biso   1.000  H
  N13      1.0000 0.93924  0.88540  0.41206  Biso   1.000  N
  N14      1.0000 0.29631  0.53108  0.41731  Biso   1.000  N
  N15      1.0000 0.29971  0.75010  0.77150  Biso   1.000  N
  N16      1.0000 0.14818  0.71080  0.47294  Biso   1.000  N
  N17      1.0000 0.23866  0.67717  0.56336  Biso   1.000  N
  N18      1.0000 0.15333  0.76830  0.55991  Biso   1.000  N
  N19      1.0000 0.41294  0.84040  0.90776  Biso   1.000  N
  N20      1.0000 0.78001  0.18530  0.92195  Biso   1.000  N
  N21      1.0000 0.77483  0.97310  0.27201  Biso   1.000  N
  N22      1.0000 0.62603  0.00990  0.97341  Biso   1.000  N
  N23      1.0000 0.71081  0.04910  0.06505  Biso   1.000  N
  N24      1.0000 0.62185  0.96240  0.05918  Biso   1.000  N
  Ag5      1.0000 0.65611  0.45794  0.13204  Biso   1.000  Ag
  Ag6      1.0000 0.17699  0.25006  0.63245  Biso   1.000  Ag
  C73      1.0000 0.37574  0.25730  0.99731  Biso   1.000  C
  C74      1.0000 0.99754  0.38280  0.50315  Biso   1.000  C
  H49      1.0000 0.97820  0.38200  0.46310  Biso   1.000  H
  C75      1.0000 0.46671  0.31160  0.08846  Biso   1.000  C
  H50      1.0000 0.44530  0.28980  0.10960  Biso   1.000  H
  C76      1.0000 0.72233  0.63710  0.49048  Biso   1.000  C
  H51      1.0000 0.70150  0.63390  0.45050  Biso   1.000  H
  C77      1.0000 0.26426  0.06670  0.11118  Biso   1.000  C
  H52      1.0000 0.28600  0.06090  0.15100  Biso   1.000  H
  C78      1.0000 0.43997  0.30250  0.02944  Biso   1.000  C
  C79      1.0000 0.90269  0.46910  0.49840  Biso   1.000  C
  C80      1.0000 0.78035  0.65060  0.60713  Biso   1.000  C
  H53      1.0000 0.80070  0.65580  0.64700  Biso   1.000  H
  C81      1.0000 0.28999  0.22650  0.91206  Biso   1.000  C
  C82      1.0000 0.05664  0.34240  0.53430  Biso   1.000  C
  H54      1.0000 0.07680  0.31490  0.51420  Biso   1.000  H
  C83      1.0000 0.47338  0.33590  0.99951  Biso   1.000  C
  H55      1.0000 0.45610  0.33100  0.95970  Biso   1.000  H
  C84      1.0000 0.25678  0.23680  0.84817  Biso   1.000  C
  C85      1.0000 0.82180  0.45720  0.31812  Biso   1.000  C
  H56      1.0000 0.86590  0.43950  0.33800  Biso   1.000  H
  C86      1.0000 0.69390  0.50680  0.25704  Biso   1.000  C
  H57      1.0000 0.64970  0.52370  0.23620  Biso   1.000  H
  C87      1.0000 0.78456  0.60030  0.52185  Biso   1.000  C
  C88      1.0000 0.53290  0.37650  0.03030  Biso   1.000  C
  H58      1.0000 0.55510  0.39910  0.01000  Biso   1.000  H
  C89      1.0000 0.82045  0.50240  0.41130  Biso   1.000  C
  C90      1.0000 0.96728  0.42480  0.53253  Biso   1.000  C
  C91      1.0000 0.17414  0.04070  0.02538  Biso   1.000  C
  H59      1.0000 0.13240  0.01640  0.00500  Biso   1.000  H
  C92      1.0000 0.17300  0.20280  0.75520  Biso   1.000  C
  H60      1.0000 0.13450  0.17360  0.73260  Biso   1.000  H
  C93      1.0000 0.81392  0.60800  0.58139  Biso   1.000  C
  H61      1.0000 0.85560  0.58470  0.60350  Biso   1.000  H
  C94      1.0000 0.20145  0.08420  0.99449  Biso   1.000  C
  H62      1.0000 0.17910  0.08840  0.95460  Biso   1.000  H
  C95      1.0000 0.29400  0.17250  0.99416  Biso   1.000  C
  C96      1.0000 0.81790  0.55090  0.49280  Biso   1.000  C
  C97      1.0000 0.69221  0.67840  0.52025  Biso   1.000  C
  H63      1.0000 0.65070  0.70260  0.49920  Biso   1.000  H
  C98      1.0000 0.52673  0.35450  0.11553  Biso   1.000  C
  H64      1.0000 0.54410  0.36200  0.15520  Biso   1.000  H
  C99      1.0000 0.78923  0.44840  0.25922  Biso   1.000  C
  H65      1.0000 0.81220  0.42450  0.24010  Biso   1.000  H
  C100     1.0000 0.99792  0.42470  0.59222  Biso   1.000  C
  H66      1.0000 0.97920  0.45320  0.61310  Biso   1.000  H
  C101     1.0000 0.72263  0.51830  0.31611  Biso   1.000  C
  H67      1.0000 0.69860  0.54250  0.33420  Biso   1.000  H
  C102     1.0000 0.29537  0.11110  0.08438  Biso   1.000  C
  H68      1.0000 0.33740  0.13390  0.10580  Biso   1.000  H
  C103     1.0000 0.05701  0.38130  0.62021  Biso   1.000  C
  H69      1.0000 0.07690  0.38030  0.66030  Biso   1.000  H
  C104     1.0000 0.78880  0.49250  0.34777  Biso   1.000  C
  C105     1.0000 0.26366  0.12190  0.02493  Biso   1.000  C
  C106     1.0000 0.25480  0.29350  0.76218  Biso   1.000  C
  H70      1.0000 0.27340  0.32860  0.74460  Biso   1.000  H
  C107     1.0000 0.28436  0.28840  0.82151  Biso   1.000  C
  H71      1.0000 0.32220  0.31930  0.84320  Biso   1.000  H
  C108     1.0000 0.19854  0.19460  0.81452  Biso   1.000  C
  H72      1.0000 0.17730  0.16180  0.83120  Biso   1.000  H
  N25      1.0000 0.56076  0.38540  0.08794  Biso   1.000  N
  N26      1.0000 0.20369  0.03108  0.08269  Biso   1.000  N
  N27      1.0000 0.20029  0.25010  0.72850  Biso   1.000  N
  N28      1.0000 0.35182  0.21080  0.02706  Biso   1.000  N
  N29      1.0000 0.26134  0.17717  0.93664  Biso   1.000  N
  N30      1.0000 0.34667  0.26830  0.94009  Biso   1.000  N
  N31      1.0000 0.08706  0.34040  0.59224  Biso   1.000  N
  N32      1.0000 0.71999  0.68530  0.57805  Biso   1.000  N
  N33      1.0000 0.72517  0.47310  0.22799  Biso   1.000  N
  N34      1.0000 0.87397  0.50990  0.52659  Biso   1.000  N
  N35      1.0000 0.78919  0.54910  0.43495  Biso   1.000  N
  N36      1.0000 0.87815  0.46240  0.44082  Biso   1.000  N
  Ag7      1.0000 0.15611  0.95794  0.13204  Biso   1.000  Ag
  Ag8      1.0000 0.67699  0.75006  0.63245  Biso   1.000  Ag
  C109     1.0000 0.87574  0.75730  0.99731  Biso   1.000  C
  C110     1.0000 0.49754  0.88280  0.50315  Biso   1.000  C
  H73      1.0000 0.47820  0.88200  0.46310  Biso   1.000  H
  C111     1.0000 0.96671  0.81160  0.08846  Biso   1.000  C
  H74      1.0000 0.94530  0.78980  0.10960  Biso   1.000  H
  C112     1.0000 0.22233  0.13710  0.49048  Biso   1.000  C
  H75      1.0000 0.20150  0.13390  0.45050  Biso   1.000  H
  C113     1.0000 0.76426  0.56670  0.11118  Biso   1.000  C
  H76      1.0000 0.78600  0.56090  0.15100  Biso   1.000  H
  C114     1.0000 0.93997  0.80250  0.02944  Biso   1.000  C
  C115     1.0000 0.40269  0.96910  0.49840  Biso   1.000  C
  C116     1.0000 0.28035  0.15060  0.60713  Biso   1.000  C
  H77      1.0000 0.30070  0.15580  0.64700  Biso   1.000  H
  C117     1.0000 0.78999  0.72650  0.91206  Biso   1.000  C
  C118     1.0000 0.55664  0.84240  0.53430  Biso   1.000  C
  H78      1.0000 0.57680  0.81490  0.51420  Biso   1.000  H
  C119     1.0000 0.97338  0.83590  0.99951  Biso   1.000  C
  H79      1.0000 0.95610  0.83100  0.95970  Biso   1.000  H
  C120     1.0000 0.75678  0.73680  0.84817  Biso   1.000  C
  C121     1.0000 0.32180  0.95720  0.31812  Biso   1.000  C
  H80      1.0000 0.36590  0.93950  0.33800  Biso   1.000  H
  C122     1.0000 0.19390  0.00680  0.25704  Biso   1.000  C
  H81      1.0000 0.14970  0.02370  0.23620  Biso   1.000  H
  C123     1.0000 0.28456  0.10030  0.52185  Biso   1.000  C
  C124     1.0000 0.03290  0.87650  0.03030  Biso   1.000  C
  H82      1.0000 0.05510  0.89910  0.01000  Biso   1.000  H
  C125     1.0000 0.32045  0.00240  0.41130  Biso   1.000  C
  C126     1.0000 0.46728  0.92480  0.53253  Biso   1.000  C
  C127     1.0000 0.67414  0.54070  0.02538  Biso   1.000  C
  H83      1.0000 0.63240  0.51640  0.00500  Biso   1.000  H
  C128     1.0000 0.67300  0.70280  0.75520  Biso   1.000  C
  H84      1.0000 0.63450  0.67360  0.73260  Biso   1.000  H
  C129     1.0000 0.31392  0.10800  0.58139  Biso   1.000  C
  H85      1.0000 0.35560  0.08470  0.60350  Biso   1.000  H
  C130     1.0000 0.70145  0.58420  0.99449  Biso   1.000  C
  H86      1.0000 0.67910  0.58840  0.95460  Biso   1.000  H
  C131     1.0000 0.79400  0.67250  0.99416  Biso   1.000  C
  C132     1.0000 0.31790  0.05090  0.49280  Biso   1.000  C
  C133     1.0000 0.19221  0.17840  0.52025  Biso   1.000  C
  H87      1.0000 0.15070  0.20260  0.49920  Biso   1.000  H
  C134     1.0000 0.02673  0.85450  0.11553  Biso   1.000  C
  H88      1.0000 0.04410  0.86200  0.15520  Biso   1.000  H
  C135     1.0000 0.28923  0.94840  0.25922  Biso   1.000  C
  H89      1.0000 0.31220  0.92450  0.24010  Biso   1.000  H
  C136     1.0000 0.49792  0.92470  0.59222  Biso   1.000  C
  H90      1.0000 0.47920  0.95320  0.61310  Biso   1.000  H
  C137     1.0000 0.22263  0.01830  0.31611  Biso   1.000  C
  H91      1.0000 0.19860  0.04250  0.33420  Biso   1.000  H
  C138     1.0000 0.79537  0.61110  0.08438  Biso   1.000  C
  H92      1.0000 0.83740  0.63390  0.10580  Biso   1.000  H
  C139     1.0000 0.55701  0.88130  0.62021  Biso   1.000  C
  H93      1.0000 0.57690  0.88030  0.66030  Biso   1.000  H
  C140     1.0000 0.28880  0.99250  0.34777  Biso   1.000  C
  C141     1.0000 0.76366  0.62190  0.02493  Biso   1.000  C
  C142     1.0000 0.75480  0.79350  0.76218  Biso   1.000  C
  H94      1.0000 0.77340  0.82860  0.74460  Biso   1.000  H
  C143     1.0000 0.78436  0.78840  0.82151  Biso   1.000  C
  H95      1.0000 0.82220  0.81930  0.84320  Biso   1.000  H
  C144     1.0000 0.69854  0.69460  0.81452  Biso   1.000  C
  H96      1.0000 0.67730  0.66180  0.83120  Biso   1.000  H
  N37      1.0000 0.06076  0.88540  0.08794  Biso   1.000  N
  N38      1.0000 0.70369  0.53108  0.08269  Biso   1.000  N
  N39      1.0000 0.70029  0.75010  0.72850  Biso   1.000  N
  N40      1.0000 0.85182  0.71080  0.02706  Biso   1.000  N
  N41      1.0000 0.76134  0.67717  0.93664  Biso   1.000  N
  N42      1.0000 0.84667  0.76830  0.94009  Biso   1.000  N
  N43      1.0000 0.58706  0.84040  0.59224  Biso   1.000  N
  N44      1.0000 0.21999  0.18530  0.57805  Biso   1.000  N
  N45      1.0000 0.22517  0.97310  0.22799  Biso   1.000  N
  N46      1.0000 0.37397  0.00990  0.52659  Biso   1.000  N
  N47      1.0000 0.28919  0.04910  0.43495  Biso   1.000  N
  N48      1.0000 0.37815  0.96240  0.44082  Biso   1.000  N
  Ag9      1.0000 0.65611  0.54206  0.63204  Biso   1.000  Ag
  Ag10     1.0000 0.17699  0.74994  0.13245  Biso   1.000  Ag
  C145     1.0000 0.37574  0.74270  0.49731  Biso   1.000  C
  C146     1.0000 0.99754  0.61720  0.00315  Biso   1.000  C
  H97      1.0000 0.97820  0.61800  0.96310  Biso   1.000  H
  C147     1.0000 0.46671  0.68840  0.58846  Biso   1.000  C
  H98      1.0000 0.44530  0.71020  0.60960  Biso   1.000  H
  C148     1.0000 0.72233  0.36290  0.99048  Biso   1.000  C
  H99      1.0000 0.70150  0.36610  0.95050  Biso   1.000  H
  C149     1.0000 0.26426  0.93330  0.61118  Biso   1.000  C
  H100     1.0000 0.28600  0.93910  0.65100  Biso   1.000  H
  C150     1.0000 0.43997  0.69750  0.52944  Biso   1.000  C
  C151     1.0000 0.90269  0.53090  0.99840  Biso   1.000  C
  C152     1.0000 0.78035  0.34940  0.10713  Biso   1.000  C
  H101     1.0000 0.80070  0.34420  0.14700  Biso   1.000  H
  C153     1.0000 0.28999  0.77350  0.41206  Biso   1.000  C
  C154     1.0000 0.05664  0.65760  0.03430  Biso   1.000  C
  H102     1.0000 0.07680  0.68510  0.01420  Biso   1.000  H
  C155     1.0000 0.47338  0.66410  0.49951  Biso   1.000  C
  H103     1.0000 0.45610  0.66900  0.45970  Biso   1.000  H
  C156     1.0000 0.25678  0.76320  0.34817  Biso   1.000  C
  C157     1.0000 0.82180  0.54280  0.81812  Biso   1.000  C
  H104     1.0000 0.86590  0.56050  0.83800  Biso   1.000  H
  C158     1.0000 0.69390  0.49320  0.75704  Biso   1.000  C
  H105     1.0000 0.64970  0.47630  0.73620  Biso   1.000  H
  C159     1.0000 0.78456  0.39970  0.02185  Biso   1.000  C
  C160     1.0000 0.53290  0.62350  0.53030  Biso   1.000  C
  H106     1.0000 0.55510  0.60090  0.51000  Biso   1.000  H
  C161     1.0000 0.82045  0.49760  0.91130  Biso   1.000  C
  C162     1.0000 0.96728  0.57520  0.03253  Biso   1.000  C
  C163     1.0000 0.17414  0.95930  0.52538  Biso   1.000  C
  H107     1.0000 0.13240  0.98360  0.50500  Biso   1.000  H
  C164     1.0000 0.17300  0.79720  0.25520  Biso   1.000  C
  H108     1.0000 0.13450  0.82640  0.23260  Biso   1.000  H
  C165     1.0000 0.81392  0.39200  0.08139  Biso   1.000  C
  H109     1.0000 0.85560  0.41530  0.10350  Biso   1.000  H
  C166     1.0000 0.20145  0.91580  0.49449  Biso   1.000  C
  H110     1.0000 0.17910  0.91160  0.45460  Biso   1.000  H
  C167     1.0000 0.29400  0.82750  0.49416  Biso   1.000  C
  C168     1.0000 0.81790  0.44910  0.99280  Biso   1.000  C
  C169     1.0000 0.69221  0.32160  0.02025  Biso   1.000  C
  H111     1.0000 0.65070  0.29740  0.99920  Biso   1.000  H
  C170     1.0000 0.52673  0.64550  0.61553  Biso   1.000  C
  H112     1.0000 0.54410  0.63800  0.65520  Biso   1.000  H
  C171     1.0000 0.78923  0.55160  0.75922  Biso   1.000  C
  H113     1.0000 0.81220  0.57550  0.74010  Biso   1.000  H
  C172     1.0000 0.99792  0.57530  0.09222  Biso   1.000  C
  H114     1.0000 0.97920  0.54680  0.11310  Biso   1.000  H
  C173     1.0000 0.72263  0.48170  0.81611  Biso   1.000  C
  H115     1.0000 0.69860  0.45750  0.83420  Biso   1.000  H
  C174     1.0000 0.29537  0.88890  0.58438  Biso   1.000  C
  H116     1.0000 0.33740  0.86610  0.60580  Biso   1.000  H
  C175     1.0000 0.05701  0.61870  0.12021  Biso   1.000  C
  H117     1.0000 0.07690  0.61970  0.16030  Biso   1.000  H
  C176     1.0000 0.78880  0.50750  0.84777  Biso   1.000  C
  C177     1.0000 0.26366  0.87810  0.52493  Biso   1.000  C
  C178     1.0000 0.25480  0.70650  0.26218  Biso   1.000  C
  H118     1.0000 0.27340  0.67140  0.24460  Biso   1.000  H
  C179     1.0000 0.28436  0.71160  0.32151  Biso   1.000  C
  H119     1.0000 0.32220  0.68070  0.34320  Biso   1.000  H
  C180     1.0000 0.19854  0.80540  0.31452  Biso   1.000  C
  H120     1.0000 0.17730  0.83820  0.33120  Biso   1.000  H
  N49      1.0000 0.56076  0.61460  0.58794  Biso   1.000  N
  N50      1.0000 0.20369  0.96892  0.58269  Biso   1.000  N
  N51      1.0000 0.20029  0.74990  0.22850  Biso   1.000  N
  N52      1.0000 0.35182  0.78920  0.52706  Biso   1.000  N
  N53      1.0000 0.26134  0.82283  0.43664  Biso   1.000  N
  N54      1.0000 0.34667  0.73170  0.44009  Biso   1.000  N
  N55      1.0000 0.08706  0.65960  0.09224  Biso   1.000  N
  N56      1.0000 0.71999  0.31470  0.07805  Biso   1.000  N
  N57      1.0000 0.72517  0.52690  0.72799  Biso   1.000  N
  N58      1.0000 0.87397  0.49010  0.02659  Biso   1.000  N
  N59      1.0000 0.78919  0.45090  0.93495  Biso   1.000  N
  N60      1.0000 0.87815  0.53760  0.94082  Biso   1.000  N
  Ag11     1.0000 0.15611  0.04206  0.63204  Biso   1.000  Ag
  Ag12     1.0000 0.67699  0.24994  0.13245  Biso   1.000  Ag
  C181     1.0000 0.87574  0.24270  0.49731  Biso   1.000  C
  C182     1.0000 0.49754  0.11720  0.00315  Biso   1.000  C
  H121     1.0000 0.47820  0.11800  0.96310  Biso   1.000  H
  C183     1.0000 0.96671  0.18840  0.58846  Biso   1.000  C
  H122     1.0000 0.94530  0.21020  0.60960  Biso   1.000  H
  C184     1.0000 0.22233  0.86290  0.99048  Biso   1.000  C
  H123     1.0000 0.20150  0.86610  0.95050  Biso   1.000  H
  C185     1.0000 0.76426  0.43330  0.61118  Biso   1.000  C
  H124     1.0000 0.78600  0.43910  0.65100  Biso   1.000  H
  C186     1.0000 0.93997  0.19750  0.52944  Biso   1.000  C
  C187     1.0000 0.40269  0.03090  0.99840  Biso   1.000  C
  C188     1.0000 0.28035  0.84940  0.10713  Biso   1.000  C
  H125     1.0000 0.30070  0.84420  0.14700  Biso   1.000  H
  C189     1.0000 0.78999  0.27350  0.41206  Biso   1.000  C
  C190     1.0000 0.55664  0.15760  0.03430  Biso   1.000  C
  H126     1.0000 0.57680  0.18510  0.01420  Biso   1.000  H
  C191     1.0000 0.97338  0.16410  0.49951  Biso   1.000  C
  H127     1.0000 0.95610  0.16900  0.45970  Biso   1.000  H
  C192     1.0000 0.75678  0.26320  0.34817  Biso   1.000  C
  C193     1.0000 0.32180  0.04280  0.81812  Biso   1.000  C
  H128     1.0000 0.36590  0.06050  0.83800  Biso   1.000  H
  C194     1.0000 0.19390  0.99320  0.75704  Biso   1.000  C
  H129     1.0000 0.14970  0.97630  0.73620  Biso   1.000  H
  C195     1.0000 0.28456  0.89970  0.02185  Biso   1.000  C
  C196     1.0000 0.03290  0.12350  0.53030  Biso   1.000  C
  H130     1.0000 0.05510  0.10090  0.51000  Biso   1.000  H
  C197     1.0000 0.32045  0.99760  0.91130  Biso   1.000  C
  C198     1.0000 0.46728  0.07520  0.03253  Biso   1.000  C
  C199     1.0000 0.67414  0.45930  0.52538  Biso   1.000  C
  H131     1.0000 0.63240  0.48360  0.50500  Biso   1.000  H
  C200     1.0000 0.67300  0.29720  0.25520  Biso   1.000  C
  H132     1.0000 0.63450  0.32640  0.23260  Biso   1.000  H
  C201     1.0000 0.31392  0.89200  0.08139  Biso   1.000  C
  H133     1.0000 0.35560  0.91530  0.10350  Biso   1.000  H
  C202     1.0000 0.70145  0.41580  0.49449  Biso   1.000  C
  H134     1.0000 0.67910  0.41160  0.45460  Biso   1.000  H
  C203     1.0000 0.79400  0.32750  0.49416  Biso   1.000  C
  C204     1.0000 0.31790  0.94910  0.99280  Biso   1.000  C
  C205     1.0000 0.19221  0.82160  0.02025  Biso   1.000  C
  H135     1.0000 0.15070  0.79740  0.99920  Biso   1.000  H
  C206     1.0000 0.02673  0.14550  0.61553  Biso   1.000  C
  H136     1.0000 0.04410  0.13800  0.65520  Biso   1.000  H
  C207     1.0000 0.28923  0.05160  0.75922  Biso   1.000  C
  H137     1.0000 0.31220  0.07550  0.74010  Biso   1.000  H
  C208     1.0000 0.49792  0.07530  0.09222  Biso   1.000  C
  H138     1.0000 0.47920  0.04680  0.11310  Biso   1.000  H
  C209     1.0000 0.22263  0.98170  0.81611  Biso   1.000  C
  H139     1.0000 0.19860  0.95750  0.83420  Biso   1.000  H
  C210     1.0000 0.79537  0.38890  0.58438  Biso   1.000  C
  H140     1.0000 0.83740  0.36610  0.60580  Biso   1.000  H
  C211     1.0000 0.55701  0.11870  0.12021  Biso   1.000  C
  H141     1.0000 0.57690  0.11970  0.16030  Biso   1.000  H
  C212     1.0000 0.28880  0.00750  0.84777  Biso   1.000  C
  C213     1.0000 0.76366  0.37810  0.52493  Biso   1.000  C
  C214     1.0000 0.75480  0.20650  0.26218  Biso   1.000  C
  H142     1.0000 0.77340  0.17140  0.24460  Biso   1.000  H
  C215     1.0000 0.78436  0.21160  0.32151  Biso   1.000  C
  H143     1.0000 0.82220  0.18070  0.34320  Biso   1.000  H
  C216     1.0000 0.69854  0.30540  0.31452  Biso   1.000  C
  H144     1.0000 0.67730  0.33820  0.33120  Biso   1.000  H
  N61      1.0000 0.06076  0.11460  0.58794  Biso   1.000  N
  N62      1.0000 0.70369  0.46892  0.58269  Biso   1.000  N
  N63      1.0000 0.70029  0.24990  0.22850  Biso   1.000  N
  N64      1.0000 0.85182  0.28920  0.52706  Biso   1.000  N
  N65      1.0000 0.76134  0.32283  0.43664  Biso   1.000  N
  N66      1.0000 0.84667  0.23170  0.44009  Biso   1.000  N
  N67      1.0000 0.58706  0.15960  0.09224  Biso   1.000  N
  N68      1.0000 0.21999  0.81470  0.07805  Biso   1.000  N
  N69      1.0000 0.22517  0.02690  0.72799  Biso   1.000  N
  N70      1.0000 0.37397  0.99010  0.02659  Biso   1.000  N
  N71      1.0000 0.28919  0.95090  0.93495  Biso   1.000  N
  N72      1.0000 0.37815  0.03760  0.94082  Biso   1.000  N
  Ag13     1.0000 0.34389  0.54206  0.86796  Biso   1.000  Ag
  Ag14     1.0000 0.82301  0.74994  0.36755  Biso   1.000  Ag
  C217     1.0000 0.62426  0.74270  0.00269  Biso   1.000  C
  C218     1.0000 0.00246  0.61720  0.49685  Biso   1.000  C
  H145     1.0000 0.02180  0.61800  0.53690  Biso   1.000  H
  C219     1.0000 0.53329  0.68840  0.91154  Biso   1.000  C
  H146     1.0000 0.55470  0.71020  0.89040  Biso   1.000  H
  C220     1.0000 0.27767  0.36290  0.50952  Biso   1.000  C
  H147     1.0000 0.29850  0.36610  0.54950  Biso   1.000  H
  C221     1.0000 0.73574  0.93330  0.88882  Biso   1.000  C
  H148     1.0000 0.71400  0.93910  0.84900  Biso   1.000  H
  C222     1.0000 0.56003  0.69750  0.97056  Biso   1.000  C
  C223     1.0000 0.09731  0.53090  0.50160  Biso   1.000  C
  C224     1.0000 0.21965  0.34940  0.39287  Biso   1.000  C
  H149     1.0000 0.19930  0.34420  0.35300  Biso   1.000  H
  C225     1.0000 0.71001  0.77350  0.08794  Biso   1.000  C
  C226     1.0000 0.94336  0.65760  0.46570  Biso   1.000  C
  H150     1.0000 0.92320  0.68510  0.48580  Biso   1.000  H
  C227     1.0000 0.52662  0.66410  0.00049  Biso   1.000  C
  H151     1.0000 0.54390  0.66900  0.04030  Biso   1.000  H
  C228     1.0000 0.74322  0.76320  0.15183  Biso   1.000  C
  C229     1.0000 0.17820  0.54280  0.68188  Biso   1.000  C
  H152     1.0000 0.13410  0.56050  0.66200  Biso   1.000  H
  C230     1.0000 0.30610  0.49320  0.74296  Biso   1.000  C
  H153     1.0000 0.35030  0.47630  0.76380  Biso   1.000  H
  C231     1.0000 0.21544  0.39970  0.47815  Biso   1.000  C
  C232     1.0000 0.46710  0.62350  0.96970  Biso   1.000  C
  H154     1.0000 0.44490  0.60090  0.99000  Biso   1.000  H
  C233     1.0000 0.17955  0.49760  0.58870  Biso   1.000  C
  C234     1.0000 0.03272  0.57520  0.46747  Biso   1.000  C
  C235     1.0000 0.82586  0.95930  0.97462  Biso   1.000  C
  H155     1.0000 0.86760  0.98360  0.99500  Biso   1.000  H
  C236     1.0000 0.82700  0.79720  0.24480  Biso   1.000  C
  H156     1.0000 0.86550  0.82640  0.26740  Biso   1.000  H
  C237     1.0000 0.18608  0.39200  0.41861  Biso   1.000  C
  H157     1.0000 0.14440  0.41530  0.39650  Biso   1.000  H
  C238     1.0000 0.79855  0.91580  0.00551  Biso   1.000  C
  H158     1.0000 0.82090  0.91160  0.04540  Biso   1.000  H
  C239     1.0000 0.70600  0.82750  0.00584  Biso   1.000  C
  C240     1.0000 0.18210  0.44910  0.50720  Biso   1.000  C
  C241     1.0000 0.30779  0.32160  0.47975  Biso   1.000  C
  H159     1.0000 0.34930  0.29740  0.50080  Biso   1.000  H
  C242     1.0000 0.47327  0.64550  0.88447  Biso   1.000  C
  H160     1.0000 0.45590  0.63800  0.84480  Biso   1.000  H
  C243     1.0000 0.21077  0.55160  0.74078  Biso   1.000  C
  H161     1.0000 0.18780  0.57550  0.75990  Biso   1.000  H
  C244     1.0000 0.00208  0.57530  0.40778  Biso   1.000  C
  H162     1.0000 0.02080  0.54680  0.38690  Biso   1.000  H
  C245     1.0000 0.27737  0.48170  0.68389  Biso   1.000  C
  H163     1.0000 0.30140  0.45750  0.66580  Biso   1.000  H
  C246     1.0000 0.70463  0.88890  0.91562  Biso   1.000  C
  H164     1.0000 0.66260  0.86610  0.89420  Biso   1.000  H
  C247     1.0000 0.94299  0.61870  0.37979  Biso   1.000  C
  H165     1.0000 0.92310  0.61970  0.33970  Biso   1.000  H
  C248     1.0000 0.21120  0.50750  0.65223  Biso   1.000  C
  C249     1.0000 0.73634  0.87810  0.97507  Biso   1.000  C
  C250     1.0000 0.74520  0.70650  0.23782  Biso   1.000  C
  H166     1.0000 0.72660  0.67140  0.25540  Biso   1.000  H
  C251     1.0000 0.71564  0.71160  0.17849  Biso   1.000  C
  H167     1.0000 0.67780  0.68070  0.15680  Biso   1.000  H
  C252     1.0000 0.80146  0.80540  0.18548  Biso   1.000  C
  H168     1.0000 0.82270  0.83820  0.16880  Biso   1.000  H
  N73      1.0000 0.43924  0.61460  0.91206  Biso   1.000  N
  N74      1.0000 0.79631  0.96892  0.91731  Biso   1.000  N
  N75      1.0000 0.79971  0.74990  0.27150  Biso   1.000  N
  N76      1.0000 0.64818  0.78920  0.97294  Biso   1.000  N
  N77      1.0000 0.73866  0.82283  0.06336  Biso   1.000  N
  N78      1.0000 0.65333  0.73170  0.05991  Biso   1.000  N
  N79      1.0000 0.91294  0.65960  0.40776  Biso   1.000  N
  N80      1.0000 0.28001  0.31470  0.42195  Biso   1.000  N
  N81      1.0000 0.27483  0.52690  0.77201  Biso   1.000  N
  N82      1.0000 0.12603  0.49010  0.47341  Biso   1.000  N
  N83      1.0000 0.21081  0.45090  0.56505  Biso   1.000  N
  N84      1.0000 0.12185  0.53760  0.55918  Biso   1.000  N
  Ag15     1.0000 0.84389  0.04206  0.86796  Biso   1.000  Ag
  Ag16     1.0000 0.32301  0.24994  0.36755  Biso   1.000  Ag
  C253     1.0000 0.12426  0.24270  0.00269  Biso   1.000  C
  C254     1.0000 0.50246  0.11720  0.49685  Biso   1.000  C
  H169     1.0000 0.52180  0.11800  0.53690  Biso   1.000  H
  C255     1.0000 0.03329  0.18840  0.91154  Biso   1.000  C
  H170     1.0000 0.05470  0.21020  0.89040  Biso   1.000  H
  C256     1.0000 0.77767  0.86290  0.50952  Biso   1.000  C
  H171     1.0000 0.79850  0.86610  0.54950  Biso   1.000  H
  C257     1.0000 0.23574  0.43330  0.88882  Biso   1.000  C
  H172     1.0000 0.21400  0.43910  0.84900  Biso   1.000  H
  C258     1.0000 0.06003  0.19750  0.97056  Biso   1.000  C
  C259     1.0000 0.59731  0.03090  0.50160  Biso   1.000  C
  C260     1.0000 0.71965  0.84940  0.39287  Biso   1.000  C
  H173     1.0000 0.69930  0.84420  0.35300  Biso   1.000  H
  C261     1.0000 0.21001  0.27350  0.08794  Biso   1.000  C
  C262     1.0000 0.44336  0.15760  0.46570  Biso   1.000  C
  H174     1.0000 0.42320  0.18510  0.48580  Biso   1.000  H
  C263     1.0000 0.02662  0.16410  0.00049  Biso   1.000  C
  H175     1.0000 0.04390  0.16900  0.04030  Biso   1.000  H
  C264     1.0000 0.24322  0.26320  0.15183  Biso   1.000  C
  C265     1.0000 0.67820  0.04280  0.68188  Biso   1.000  C
  H176     1.0000 0.63410  0.06050  0.66200  Biso   1.000  H
  C266     1.0000 0.80610  0.99320  0.74296  Biso   1.000  C
  H177     1.0000 0.85030  0.97630  0.76380  Biso   1.000  H
  C267     1.0000 0.71544  0.89970  0.47815  Biso   1.000  C
  C268     1.0000 0.96710  0.12350  0.96970  Biso   1.000  C
  H178     1.0000 0.94490  0.10090  0.99000  Biso   1.000  H
  C269     1.0000 0.67955  0.99760  0.58870  Biso   1.000  C
  C270     1.0000 0.53272  0.07520  0.46747  Biso   1.000  C
  C271     1.0000 0.32586  0.45930  0.97462  Biso   1.000  C
  H179     1.0000 0.36760  0.48360  0.99500  Biso   1.000  H
  C272     1.0000 0.32700  0.29720  0.24480  Biso   1.000  C
  H180     1.0000 0.36550  0.32640  0.26740  Biso   1.000  H
  C273     1.0000 0.68608  0.89200  0.41861  Biso   1.000  C
  H181     1.0000 0.64440  0.91530  0.39650  Biso   1.000  H
  C274     1.0000 0.29855  0.41580  0.00551  Biso   1.000  C
  H182     1.0000 0.32090  0.41160  0.04540  Biso   1.000  H
  C275     1.0000 0.20600  0.32750  0.00584  Biso   1.000  C
  C276     1.0000 0.68210  0.94910  0.50720  Biso   1.000  C
  C277     1.0000 0.80779  0.82160  0.47975  Biso   1.000  C
  H183     1.0000 0.84930  0.79740  0.50080  Biso   1.000  H
  C278     1.0000 0.97327  0.14550  0.88447  Biso   1.000  C
  H184     1.0000 0.95590  0.13800  0.84480  Biso   1.000  H
  C279     1.0000 0.71077  0.05160  0.74078  Biso   1.000  C
  H185     1.0000 0.68780  0.07550  0.75990  Biso   1.000  H
  C280     1.0000 0.50208  0.07530  0.40778  Biso   1.000  C
  H186     1.0000 0.52080  0.04680  0.38690  Biso   1.000  H
  C281     1.0000 0.77737  0.98170  0.68389  Biso   1.000  C
  H187     1.0000 0.80140  0.95750  0.66580  Biso   1.000  H
  C282     1.0000 0.20463  0.38890  0.91562  Biso   1.000  C
  H188     1.0000 0.16260  0.36610  0.89420  Biso   1.000  H
  C283     1.0000 0.44299  0.11870  0.37979  Biso   1.000  C
  H189     1.0000 0.42310  0.11970  0.33970  Biso   1.000  H
  C284     1.0000 0.71120  0.00750  0.65223  Biso   1.000  C
  C285     1.0000 0.23634  0.37810  0.97507  Biso   1.000  C
  C286     1.0000 0.24520  0.20650  0.23782  Biso   1.000  C
  H190     1.0000 0.22660  0.17140  0.25540  Biso   1.000  H
  C287     1.0000 0.21564  0.21160  0.17849  Biso   1.000  C
  H191     1.0000 0.17780  0.18070  0.15680  Biso   1.000  H
  C288     1.0000 0.30146  0.30540  0.18548  Biso   1.000  C
  H192     1.0000 0.32270  0.33820  0.16880  Biso   1.000  H
  N85      1.0000 0.93924  0.11460  0.91206  Biso   1.000  N
  N86      1.0000 0.29631  0.46892  0.91731  Biso   1.000  N
  N87      1.0000 0.29971  0.24990  0.27150  Biso   1.000  N
  N88      1.0000 0.14818  0.28920  0.97294  Biso   1.000  N
  N89      1.0000 0.23866  0.32283  0.06336  Biso   1.000  N
  N90      1.0000 0.15333  0.23170  0.05991  Biso   1.000  N
  N91      1.0000 0.41294  0.15960  0.40776  Biso   1.000  N
  N92      1.0000 0.78001  0.81470  0.42195  Biso   1.000  N
  N93      1.0000 0.77483  0.02690  0.77201  Biso   1.000  N
  N94      1.0000 0.62603  0.99010  0.47341  Biso   1.000  N
  N95      1.0000 0.71081  0.95090  0.56505  Biso   1.000  N
  N96      1.0000 0.62185  0.03760  0.55918  Biso   1.000  N
