data_image0
_cell_length_a       22.0765
_cell_length_b       16.3158
_cell_length_c       25.68
_cell_angle_alpha    90
_cell_angle_beta     115.416
_cell_angle_gamma    90

_symmetry_space_group_name_H-M    "P 1"
_symmetry_int_tables_number       1

loop_
  _symmetry_equiv_pos_as_xyz
  'x, y, z'

loop_
  _atom_site_label
  _atom_site_occupancy
  _atom_site_fract_x
  _atom_site_fract_y
  _atom_site_fract_z
  _atom_site_thermal_displace_type
  _atom_site_B_iso_or_equiv
  _atom_site_type_symbol
  Ag1      1.0000 0.82280  0.24959  0.86741  Biso   1.000  Ag
  Ag2      1.0000 0.34348  0.45725  0.36767  Biso   1.000  Ag
  C1       1.0000 0.00206  0.38270  0.99671  Biso   1.000  C
  H1       1.0000 0.02150  0.38180  0.03680  Biso   1.000  H
  C2       1.0000 0.03290  0.81200  0.41119  Biso   1.000  C
  H2       1.0000 0.05440  0.79050  0.39000  Biso   1.000  H
  C3       1.0000 0.12390  0.75750  0.50268  Biso   1.000  C
  C4       1.0000 0.05978  0.80210  0.47046  Biso   1.000  C
  C5       1.0000 0.27750  0.63690  0.00955  Biso   1.000  C
  H3       1.0000 0.29830  0.63380  0.04960  Biso   1.000  H
  C6       1.0000 0.23588  0.56670  0.38856  Biso   1.000  C
  H4       1.0000 0.21400  0.56040  0.34880  Biso   1.000  H
  C7       1.0000 0.21950  0.65050  0.89247  Biso   1.000  C
  H5       1.0000 0.19930  0.65530  0.85250  Biso   1.000  H
  C8       1.0000 0.94266  0.34240  0.96551  Biso   1.000  C
  H6       1.0000 0.92230  0.31520  0.98560  Biso   1.000  H
  C9       1.0000 0.09703  0.46860  0.00150  Biso   1.000  C
  C10      1.0000 0.02603  0.83620  0.50012  Biso   1.000  C
  H7       1.0000 0.04360  0.83200  0.54000  Biso   1.000  H
  C11      1.0000 0.20969  0.72630  0.58792  Biso   1.000  C
  C12      1.0000 0.96628  0.87610  0.46948  Biso   1.000  C
  H8       1.0000 0.94370  0.89790  0.48960  Biso   1.000  H
  C13      1.0000 0.03248  0.42470  0.96740  Biso   1.000  C
  C14      1.0000 0.30580  0.50690  0.24289  Biso   1.000  C
  H9       1.0000 0.34980  0.52430  0.26380  Biso   1.000  H
  C15      1.0000 0.21522  0.59980  0.97813  Biso   1.000  C
  C16      1.0000 0.17740  0.45670  0.18173  Biso   1.000  C
  H10      1.0000 0.13340  0.43860  0.16180  Biso   1.000  H
  C17      1.0000 0.00162  0.42450  0.90749  Biso   1.000  C
  H11      1.0000 0.02020  0.45320  0.88660  Biso   1.000  H
  C18      1.0000 0.32611  0.54060  0.47437  Biso   1.000  C
  H12      1.0000 0.36780  0.51640  0.49480  Biso   1.000  H
  C19      1.0000 0.24281  0.73610  0.65192  Biso   1.000  C
  C20      1.0000 0.32660  0.70250  0.74469  Biso   1.000  C
  H13      1.0000 0.36530  0.67340  0.76720  Biso   1.000  H
  C21      1.0000 0.30760  0.67870  0.97963  Biso   1.000  C
  H14      1.0000 0.34900  0.70340  0.00060  Biso   1.000  H
  C22      1.0000 0.29848  0.58440  0.50512  Biso   1.000  C
  H15      1.0000 0.32090  0.58860  0.54500  Biso   1.000  H
  C23      1.0000 0.97348  0.85450  0.38442  Biso   1.000  C
  H16      1.0000 0.95640  0.86250  0.34480  Biso   1.000  H
  C24      1.0000 0.17909  0.50210  0.08844  Biso   1.000  C
  C25      1.0000 0.20600  0.67270  0.50572  Biso   1.000  C
  C26      1.0000 0.94273  0.38100  0.87967  Biso   1.000  C
  H17      1.0000 0.92300  0.37980  0.83960  Biso   1.000  H
  C27      1.0000 0.27680  0.51770  0.18374  Biso   1.000  C
  H18      1.0000 0.30100  0.54120  0.16550  Biso   1.000  H
  C28      1.0000 0.18585  0.60800  0.91853  Biso   1.000  C
  H19      1.0000 0.14400  0.58510  0.89640  Biso   1.000  H
  C29      1.0000 0.18198  0.55040  0.00718  Biso   1.000  C
  C30      1.0000 0.21020  0.44820  0.24074  Biso   1.000  C
  H20      1.0000 0.18730  0.42450  0.26000  Biso   1.000  H
  C31      1.0000 0.23636  0.62200  0.47502  Biso   1.000  C
  C32      1.0000 0.21073  0.49280  0.15211  Biso   1.000  C
  C33      1.0000 0.20471  0.61170  0.41534  Biso   1.000  C
  H21      1.0000 0.16290  0.63510  0.39380  Biso   1.000  H
  C34      1.0000 0.21510  0.78780  0.67851  Biso   1.000  C
  H22      1.0000 0.17730  0.81880  0.65670  Biso   1.000  H
  C35      1.0000 0.24440  0.79290  0.73784  Biso   1.000  C
  H23      1.0000 0.22550  0.82800  0.75530  Biso   1.000  H
  C36      1.0000 0.30120  0.69450  0.68564  Biso   1.000  C
  H24      1.0000 0.32270  0.66210  0.66890  Biso   1.000  H
  N1       1.0000 0.91234  0.34010  0.90746  Biso   1.000  N
  N2       1.0000 0.27410  0.47260  0.27180  Biso   1.000  N
  N3       1.0000 0.27963  0.68523  0.92160  Biso   1.000  N
  N4       1.0000 0.12583  0.50940  0.97338  Biso   1.000  N
  N5       1.0000 0.12131  0.46200  0.05897  Biso   1.000  N
  N6       1.0000 0.21046  0.54880  0.06488  Biso   1.000  N
  N7       1.0000 0.29632  0.53110  0.41691  Biso   1.000  N
  N8       1.0000 0.93886  0.88510  0.41184  Biso   1.000  N
  N9       1.0000 0.29904  0.74940  0.77171  Biso   1.000  N
  N10      1.0000 0.14806  0.71050  0.47292  Biso   1.000  N
  N11      1.0000 0.15314  0.76830  0.55984  Biso   1.000  N
  N12      1.0000 0.23848  0.67730  0.56333  Biso   1.000  N
  Ag3      1.0000 0.32280  0.74959  0.86741  Biso   1.000  Ag
  Ag4      1.0000 0.84348  0.95725  0.36767  Biso   1.000  Ag
  C37      1.0000 0.50206  0.88270  0.99671  Biso   1.000  C
  H25      1.0000 0.52150  0.88180  0.03680  Biso   1.000  H
  C38      1.0000 0.53290  0.31200  0.41119  Biso   1.000  C
  H26      1.0000 0.55440  0.29050  0.39000  Biso   1.000  H
  C39      1.0000 0.62390  0.25750  0.50268  Biso   1.000  C
  C40      1.0000 0.55978  0.30210  0.47046  Biso   1.000  C
  C41      1.0000 0.77750  0.13690  0.00955  Biso   1.000  C
  H27      1.0000 0.79830  0.13380  0.04960  Biso   1.000  H
  C42      1.0000 0.73588  0.06670  0.38856  Biso   1.000  C
  H28      1.0000 0.71400  0.06040  0.34880  Biso   1.000  H
  C43      1.0000 0.71950  0.15050  0.89247  Biso   1.000  C
  H29      1.0000 0.69930  0.15530  0.85250  Biso   1.000  H
  C44      1.0000 0.44266  0.84240  0.96551  Biso   1.000  C
  H30      1.0000 0.42230  0.81520  0.98560  Biso   1.000  H
  C45      1.0000 0.59703  0.96860  0.00150  Biso   1.000  C
  C46      1.0000 0.52603  0.33620  0.50012  Biso   1.000  C
  H31      1.0000 0.54360  0.33200  0.54000  Biso   1.000  H
  C47      1.0000 0.70969  0.22630  0.58792  Biso   1.000  C
  C48      1.0000 0.46628  0.37610  0.46948  Biso   1.000  C
  H32      1.0000 0.44370  0.39790  0.48960  Biso   1.000  H
  C49      1.0000 0.53248  0.92470  0.96740  Biso   1.000  C
  C50      1.0000 0.80580  0.00690  0.24289  Biso   1.000  C
  H33      1.0000 0.84980  0.02430  0.26380  Biso   1.000  H
  C51      1.0000 0.71522  0.09980  0.97813  Biso   1.000  C
  C52      1.0000 0.67740  0.95670  0.18173  Biso   1.000  C
  H34      1.0000 0.63340  0.93860  0.16180  Biso   1.000  H
  C53      1.0000 0.50162  0.92450  0.90749  Biso   1.000  C
  H35      1.0000 0.52020  0.95320  0.88660  Biso   1.000  H
  C54      1.0000 0.82611  0.04060  0.47437  Biso   1.000  C
  H36      1.0000 0.86780  0.01640  0.49480  Biso   1.000  H
  C55      1.0000 0.74281  0.23610  0.65192  Biso   1.000  C
  C56      1.0000 0.82660  0.20250  0.74469  Biso   1.000  C
  H37      1.0000 0.86530  0.17340  0.76720  Biso   1.000  H
  C57      1.0000 0.80760  0.17870  0.97963  Biso   1.000  C
  H38      1.0000 0.84900  0.20340  0.00060  Biso   1.000  H
  C58      1.0000 0.79848  0.08440  0.50512  Biso   1.000  C
  H39      1.0000 0.82090  0.08860  0.54500  Biso   1.000  H
  C59      1.0000 0.47348  0.35450  0.38442  Biso   1.000  C
  H40      1.0000 0.45640  0.36250  0.34480  Biso   1.000  H
  C60      1.0000 0.67909  0.00210  0.08844  Biso   1.000  C
  C61      1.0000 0.70600  0.17270  0.50572  Biso   1.000  C
  C62      1.0000 0.44273  0.88100  0.87967  Biso   1.000  C
  H41      1.0000 0.42300  0.87980  0.83960  Biso   1.000  H
  C63      1.0000 0.77680  0.01770  0.18374  Biso   1.000  C
  H42      1.0000 0.80100  0.04120  0.16550  Biso   1.000  H
  C64      1.0000 0.68585  0.10800  0.91853  Biso   1.000  C
  H43      1.0000 0.64400  0.08510  0.89640  Biso   1.000  H
  C65      1.0000 0.68198  0.05040  0.00718  Biso   1.000  C
  C66      1.0000 0.71020  0.94820  0.24074  Biso   1.000  C
  H44      1.0000 0.68730  0.92450  0.26000  Biso   1.000  H
  C67      1.0000 0.73636  0.12200  0.47502  Biso   1.000  C
  C68      1.0000 0.71073  0.99280  0.15211  Biso   1.000  C
  C69      1.0000 0.70471  0.11170  0.41534  Biso   1.000  C
  H45      1.0000 0.66290  0.13510  0.39380  Biso   1.000  H
  C70      1.0000 0.71510  0.28780  0.67851  Biso   1.000  C
  H46      1.0000 0.67730  0.31880  0.65670  Biso   1.000  H
  C71      1.0000 0.74440  0.29290  0.73784  Biso   1.000  C
  H47      1.0000 0.72550  0.32800  0.75530  Biso   1.000  H
  C72      1.0000 0.80120  0.19450  0.68564  Biso   1.000  C
  H48      1.0000 0.82270  0.16210  0.66890  Biso   1.000  H
  N13      1.0000 0.41234  0.84010  0.90746  Biso   1.000  N
  N14      1.0000 0.77410  0.97260  0.27180  Biso   1.000  N
  N15      1.0000 0.77963  0.18523  0.92160  Biso   1.000  N
  N16      1.0000 0.62583  0.00940  0.97338  Biso   1.000  N
  N17      1.0000 0.62131  0.96200  0.05897  Biso   1.000  N
  N18      1.0000 0.71046  0.04880  0.06488  Biso   1.000  N
  N19      1.0000 0.79632  0.03110  0.41691  Biso   1.000  N
  N20      1.0000 0.43886  0.38510  0.41184  Biso   1.000  N
  N21      1.0000 0.79904  0.24940  0.77171  Biso   1.000  N
  N22      1.0000 0.64806  0.21050  0.47292  Biso   1.000  N
  N23      1.0000 0.65314  0.26830  0.55984  Biso   1.000  N
  N24      1.0000 0.73848  0.17730  0.56333  Biso   1.000  N
  Ag5      1.0000 0.17720  0.24959  0.63259  Biso   1.000  Ag
  Ag6      1.0000 0.65652  0.45725  0.13233  Biso   1.000  Ag
  C73      1.0000 0.99794  0.38270  0.50329  Biso   1.000  C
  H49      1.0000 0.97850  0.38180  0.46320  Biso   1.000  H
  C74      1.0000 0.96710  0.81200  0.08881  Biso   1.000  C
  H50      1.0000 0.94560  0.79050  0.11000  Biso   1.000  H
  C75      1.0000 0.87610  0.75750  0.99732  Biso   1.000  C
  C76      1.0000 0.94022  0.80210  0.02954  Biso   1.000  C
  C77      1.0000 0.72250  0.63690  0.49045  Biso   1.000  C
  H51      1.0000 0.70170  0.63380  0.45040  Biso   1.000  H
  C78      1.0000 0.76412  0.56670  0.11144  Biso   1.000  C
  H52      1.0000 0.78600  0.56040  0.15120  Biso   1.000  H
  C79      1.0000 0.78050  0.65050  0.60753  Biso   1.000  C
  H53      1.0000 0.80070  0.65530  0.64750  Biso   1.000  H
  C80      1.0000 0.05734  0.34240  0.53449  Biso   1.000  C
  H54      1.0000 0.07770  0.31520  0.51440  Biso   1.000  H
  C81      1.0000 0.90297  0.46860  0.49850  Biso   1.000  C
  C82      1.0000 0.97397  0.83620  0.99988  Biso   1.000  C
  H55      1.0000 0.95640  0.83200  0.96000  Biso   1.000  H
  C83      1.0000 0.79031  0.72630  0.91208  Biso   1.000  C
  C84      1.0000 0.03372  0.87610  0.03052  Biso   1.000  C
  H56      1.0000 0.05630  0.89790  0.01040  Biso   1.000  H
  C85      1.0000 0.96752  0.42470  0.53260  Biso   1.000  C
  C86      1.0000 0.69420  0.50690  0.25711  Biso   1.000  C
  H57      1.0000 0.65020  0.52430  0.23620  Biso   1.000  H
  C87      1.0000 0.78478  0.59980  0.52187  Biso   1.000  C
  C88      1.0000 0.82260  0.45670  0.31827  Biso   1.000  C
  H58      1.0000 0.86660  0.43860  0.33820  Biso   1.000  H
  C89      1.0000 0.99838  0.42450  0.59251  Biso   1.000  C
  H59      1.0000 0.97980  0.45320  0.61340  Biso   1.000  H
  C90      1.0000 0.67389  0.54060  0.02563  Biso   1.000  C
  H60      1.0000 0.63220  0.51640  0.00520  Biso   1.000  H
  C91      1.0000 0.75719  0.73610  0.84808  Biso   1.000  C
  C92      1.0000 0.67340  0.70250  0.75531  Biso   1.000  C
  H61      1.0000 0.63470  0.67340  0.73280  Biso   1.000  H
  C93      1.0000 0.69240  0.67870  0.52037  Biso   1.000  C
  H62      1.0000 0.65100  0.70340  0.49940  Biso   1.000  H
  C94      1.0000 0.70152  0.58440  0.99488  Biso   1.000  C
  H63      1.0000 0.67910  0.58860  0.95500  Biso   1.000  H
  C95      1.0000 0.02652  0.85450  0.11558  Biso   1.000  C
  H64      1.0000 0.04360  0.86250  0.15520  Biso   1.000  H
  C96      1.0000 0.82091  0.50210  0.41156  Biso   1.000  C
  C97      1.0000 0.79400  0.67270  0.99428  Biso   1.000  C
  C98      1.0000 0.05727  0.38100  0.62033  Biso   1.000  C
  H65      1.0000 0.07700  0.37980  0.66040  Biso   1.000  H
  C99      1.0000 0.72320  0.51770  0.31626  Biso   1.000  C
  H66      1.0000 0.69900  0.54120  0.33450  Biso   1.000  H
  C100     1.0000 0.81415  0.60800  0.58147  Biso   1.000  C
  H67      1.0000 0.85600  0.58510  0.60360  Biso   1.000  H
  C101     1.0000 0.81802  0.55040  0.49282  Biso   1.000  C
  C102     1.0000 0.78980  0.44820  0.25926  Biso   1.000  C
  H68      1.0000 0.81270  0.42450  0.24000  Biso   1.000  H
  C103     1.0000 0.76364  0.62200  0.02498  Biso   1.000  C
  C104     1.0000 0.78927  0.49280  0.34789  Biso   1.000  C
  C105     1.0000 0.79529  0.61170  0.08466  Biso   1.000  C
  H69      1.0000 0.83710  0.63510  0.10620  Biso   1.000  H
  C106     1.0000 0.78490  0.78780  0.82149  Biso   1.000  C
  H70      1.0000 0.82270  0.81880  0.84330  Biso   1.000  H
  C107     1.0000 0.75560  0.79290  0.76216  Biso   1.000  C
  H71      1.0000 0.77450  0.82800  0.74470  Biso   1.000  H
  C108     1.0000 0.69880  0.69450  0.81436  Biso   1.000  C
  H72      1.0000 0.67730  0.66210  0.83110  Biso   1.000  H
  N25      1.0000 0.08766  0.34010  0.59254  Biso   1.000  N
  N26      1.0000 0.72590  0.47260  0.22820  Biso   1.000  N
  N27      1.0000 0.72037  0.68523  0.57840  Biso   1.000  N
  N28      1.0000 0.87417  0.50940  0.52662  Biso   1.000  N
  N29      1.0000 0.87869  0.46200  0.44103  Biso   1.000  N
  N30      1.0000 0.78954  0.54880  0.43512  Biso   1.000  N
  N31      1.0000 0.70368  0.53110  0.08309  Biso   1.000  N
  N32      1.0000 0.06114  0.88510  0.08816  Biso   1.000  N
  N33      1.0000 0.70096  0.74940  0.72829  Biso   1.000  N
  N34      1.0000 0.85194  0.71050  0.02708  Biso   1.000  N
  N35      1.0000 0.84686  0.76830  0.94016  Biso   1.000  N
  N36      1.0000 0.76152  0.67730  0.93667  Biso   1.000  N
  Ag7      1.0000 0.67720  0.74959  0.63259  Biso   1.000  Ag
  Ag8      1.0000 0.15652  0.95725  0.13233  Biso   1.000  Ag
  C109     1.0000 0.49794  0.88270  0.50329  Biso   1.000  C
  H73      1.0000 0.47850  0.88180  0.46320  Biso   1.000  H
  C110     1.0000 0.46710  0.31200  0.08881  Biso   1.000  C
  H74      1.0000 0.44560  0.29050  0.11000  Biso   1.000  H
  C111     1.0000 0.37610  0.25750  0.99732  Biso   1.000  C
  C112     1.0000 0.44022  0.30210  0.02954  Biso   1.000  C
  C113     1.0000 0.22250  0.13690  0.49045  Biso   1.000  C
  H75      1.0000 0.20170  0.13380  0.45040  Biso   1.000  H
  C114     1.0000 0.26412  0.06670  0.11144  Biso   1.000  C
  H76      1.0000 0.28600  0.06040  0.15120  Biso   1.000  H
  C115     1.0000 0.28050  0.15050  0.60753  Biso   1.000  C
  H77      1.0000 0.30070  0.15530  0.64750  Biso   1.000  H
  C116     1.0000 0.55734  0.84240  0.53449  Biso   1.000  C
  H78      1.0000 0.57770  0.81520  0.51440  Biso   1.000  H
  C117     1.0000 0.40297  0.96860  0.49850  Biso   1.000  C
  C118     1.0000 0.47397  0.33620  0.99988  Biso   1.000  C
  H79      1.0000 0.45640  0.33200  0.96000  Biso   1.000  H
  C119     1.0000 0.29031  0.22630  0.91208  Biso   1.000  C
  C120     1.0000 0.53372  0.37610  0.03052  Biso   1.000  C
  H80      1.0000 0.55630  0.39790  0.01040  Biso   1.000  H
  C121     1.0000 0.46752  0.92470  0.53260  Biso   1.000  C
  C122     1.0000 0.19420  0.00690  0.25711  Biso   1.000  C
  H81      1.0000 0.15020  0.02430  0.23620  Biso   1.000  H
  C123     1.0000 0.28478  0.09980  0.52187  Biso   1.000  C
  C124     1.0000 0.32260  0.95670  0.31827  Biso   1.000  C
  H82      1.0000 0.36660  0.93860  0.33820  Biso   1.000  H
  C125     1.0000 0.49838  0.92450  0.59251  Biso   1.000  C
  H83      1.0000 0.47980  0.95320  0.61340  Biso   1.000  H
  C126     1.0000 0.17389  0.04060  0.02563  Biso   1.000  C
  H84      1.0000 0.13220  0.01640  0.00520  Biso   1.000  H
  C127     1.0000 0.25719  0.23610  0.84808  Biso   1.000  C
  C128     1.0000 0.17340  0.20250  0.75531  Biso   1.000  C
  H85      1.0000 0.13470  0.17340  0.73280  Biso   1.000  H
  C129     1.0000 0.19240  0.17870  0.52037  Biso   1.000  C
  H86      1.0000 0.15100  0.20340  0.49940  Biso   1.000  H
  C130     1.0000 0.20152  0.08440  0.99488  Biso   1.000  C
  H87      1.0000 0.17910  0.08860  0.95500  Biso   1.000  H
  C131     1.0000 0.52652  0.35450  0.11558  Biso   1.000  C
  H88      1.0000 0.54360  0.36250  0.15520  Biso   1.000  H
  C132     1.0000 0.32091  0.00210  0.41156  Biso   1.000  C
  C133     1.0000 0.29400  0.17270  0.99428  Biso   1.000  C
  C134     1.0000 0.55727  0.88100  0.62033  Biso   1.000  C
  H89      1.0000 0.57700  0.87980  0.66040  Biso   1.000  H
  C135     1.0000 0.22320  0.01770  0.31626  Biso   1.000  C
  H90      1.0000 0.19900  0.04120  0.33450  Biso   1.000  H
  C136     1.0000 0.31415  0.10800  0.58147  Biso   1.000  C
  H91      1.0000 0.35600  0.08510  0.60360  Biso   1.000  H
  C137     1.0000 0.31802  0.05040  0.49282  Biso   1.000  C
  C138     1.0000 0.28980  0.94820  0.25926  Biso   1.000  C
  H92      1.0000 0.31270  0.92450  0.24000  Biso   1.000  H
  C139     1.0000 0.26364  0.12200  0.02498  Biso   1.000  C
  C140     1.0000 0.28927  0.99280  0.34789  Biso   1.000  C
  C141     1.0000 0.29529  0.11170  0.08466  Biso   1.000  C
  H93      1.0000 0.33710  0.13510  0.10620  Biso   1.000  H
  C142     1.0000 0.28490  0.28780  0.82149  Biso   1.000  C
  H94      1.0000 0.32270  0.31880  0.84330  Biso   1.000  H
  C143     1.0000 0.25560  0.29290  0.76216  Biso   1.000  C
  H95      1.0000 0.27450  0.32800  0.74470  Biso   1.000  H
  C144     1.0000 0.19880  0.19450  0.81436  Biso   1.000  C
  H96      1.0000 0.17730  0.16210  0.83110  Biso   1.000  H
  N37      1.0000 0.58766  0.84010  0.59254  Biso   1.000  N
  N38      1.0000 0.22590  0.97260  0.22820  Biso   1.000  N
  N39      1.0000 0.22037  0.18523  0.57840  Biso   1.000  N
  N40      1.0000 0.37417  0.00940  0.52662  Biso   1.000  N
  N41      1.0000 0.37869  0.96200  0.44103  Biso   1.000  N
  N42      1.0000 0.28954  0.04880  0.43512  Biso   1.000  N
  N43      1.0000 0.20368  0.03110  0.08309  Biso   1.000  N
  N44      1.0000 0.56114  0.38510  0.08816  Biso   1.000  N
  N45      1.0000 0.20096  0.24940  0.72829  Biso   1.000  N
  N46      1.0000 0.35194  0.21050  0.02708  Biso   1.000  N
  N47      1.0000 0.34686  0.26830  0.94016  Biso   1.000  N
  N48      1.0000 0.26152  0.17730  0.93667  Biso   1.000  N
  Ag9      1.0000 0.17720  0.75041  0.13259  Biso   1.000  Ag
  Ag10     1.0000 0.65652  0.54275  0.63233  Biso   1.000  Ag
  C145     1.0000 0.99794  0.61730  0.00329  Biso   1.000  C
  H97      1.0000 0.97850  0.61820  0.96320  Biso   1.000  H
  C146     1.0000 0.96710  0.18800  0.58881  Biso   1.000  C
  H98      1.0000 0.94560  0.20950  0.61000  Biso   1.000  H
  C147     1.0000 0.87610  0.24250  0.49732  Biso   1.000  C
  C148     1.0000 0.94022  0.19790  0.52954  Biso   1.000  C
  C149     1.0000 0.72250  0.36310  0.99045  Biso   1.000  C
  H99      1.0000 0.70170  0.36620  0.95040  Biso   1.000  H
  C150     1.0000 0.76412  0.43330  0.61144  Biso   1.000  C
  H100     1.0000 0.78600  0.43960  0.65120  Biso   1.000  H
  C151     1.0000 0.78050  0.34950  0.10753  Biso   1.000  C
  H101     1.0000 0.80070  0.34470  0.14750  Biso   1.000  H
  C152     1.0000 0.05734  0.65760  0.03449  Biso   1.000  C
  H102     1.0000 0.07770  0.68480  0.01440  Biso   1.000  H
  C153     1.0000 0.90297  0.53140  0.99850  Biso   1.000  C
  C154     1.0000 0.97397  0.16380  0.49988  Biso   1.000  C
  H103     1.0000 0.95640  0.16800  0.46000  Biso   1.000  H
  C155     1.0000 0.79031  0.27370  0.41208  Biso   1.000  C
  C156     1.0000 0.03372  0.12390  0.53052  Biso   1.000  C
  H104     1.0000 0.05630  0.10210  0.51040  Biso   1.000  H
  C157     1.0000 0.96752  0.57530  0.03260  Biso   1.000  C
  C158     1.0000 0.69420  0.49310  0.75711  Biso   1.000  C
  H105     1.0000 0.65020  0.47570  0.73620  Biso   1.000  H
  C159     1.0000 0.78478  0.40020  0.02187  Biso   1.000  C
  C160     1.0000 0.82260  0.54330  0.81827  Biso   1.000  C
  H106     1.0000 0.86660  0.56140  0.83820  Biso   1.000  H
  C161     1.0000 0.99838  0.57550  0.09251  Biso   1.000  C
  H107     1.0000 0.97980  0.54680  0.11340  Biso   1.000  H
  C162     1.0000 0.67389  0.45940  0.52563  Biso   1.000  C
  H108     1.0000 0.63220  0.48360  0.50520  Biso   1.000  H
  C163     1.0000 0.75719  0.26390  0.34808  Biso   1.000  C
  C164     1.0000 0.67340  0.29750  0.25531  Biso   1.000  C
  H109     1.0000 0.63470  0.32660  0.23280  Biso   1.000  H
  C165     1.0000 0.69240  0.32130  0.02037  Biso   1.000  C
  H110     1.0000 0.65100  0.29660  0.99940  Biso   1.000  H
  C166     1.0000 0.70152  0.41560  0.49488  Biso   1.000  C
  H111     1.0000 0.67910  0.41140  0.45500  Biso   1.000  H
  C167     1.0000 0.02652  0.14550  0.61558  Biso   1.000  C
  H112     1.0000 0.04360  0.13750  0.65520  Biso   1.000  H
  C168     1.0000 0.82091  0.49790  0.91156  Biso   1.000  C
  C169     1.0000 0.79400  0.32730  0.49428  Biso   1.000  C
  C170     1.0000 0.05727  0.61900  0.12033  Biso   1.000  C
  H113     1.0000 0.07700  0.62020  0.16040  Biso   1.000  H
  C171     1.0000 0.72320  0.48230  0.81626  Biso   1.000  C
  H114     1.0000 0.69900  0.45880  0.83450  Biso   1.000  H
  C172     1.0000 0.81415  0.39200  0.08147  Biso   1.000  C
  H115     1.0000 0.85600  0.41490  0.10360  Biso   1.000  H
  C173     1.0000 0.81802  0.44960  0.99282  Biso   1.000  C
  C174     1.0000 0.78980  0.55180  0.75926  Biso   1.000  C
  H116     1.0000 0.81270  0.57550  0.74000  Biso   1.000  H
  C175     1.0000 0.76364  0.37800  0.52498  Biso   1.000  C
  C176     1.0000 0.78927  0.50720  0.84789  Biso   1.000  C
  C177     1.0000 0.79529  0.38830  0.58466  Biso   1.000  C
  H117     1.0000 0.83710  0.36490  0.60620  Biso   1.000  H
  C178     1.0000 0.78490  0.21220  0.32149  Biso   1.000  C
  H118     1.0000 0.82270  0.18120  0.34330  Biso   1.000  H
  C179     1.0000 0.75560  0.20710  0.26216  Biso   1.000  C
  H119     1.0000 0.77450  0.17200  0.24470  Biso   1.000  H
  C180     1.0000 0.69880  0.30550  0.31436  Biso   1.000  C
  H120     1.0000 0.67730  0.33790  0.33110  Biso   1.000  H
  N49      1.0000 0.08766  0.65990  0.09254  Biso   1.000  N
  N50      1.0000 0.72590  0.52740  0.72820  Biso   1.000  N
  N51      1.0000 0.72037  0.31477  0.07840  Biso   1.000  N
  N52      1.0000 0.87417  0.49060  0.02662  Biso   1.000  N
  N53      1.0000 0.87869  0.53800  0.94103  Biso   1.000  N
  N54      1.0000 0.78954  0.45120  0.93512  Biso   1.000  N
  N55      1.0000 0.70368  0.46890  0.58309  Biso   1.000  N
  N56      1.0000 0.06114  0.11490  0.58816  Biso   1.000  N
  N57      1.0000 0.70096  0.25060  0.22829  Biso   1.000  N
  N58      1.0000 0.85194  0.28950  0.52708  Biso   1.000  N
  N59      1.0000 0.84686  0.23170  0.44016  Biso   1.000  N
  N60      1.0000 0.76152  0.32270  0.43667  Biso   1.000  N
  Ag11     1.0000 0.67720  0.25041  0.13259  Biso   1.000  Ag
  Ag12     1.0000 0.15652  0.04275  0.63233  Biso   1.000  Ag
  C181     1.0000 0.49794  0.11730  0.00329  Biso   1.000  C
  H121     1.0000 0.47850  0.11820  0.96320  Biso   1.000  H
  C182     1.0000 0.46710  0.68800  0.58881  Biso   1.000  C
  H122     1.0000 0.44560  0.70950  0.61000  Biso   1.000  H
  C183     1.0000 0.37610  0.74250  0.49732  Biso   1.000  C
  C184     1.0000 0.44022  0.69790  0.52954  Biso   1.000  C
  C185     1.0000 0.22250  0.86310  0.99045  Biso   1.000  C
  H123     1.0000 0.20170  0.86620  0.95040  Biso   1.000  H
  C186     1.0000 0.26412  0.93330  0.61144  Biso   1.000  C
  H124     1.0000 0.28600  0.93960  0.65120  Biso   1.000  H
  C187     1.0000 0.28050  0.84950  0.10753  Biso   1.000  C
  H125     1.0000 0.30070  0.84470  0.14750  Biso   1.000  H
  C188     1.0000 0.55734  0.15760  0.03449  Biso   1.000  C
  H126     1.0000 0.57770  0.18480  0.01440  Biso   1.000  H
  C189     1.0000 0.40297  0.03140  0.99850  Biso   1.000  C
  C190     1.0000 0.47397  0.66380  0.49988  Biso   1.000  C
  H127     1.0000 0.45640  0.66800  0.46000  Biso   1.000  H
  C191     1.0000 0.29031  0.77370  0.41208  Biso   1.000  C
  C192     1.0000 0.53372  0.62390  0.53052  Biso   1.000  C
  H128     1.0000 0.55630  0.60210  0.51040  Biso   1.000  H
  C193     1.0000 0.46752  0.07530  0.03260  Biso   1.000  C
  C194     1.0000 0.19420  0.99310  0.75711  Biso   1.000  C
  H129     1.0000 0.15020  0.97570  0.73620  Biso   1.000  H
  C195     1.0000 0.28478  0.90020  0.02187  Biso   1.000  C
  C196     1.0000 0.32260  0.04330  0.81827  Biso   1.000  C
  H130     1.0000 0.36660  0.06140  0.83820  Biso   1.000  H
  C197     1.0000 0.49838  0.07550  0.09251  Biso   1.000  C
  H131     1.0000 0.47980  0.04680  0.11340  Biso   1.000  H
  C198     1.0000 0.17389  0.95940  0.52563  Biso   1.000  C
  H132     1.0000 0.13220  0.98360  0.50520  Biso   1.000  H
  C199     1.0000 0.25719  0.76390  0.34808  Biso   1.000  C
  C200     1.0000 0.17340  0.79750  0.25531  Biso   1.000  C
  H133     1.0000 0.13470  0.82660  0.23280  Biso   1.000  H
  C201     1.0000 0.19240  0.82130  0.02037  Biso   1.000  C
  H134     1.0000 0.15100  0.79660  0.99940  Biso   1.000  H
  C202     1.0000 0.20152  0.91560  0.49488  Biso   1.000  C
  H135     1.0000 0.17910  0.91140  0.45500  Biso   1.000  H
  C203     1.0000 0.52652  0.64550  0.61558  Biso   1.000  C
  H136     1.0000 0.54360  0.63750  0.65520  Biso   1.000  H
  C204     1.0000 0.32091  0.99790  0.91156  Biso   1.000  C
  C205     1.0000 0.29400  0.82730  0.49428  Biso   1.000  C
  C206     1.0000 0.55727  0.11900  0.12033  Biso   1.000  C
  H137     1.0000 0.57700  0.12020  0.16040  Biso   1.000  H
  C207     1.0000 0.22320  0.98230  0.81626  Biso   1.000  C
  H138     1.0000 0.19900  0.95880  0.83450  Biso   1.000  H
  C208     1.0000 0.31415  0.89200  0.08147  Biso   1.000  C
  H139     1.0000 0.35600  0.91490  0.10360  Biso   1.000  H
  C209     1.0000 0.31802  0.94960  0.99282  Biso   1.000  C
  C210     1.0000 0.28980  0.05180  0.75926  Biso   1.000  C
  H140     1.0000 0.31270  0.07550  0.74000  Biso   1.000  H
  C211     1.0000 0.26364  0.87800  0.52498  Biso   1.000  C
  C212     1.0000 0.28927  0.00720  0.84789  Biso   1.000  C
  C213     1.0000 0.29529  0.88830  0.58466  Biso   1.000  C
  H141     1.0000 0.33710  0.86490  0.60620  Biso   1.000  H
  C214     1.0000 0.28490  0.71220  0.32149  Biso   1.000  C
  H142     1.0000 0.32270  0.68120  0.34330  Biso   1.000  H
  C215     1.0000 0.25560  0.70710  0.26216  Biso   1.000  C
  H143     1.0000 0.27450  0.67200  0.24470  Biso   1.000  H
  C216     1.0000 0.19880  0.80550  0.31436  Biso   1.000  C
  H144     1.0000 0.17730  0.83790  0.33110  Biso   1.000  H
  N61      1.0000 0.58766  0.15990  0.09254  Biso   1.000  N
  N62      1.0000 0.22590  0.02740  0.72820  Biso   1.000  N
  N63      1.0000 0.22037  0.81477  0.07840  Biso   1.000  N
  N64      1.0000 0.37417  0.99060  0.02662  Biso   1.000  N
  N65      1.0000 0.37869  0.03800  0.94103  Biso   1.000  N
  N66      1.0000 0.28954  0.95120  0.93512  Biso   1.000  N
  N67      1.0000 0.20368  0.96890  0.58309  Biso   1.000  N
  N68      1.0000 0.56114  0.61490  0.58816  Biso   1.000  N
  N69      1.0000 0.20096  0.75060  0.22829  Biso   1.000  N
  N70      1.0000 0.35194  0.78950  0.52708  Biso   1.000  N
  N71      1.0000 0.34686  0.73170  0.44016  Biso   1.000  N
  N72      1.0000 0.26152  0.82270  0.43667  Biso   1.000  N
  Ag13     1.0000 0.82280  0.75041  0.36741  Biso   1.000  Ag
  Ag14     1.0000 0.34348  0.54275  0.86767  Biso   1.000  Ag
  C217     1.0000 0.00206  0.61730  0.49671  Biso   1.000  C
  H145     1.0000 0.02150  0.61820  0.53680  Biso   1.000  H
  C218     1.0000 0.03290  0.18800  0.91119  Biso   1.000  C
  H146     1.0000 0.05440  0.20950  0.89000  Biso   1.000  H
  C219     1.0000 0.12390  0.24250  0.00268  Biso   1.000  C
  C220     1.0000 0.05978  0.19790  0.97046  Biso   1.000  C
  C221     1.0000 0.27750  0.36310  0.50955  Biso   1.000  C
  H147     1.0000 0.29830  0.36620  0.54960  Biso   1.000  H
  C222     1.0000 0.23588  0.43330  0.88856  Biso   1.000  C
  H148     1.0000 0.21400  0.43960  0.84880  Biso   1.000  H
  C223     1.0000 0.21950  0.34950  0.39247  Biso   1.000  C
  H149     1.0000 0.19930  0.34470  0.35250  Biso   1.000  H
  C224     1.0000 0.94266  0.65760  0.46551  Biso   1.000  C
  H150     1.0000 0.92230  0.68480  0.48560  Biso   1.000  H
  C225     1.0000 0.09703  0.53140  0.50150  Biso   1.000  C
  C226     1.0000 0.02603  0.16380  0.00012  Biso   1.000  C
  H151     1.0000 0.04360  0.16800  0.04000  Biso   1.000  H
  C227     1.0000 0.20969  0.27370  0.08792  Biso   1.000  C
  C228     1.0000 0.96628  0.12390  0.96948  Biso   1.000  C
  H152     1.0000 0.94370  0.10210  0.98960  Biso   1.000  H
  C229     1.0000 0.03248  0.57530  0.46740  Biso   1.000  C
  C230     1.0000 0.30580  0.49310  0.74289  Biso   1.000  C
  H153     1.0000 0.34980  0.47570  0.76380  Biso   1.000  H
  C231     1.0000 0.21522  0.40020  0.47813  Biso   1.000  C
  C232     1.0000 0.17740  0.54330  0.68173  Biso   1.000  C
  H154     1.0000 0.13340  0.56140  0.66180  Biso   1.000  H
  C233     1.0000 0.00162  0.57550  0.40749  Biso   1.000  C
  H155     1.0000 0.02020  0.54680  0.38660  Biso   1.000  H
  C234     1.0000 0.32611  0.45940  0.97437  Biso   1.000  C
  H156     1.0000 0.36780  0.48360  0.99480  Biso   1.000  H
  C235     1.0000 0.24281  0.26390  0.15192  Biso   1.000  C
  C236     1.0000 0.32660  0.29750  0.24469  Biso   1.000  C
  H157     1.0000 0.36530  0.32660  0.26720  Biso   1.000  H
  C237     1.0000 0.30760  0.32130  0.47963  Biso   1.000  C
  H158     1.0000 0.34900  0.29660  0.50060  Biso   1.000  H
  C238     1.0000 0.29848  0.41560  0.00512  Biso   1.000  C
  H159     1.0000 0.32090  0.41140  0.04500  Biso   1.000  H
  C239     1.0000 0.97348  0.14550  0.88442  Biso   1.000  C
  H160     1.0000 0.95640  0.13750  0.84480  Biso   1.000  H
  C240     1.0000 0.17909  0.49790  0.58844  Biso   1.000  C
  C241     1.0000 0.20600  0.32730  0.00572  Biso   1.000  C
  C242     1.0000 0.94273  0.61900  0.37967  Biso   1.000  C
  H161     1.0000 0.92300  0.62020  0.33960  Biso   1.000  H
  C243     1.0000 0.27680  0.48230  0.68374  Biso   1.000  C
  H162     1.0000 0.30100  0.45880  0.66550  Biso   1.000  H
  C244     1.0000 0.18585  0.39200  0.41853  Biso   1.000  C
  H163     1.0000 0.14400  0.41490  0.39640  Biso   1.000  H
  C245     1.0000 0.18198  0.44960  0.50718  Biso   1.000  C
  C246     1.0000 0.21020  0.55180  0.74074  Biso   1.000  C
  H164     1.0000 0.18730  0.57550  0.76000  Biso   1.000  H
  C247     1.0000 0.23636  0.37800  0.97502  Biso   1.000  C
  C248     1.0000 0.21073  0.50720  0.65211  Biso   1.000  C
  C249     1.0000 0.20471  0.38830  0.91534  Biso   1.000  C
  H165     1.0000 0.16290  0.36490  0.89380  Biso   1.000  H
  C250     1.0000 0.21510  0.21220  0.17851  Biso   1.000  C
  H166     1.0000 0.17730  0.18120  0.15670  Biso   1.000  H
  C251     1.0000 0.24440  0.20710  0.23784  Biso   1.000  C
  H167     1.0000 0.22550  0.17200  0.25530  Biso   1.000  H
  C252     1.0000 0.30120  0.30550  0.18564  Biso   1.000  C
  H168     1.0000 0.32270  0.33790  0.16890  Biso   1.000  H
  N73      1.0000 0.91234  0.65990  0.40746  Biso   1.000  N
  N74      1.0000 0.27410  0.52740  0.77180  Biso   1.000  N
  N75      1.0000 0.27963  0.31477  0.42160  Biso   1.000  N
  N76      1.0000 0.12583  0.49060  0.47338  Biso   1.000  N
  N77      1.0000 0.12131  0.53800  0.55897  Biso   1.000  N
  N78      1.0000 0.21046  0.45120  0.56488  Biso   1.000  N
  N79      1.0000 0.29632  0.46890  0.91691  Biso   1.000  N
  N80      1.0000 0.93886  0.11490  0.91184  Biso   1.000  N
  N81      1.0000 0.29904  0.25060  0.27171  Biso   1.000  N
  N82      1.0000 0.14806  0.28950  0.97292  Biso   1.000  N
  N83      1.0000 0.15314  0.23170  0.05984  Biso   1.000  N
  N84      1.0000 0.23848  0.32270  0.06333  Biso   1.000  N
  Ag15     1.0000 0.32280  0.25041  0.36741  Biso   1.000  Ag
  Ag16     1.0000 0.84348  0.04275  0.86767  Biso   1.000  Ag
  C253     1.0000 0.50206  0.11730  0.49671  Biso   1.000  C
  H169     1.0000 0.52150  0.11820  0.53680  Biso   1.000  H
  C254     1.0000 0.53290  0.68800  0.91119  Biso   1.000  C
  H170     1.0000 0.55440  0.70950  0.89000  Biso   1.000  H
  C255     1.0000 0.62390  0.74250  0.00268  Biso   1.000  C
  C256     1.0000 0.55978  0.69790  0.97046  Biso   1.000  C
  C257     1.0000 0.77750  0.86310  0.50955  Biso   1.000  C
  H171     1.0000 0.79830  0.86620  0.54960  Biso   1.000  H
  C258     1.0000 0.73588  0.93330  0.88856  Biso   1.000  C
  H172     1.0000 0.71400  0.93960  0.84880  Biso   1.000  H
  C259     1.0000 0.71950  0.84950  0.39247  Biso   1.000  C
  H173     1.0000 0.69930  0.84470  0.35250  Biso   1.000  H
  C260     1.0000 0.44266  0.15760  0.46551  Biso   1.000  C
  H174     1.0000 0.42230  0.18480  0.48560  Biso   1.000  H
  C261     1.0000 0.59703  0.03140  0.50150  Biso   1.000  C
  C262     1.0000 0.52603  0.66380  0.00012  Biso   1.000  C
  H175     1.0000 0.54360  0.66800  0.04000  Biso   1.000  H
  C263     1.0000 0.70969  0.77370  0.08792  Biso   1.000  C
  C264     1.0000 0.46628  0.62390  0.96948  Biso   1.000  C
  H176     1.0000 0.44370  0.60210  0.98960  Biso   1.000  H
  C265     1.0000 0.53248  0.07530  0.46740  Biso   1.000  C
  C266     1.0000 0.80580  0.99310  0.74289  Biso   1.000  C
  H177     1.0000 0.84980  0.97570  0.76380  Biso   1.000  H
  C267     1.0000 0.71522  0.90020  0.47813  Biso   1.000  C
  C268     1.0000 0.67740  0.04330  0.68173  Biso   1.000  C
  H178     1.0000 0.63340  0.06140  0.66180  Biso   1.000  H
  C269     1.0000 0.50162  0.07550  0.40749  Biso   1.000  C
  H179     1.0000 0.52020  0.04680  0.38660  Biso   1.000  H
  C270     1.0000 0.82611  0.95940  0.97437  Biso   1.000  C
  H180     1.0000 0.86780  0.98360  0.99480  Biso   1.000  H
  C271     1.0000 0.74281  0.76390  0.15192  Biso   1.000  C
  C272     1.0000 0.82660  0.79750  0.24469  Biso   1.000  C
  H181     1.0000 0.86530  0.82660  0.26720  Biso   1.000  H
  C273     1.0000 0.80760  0.82130  0.47963  Biso   1.000  C
  H182     1.0000 0.84900  0.79660  0.50060  Biso   1.000  H
  C274     1.0000 0.79848  0.91560  0.00512  Biso   1.000  C
  H183     1.0000 0.82090  0.91140  0.04500  Biso   1.000  H
  C275     1.0000 0.47348  0.64550  0.88442  Biso   1.000  C
  H184     1.0000 0.45640  0.63750  0.84480  Biso   1.000  H
  C276     1.0000 0.67909  0.99790  0.58844  Biso   1.000  C
  C277     1.0000 0.70600  0.82730  0.00572  Biso   1.000  C
  C278     1.0000 0.44273  0.11900  0.37967  Biso   1.000  C
  H185     1.0000 0.42300  0.12020  0.33960  Biso   1.000  H
  C279     1.0000 0.77680  0.98230  0.68374  Biso   1.000  C
  H186     1.0000 0.80100  0.95880  0.66550  Biso   1.000  H
  C280     1.0000 0.68585  0.89200  0.41853  Biso   1.000  C
  H187     1.0000 0.64400  0.91490  0.39640  Biso   1.000  H
  C281     1.0000 0.68198  0.94960  0.50718  Biso   1.000  C
  C282     1.0000 0.71020  0.05180  0.74074  Biso   1.000  C
  H188     1.0000 0.68730  0.07550  0.76000  Biso   1.000  H
  C283     1.0000 0.73636  0.87800  0.97502  Biso   1.000  C
  C284     1.0000 0.71073  0.00720  0.65211  Biso   1.000  C
  C285     1.0000 0.70471  0.88830  0.91534  Biso   1.000  C
  H189     1.0000 0.66290  0.86490  0.89380  Biso   1.000  H
  C286     1.0000 0.71510  0.71220  0.17851  Biso   1.000  C
  H190     1.0000 0.67730  0.68120  0.15670  Biso   1.000  H
  C287     1.0000 0.74440  0.70710  0.23784  Biso   1.000  C
  H191     1.0000 0.72550  0.67200  0.25530  Biso   1.000  H
  C288     1.0000 0.80120  0.80550  0.18564  Biso   1.000  C
  H192     1.0000 0.82270  0.83790  0.16890  Biso   1.000  H
  N85      1.0000 0.41234  0.15990  0.40746  Biso   1.000  N
  N86      1.0000 0.77410  0.02740  0.77180  Biso   1.000  N
  N87      1.0000 0.77963  0.81477  0.42160  Biso   1.000  N
  N88      1.0000 0.62583  0.99060  0.47338  Biso   1.000  N
  N89      1.0000 0.62131  0.03800  0.55897  Biso   1.000  N
  N90      1.0000 0.71046  0.95120  0.56488  Biso   1.000  N
  N91      1.0000 0.79632  0.96890  0.91691  Biso   1.000  N
  N92      1.0000 0.43886  0.61490  0.91184  Biso   1.000  N
  N93      1.0000 0.79904  0.75060  0.27171  Biso   1.000  N
  N94      1.0000 0.64806  0.78950  0.97292  Biso   1.000  N
  N95      1.0000 0.65314  0.73170  0.05984  Biso   1.000  N
  N96      1.0000 0.73848  0.82270  0.06333  Biso   1.000  N
