data_image0
_cell_length_a       22.0248
_cell_length_b       16.4933
_cell_length_c       25.6766
_cell_angle_alpha    90
_cell_angle_beta     115.385
_cell_angle_gamma    90

_symmetry_space_group_name_H-M    "P 1"
_symmetry_int_tables_number       1

loop_
  _symmetry_equiv_pos_as_xyz
  'x, y, z'

loop_
  _atom_site_label
  _atom_site_occupancy
  _atom_site_fract_x
  _atom_site_fract_y
  _atom_site_fract_z
  _atom_site_thermal_displace_type
  _atom_site_B_iso_or_equiv
  _atom_site_type_symbol
  Ag1      1.0000 0.27396  0.70871  0.86825  Biso   1.000  Ag
  Ag2      1.0000 0.79472  0.00057  0.36770  Biso   1.000  Ag
  C1       1.0000 0.62799  0.06220  0.91131  Biso   1.000  C
  H1       1.0000 0.58530  0.04080  0.89000  Biso   1.000  H
  C2       1.0000 0.42269  0.40000  0.39269  Biso   1.000  C
  H2       1.0000 0.40300  0.40430  0.35270  Biso   1.000  H
  C3       1.0000 0.65417  0.21910  0.50159  Biso   1.000  C
  C4       1.0000 0.62828  0.00720  0.00273  Biso   1.000  C
  C5       1.0000 0.48185  0.38690  0.50967  Biso   1.000  C
  H3       1.0000 0.50110  0.38390  0.54970  Biso   1.000  H
  C6       1.0000 0.40318  0.81640  0.88927  Biso   1.000  C
  H4       1.0000 0.38510  0.81050  0.84940  Biso   1.000  H
  C7       1.0000 0.74352  0.13320  0.49657  Biso   1.000  C
  H5       1.0000 0.76410  0.13270  0.53670  Biso   1.000  H
  C8       1.0000 0.57522  0.30100  0.50741  Biso   1.000  C
  C9       1.0000 0.72338  0.08670  0.00010  Biso   1.000  C
  H6       1.0000 0.74590  0.08250  0.04000  Biso   1.000  H
  C10      1.0000 0.77208  0.09230  0.46552  Biso   1.000  C
  H7       1.0000 0.81230  0.06480  0.48570  Biso   1.000  H
  C11      1.0000 0.62797  0.97670  0.08817  Biso   1.000  C
  C12      1.0000 0.66035  0.05240  0.97060  Biso   1.000  C
  C13      1.0000 0.46102  0.86120  0.91594  Biso   1.000  C
  H8       1.0000 0.48130  0.88420  0.89430  Biso   1.000  H
  C14      1.0000 0.75200  0.12690  0.96949  Biso   1.000  C
  H9       1.0000 0.79440  0.14940  0.98970  Biso   1.000  H
  C15      1.0000 0.68396  0.17500  0.46714  Biso   1.000  C
  C16      1.0000 0.65826  0.98660  0.15177  Biso   1.000  C
  C17      1.0000 0.45707  0.83410  0.00551  Biso   1.000  C
  H10      1.0000 0.47460  0.83810  0.04540  Biso   1.000  H
  C18      1.0000 0.77980  0.19860  0.74071  Biso   1.000  C
  H11      1.0000 0.82190  0.17460  0.75980  Biso   1.000  H
  C19      1.0000 0.71230  0.03840  0.17844  Biso   1.000  C
  H12      1.0000 0.72850  0.06890  0.15670  Biso   1.000  H
  C20      1.0000 0.48227  0.35780  0.41911  Biso   1.000  C
  H13      1.0000 0.50200  0.33480  0.39700  Biso   1.000  H
  C21      1.0000 0.69074  0.24270  0.65224  Biso   1.000  C
  C22      1.0000 0.66105  0.10470  0.88475  Biso   1.000  C
  H14      1.0000 0.63890  0.11210  0.84510  Biso   1.000  H
  C23      1.0000 0.54988  0.92270  0.00579  Biso   1.000  C
  C24      1.0000 0.75340  0.20740  0.68172  Biso   1.000  C
  H15      1.0000 0.77750  0.18980  0.66170  Biso   1.000  H
  C25      1.0000 0.65660  0.26810  0.68412  Biso   1.000  C
  H16      1.0000 0.61440  0.29210  0.66610  Biso   1.000  H
  C26      1.0000 0.68680  0.25710  0.74319  Biso   1.000  C
  H17      1.0000 0.66370  0.27420  0.76410  Biso   1.000  H
  C27      1.0000 0.74170  0.04390  0.23765  Biso   1.000  C
  H18      1.0000 0.77750  0.07950  0.25510  Biso   1.000  H
  C28      1.0000 0.39890  0.79060  0.97492  Biso   1.000  C
  H19      1.0000 0.37760  0.76660  0.99540  Biso   1.000  H
  C29      1.0000 0.51252  0.34990  0.47817  Biso   1.000  C
  C30      1.0000 0.65874  0.25240  0.58861  Biso   1.000  C
  C31      1.0000 0.65560  0.17460  0.40785  Biso   1.000  C
  H20      1.0000 0.61620  0.20310  0.38680  Biso   1.000  H
  C32      1.0000 0.63350  0.94450  0.18542  Biso   1.000  C
  H21      1.0000 0.59570  0.91170  0.16880  Biso   1.000  H
  C33      1.0000 0.42210  0.42830  0.47993  Biso   1.000  C
  H22      1.0000 0.40190  0.45280  0.50110  Biso   1.000  H
  C34      1.0000 0.48923  0.87200  0.97531  Biso   1.000  C
  C35      1.0000 0.66720  0.95330  0.24440  Biso   1.000  C
  H23      1.0000 0.65110  0.92420  0.26690  Biso   1.000  H
  C36      1.0000 0.68670  0.13110  0.38010  Biso   1.000  C
  H24      1.0000 0.66650  0.12990  0.34000  Biso   1.000  H
  N1       1.0000 0.37125  0.78079  0.91762  Biso   1.000  N
  N2       1.0000 0.72237  0.13560  0.91218  Biso   1.000  N
  N3       1.0000 0.72120  0.00020  0.27180  Biso   1.000  N
  N4       1.0000 0.57468  0.96100  0.97300  Biso   1.000  N
  N5       1.0000 0.65627  0.01850  0.05984  Biso   1.000  N
  N6       1.0000 0.57488  0.92750  0.06315  Biso   1.000  N
  N7       1.0000 0.74471  0.09020  0.40804  Biso   1.000  N
  N8       1.0000 0.74701  0.22330  0.77197  Biso   1.000  N
  N9       1.0000 0.39173  0.43520  0.42212  Biso   1.000  N
  N10      1.0000 0.59751  0.26020  0.47349  Biso   1.000  N
  N11      1.0000 0.68699  0.21260  0.55933  Biso   1.000  N
  N12      1.0000 0.60405  0.29930  0.56481  Biso   1.000  N
  Ag3      1.0000 0.77396  0.20871  0.86825  Biso   1.000  Ag
  Ag4      1.0000 0.29472  0.50057  0.36770  Biso   1.000  Ag
  C37      1.0000 0.12799  0.56220  0.91131  Biso   1.000  C
  H25      1.0000 0.08530  0.54080  0.89000  Biso   1.000  H
  C38      1.0000 0.92269  0.90000  0.39269  Biso   1.000  C
  H26      1.0000 0.90300  0.90430  0.35270  Biso   1.000  H
  C39      1.0000 0.15417  0.71910  0.50159  Biso   1.000  C
  C40      1.0000 0.12828  0.50720  0.00273  Biso   1.000  C
  C41      1.0000 0.98185  0.88690  0.50967  Biso   1.000  C
  H27      1.0000 0.00110  0.88390  0.54970  Biso   1.000  H
  C42      1.0000 0.90318  0.31640  0.88927  Biso   1.000  C
  H28      1.0000 0.88510  0.31050  0.84940  Biso   1.000  H
  C43      1.0000 0.24352  0.63320  0.49657  Biso   1.000  C
  H29      1.0000 0.26410  0.63270  0.53670  Biso   1.000  H
  C44      1.0000 0.07522  0.80100  0.50741  Biso   1.000  C
  C45      1.0000 0.22338  0.58670  0.00010  Biso   1.000  C
  H30      1.0000 0.24590  0.58250  0.04000  Biso   1.000  H
  C46      1.0000 0.27208  0.59230  0.46552  Biso   1.000  C
  H31      1.0000 0.31230  0.56480  0.48570  Biso   1.000  H
  C47      1.0000 0.12797  0.47670  0.08817  Biso   1.000  C
  C48      1.0000 0.16035  0.55240  0.97060  Biso   1.000  C
  C49      1.0000 0.96102  0.36120  0.91594  Biso   1.000  C
  H32      1.0000 0.98130  0.38420  0.89430  Biso   1.000  H
  C50      1.0000 0.25200  0.62690  0.96949  Biso   1.000  C
  H33      1.0000 0.29440  0.64940  0.98970  Biso   1.000  H
  C51      1.0000 0.18396  0.67500  0.46714  Biso   1.000  C
  C52      1.0000 0.15826  0.48660  0.15177  Biso   1.000  C
  C53      1.0000 0.95707  0.33410  0.00551  Biso   1.000  C
  H34      1.0000 0.97460  0.33810  0.04540  Biso   1.000  H
  C54      1.0000 0.27980  0.69860  0.74071  Biso   1.000  C
  H35      1.0000 0.32190  0.67460  0.75980  Biso   1.000  H
  C55      1.0000 0.21230  0.53840  0.17844  Biso   1.000  C
  H36      1.0000 0.22850  0.56890  0.15670  Biso   1.000  H
  C56      1.0000 0.98227  0.85780  0.41911  Biso   1.000  C
  H37      1.0000 0.00200  0.83480  0.39700  Biso   1.000  H
  C57      1.0000 0.19074  0.74270  0.65224  Biso   1.000  C
  C58      1.0000 0.16105  0.60470  0.88475  Biso   1.000  C
  H38      1.0000 0.13890  0.61210  0.84510  Biso   1.000  H
  C59      1.0000 0.04988  0.42270  0.00579  Biso   1.000  C
  C60      1.0000 0.25340  0.70740  0.68172  Biso   1.000  C
  H39      1.0000 0.27750  0.68980  0.66170  Biso   1.000  H
  C61      1.0000 0.15660  0.76810  0.68412  Biso   1.000  C
  H40      1.0000 0.11440  0.79210  0.66610  Biso   1.000  H
  C62      1.0000 0.18680  0.75710  0.74319  Biso   1.000  C
  H41      1.0000 0.16370  0.77420  0.76410  Biso   1.000  H
  C63      1.0000 0.24170  0.54390  0.23765  Biso   1.000  C
  H42      1.0000 0.27750  0.57950  0.25510  Biso   1.000  H
  C64      1.0000 0.89890  0.29060  0.97492  Biso   1.000  C
  H43      1.0000 0.87760  0.26660  0.99540  Biso   1.000  H
  C65      1.0000 0.01252  0.84990  0.47817  Biso   1.000  C
  C66      1.0000 0.15874  0.75240  0.58861  Biso   1.000  C
  C67      1.0000 0.15560  0.67460  0.40785  Biso   1.000  C
  H44      1.0000 0.11620  0.70310  0.38680  Biso   1.000  H
  C68      1.0000 0.13350  0.44450  0.18542  Biso   1.000  C
  H45      1.0000 0.09570  0.41170  0.16880  Biso   1.000  H
  C69      1.0000 0.92210  0.92830  0.47993  Biso   1.000  C
  H46      1.0000 0.90190  0.95280  0.50110  Biso   1.000  H
  C70      1.0000 0.98923  0.37200  0.97531  Biso   1.000  C
  C71      1.0000 0.16720  0.45330  0.24440  Biso   1.000  C
  H47      1.0000 0.15110  0.42420  0.26690  Biso   1.000  H
  C72      1.0000 0.18670  0.63110  0.38010  Biso   1.000  C
  H48      1.0000 0.16650  0.62990  0.34000  Biso   1.000  H
  N13      1.0000 0.87125  0.28079  0.91762  Biso   1.000  N
  N14      1.0000 0.22237  0.63560  0.91218  Biso   1.000  N
  N15      1.0000 0.22120  0.50020  0.27180  Biso   1.000  N
  N16      1.0000 0.07468  0.46100  0.97300  Biso   1.000  N
  N17      1.0000 0.15627  0.51850  0.05984  Biso   1.000  N
  N18      1.0000 0.07488  0.42750  0.06315  Biso   1.000  N
  N19      1.0000 0.24471  0.59020  0.40804  Biso   1.000  N
  N20      1.0000 0.24701  0.72330  0.77197  Biso   1.000  N
  N21      1.0000 0.89173  0.93520  0.42212  Biso   1.000  N
  N22      1.0000 0.09751  0.76020  0.47349  Biso   1.000  N
  N23      1.0000 0.18699  0.71260  0.55933  Biso   1.000  N
  N24      1.0000 0.10405  0.79930  0.56481  Biso   1.000  N
  Ag5      1.0000 0.72604  0.70871  0.63175  Biso   1.000  Ag
  Ag6      1.0000 0.20528  0.00057  0.13230  Biso   1.000  Ag
  C73      1.0000 0.37201  0.06220  0.58869  Biso   1.000  C
  H49      1.0000 0.41470  0.04080  0.61000  Biso   1.000  H
  C74      1.0000 0.57731  0.40000  0.10731  Biso   1.000  C
  H50      1.0000 0.59700  0.40430  0.14730  Biso   1.000  H
  C75      1.0000 0.34583  0.21910  0.99841  Biso   1.000  C
  C76      1.0000 0.37172  0.00720  0.49727  Biso   1.000  C
  C77      1.0000 0.51815  0.38690  0.99033  Biso   1.000  C
  H51      1.0000 0.49890  0.38390  0.95030  Biso   1.000  H
  C78      1.0000 0.59682  0.81640  0.61073  Biso   1.000  C
  H52      1.0000 0.61490  0.81050  0.65060  Biso   1.000  H
  C79      1.0000 0.25648  0.13320  0.00343  Biso   1.000  C
  H53      1.0000 0.23590  0.13270  0.96330  Biso   1.000  H
  C80      1.0000 0.42478  0.30100  0.99259  Biso   1.000  C
  C81      1.0000 0.27662  0.08670  0.49990  Biso   1.000  C
  H54      1.0000 0.25410  0.08250  0.46000  Biso   1.000  H
  C82      1.0000 0.22792  0.09230  0.03448  Biso   1.000  C
  H55      1.0000 0.18770  0.06480  0.01430  Biso   1.000  H
  C83      1.0000 0.37203  0.97670  0.41183  Biso   1.000  C
  C84      1.0000 0.33965  0.05240  0.52940  Biso   1.000  C
  C85      1.0000 0.53898  0.86120  0.58406  Biso   1.000  C
  H56      1.0000 0.51870  0.88420  0.60570  Biso   1.000  H
  C86      1.0000 0.24800  0.12690  0.53051  Biso   1.000  C
  H57      1.0000 0.20560  0.14940  0.51030  Biso   1.000  H
  C87      1.0000 0.31604  0.17500  0.03286  Biso   1.000  C
  C88      1.0000 0.34174  0.98660  0.34823  Biso   1.000  C
  C89      1.0000 0.54293  0.83410  0.49449  Biso   1.000  C
  H58      1.0000 0.52540  0.83810  0.45460  Biso   1.000  H
  C90      1.0000 0.22020  0.19860  0.75929  Biso   1.000  C
  H59      1.0000 0.17810  0.17460  0.74020  Biso   1.000  H
  C91      1.0000 0.28770  0.03840  0.32156  Biso   1.000  C
  H60      1.0000 0.27150  0.06890  0.34330  Biso   1.000  H
  C92      1.0000 0.51773  0.35780  0.08089  Biso   1.000  C
  H61      1.0000 0.49800  0.33480  0.10300  Biso   1.000  H
  C93      1.0000 0.30926  0.24270  0.84776  Biso   1.000  C
  C94      1.0000 0.33895  0.10470  0.61525  Biso   1.000  C
  H62      1.0000 0.36110  0.11210  0.65490  Biso   1.000  H
  C95      1.0000 0.45012  0.92270  0.49421  Biso   1.000  C
  C96      1.0000 0.24660  0.20740  0.81828  Biso   1.000  C
  H63      1.0000 0.22250  0.18980  0.83830  Biso   1.000  H
  C97      1.0000 0.34340  0.26810  0.81588  Biso   1.000  C
  H64      1.0000 0.38560  0.29210  0.83390  Biso   1.000  H
  C98      1.0000 0.31320  0.25710  0.75681  Biso   1.000  C
  H65      1.0000 0.33630  0.27420  0.73590  Biso   1.000  H
  C99      1.0000 0.25830  0.04390  0.26235  Biso   1.000  C
  H66      1.0000 0.22250  0.07950  0.24490  Biso   1.000  H
  C100     1.0000 0.60110  0.79060  0.52508  Biso   1.000  C
  H67      1.0000 0.62240  0.76660  0.50460  Biso   1.000  H
  C101     1.0000 0.48748  0.34990  0.02183  Biso   1.000  C
  C102     1.0000 0.34126  0.25240  0.91139  Biso   1.000  C
  C103     1.0000 0.34440  0.17460  0.09215  Biso   1.000  C
  H68      1.0000 0.38380  0.20310  0.11320  Biso   1.000  H
  C104     1.0000 0.36650  0.94450  0.31458  Biso   1.000  C
  H69      1.0000 0.40430  0.91170  0.33120  Biso   1.000  H
  C105     1.0000 0.57790  0.42830  0.02007  Biso   1.000  C
  H70      1.0000 0.59810  0.45280  0.99890  Biso   1.000  H
  C106     1.0000 0.51077  0.87200  0.52469  Biso   1.000  C
  C107     1.0000 0.33280  0.95330  0.25560  Biso   1.000  C
  H71      1.0000 0.34890  0.92420  0.23310  Biso   1.000  H
  C108     1.0000 0.31330  0.13110  0.11990  Biso   1.000  C
  H72      1.0000 0.33350  0.12990  0.16000  Biso   1.000  H
  N25      1.0000 0.62875  0.78079  0.58238  Biso   1.000  N
  N26      1.0000 0.27763  0.13560  0.58782  Biso   1.000  N
  N27      1.0000 0.27880  0.00020  0.22820  Biso   1.000  N
  N28      1.0000 0.42532  0.96100  0.52700  Biso   1.000  N
  N29      1.0000 0.34373  0.01850  0.44016  Biso   1.000  N
  N30      1.0000 0.42512  0.92750  0.43685  Biso   1.000  N
  N31      1.0000 0.25529  0.09020  0.09196  Biso   1.000  N
  N32      1.0000 0.25299  0.22330  0.72803  Biso   1.000  N
  N33      1.0000 0.60827  0.43520  0.07788  Biso   1.000  N
  N34      1.0000 0.40249  0.26020  0.02651  Biso   1.000  N
  N35      1.0000 0.31301  0.21260  0.94067  Biso   1.000  N
  N36      1.0000 0.39595  0.29930  0.93519  Biso   1.000  N
  Ag7      1.0000 0.22604  0.20871  0.63175  Biso   1.000  Ag
  Ag8      1.0000 0.70528  0.50057  0.13230  Biso   1.000  Ag
  C109     1.0000 0.87201  0.56220  0.58869  Biso   1.000  C
  H73      1.0000 0.91470  0.54080  0.61000  Biso   1.000  H
  C110     1.0000 0.07731  0.90000  0.10731  Biso   1.000  C
  H74      1.0000 0.09700  0.90430  0.14730  Biso   1.000  H
  C111     1.0000 0.84583  0.71910  0.99841  Biso   1.000  C
  C112     1.0000 0.87172  0.50720  0.49727  Biso   1.000  C
  C113     1.0000 0.01815  0.88690  0.99033  Biso   1.000  C
  H75      1.0000 0.99890  0.88390  0.95030  Biso   1.000  H
  C114     1.0000 0.09682  0.31640  0.61073  Biso   1.000  C
  H76      1.0000 0.11490  0.31050  0.65060  Biso   1.000  H
  C115     1.0000 0.75648  0.63320  0.00343  Biso   1.000  C
  H77      1.0000 0.73590  0.63270  0.96330  Biso   1.000  H
  C116     1.0000 0.92478  0.80100  0.99259  Biso   1.000  C
  C117     1.0000 0.77662  0.58670  0.49990  Biso   1.000  C
  H78      1.0000 0.75410  0.58250  0.46000  Biso   1.000  H
  C118     1.0000 0.72792  0.59230  0.03448  Biso   1.000  C
  H79      1.0000 0.68770  0.56480  0.01430  Biso   1.000  H
  C119     1.0000 0.87203  0.47670  0.41183  Biso   1.000  C
  C120     1.0000 0.83965  0.55240  0.52940  Biso   1.000  C
  C121     1.0000 0.03898  0.36120  0.58406  Biso   1.000  C
  H80      1.0000 0.01870  0.38420  0.60570  Biso   1.000  H
  C122     1.0000 0.74800  0.62690  0.53051  Biso   1.000  C
  H81      1.0000 0.70560  0.64940  0.51030  Biso   1.000  H
  C123     1.0000 0.81604  0.67500  0.03286  Biso   1.000  C
  C124     1.0000 0.84174  0.48660  0.34823  Biso   1.000  C
  C125     1.0000 0.04293  0.33410  0.49449  Biso   1.000  C
  H82      1.0000 0.02540  0.33810  0.45460  Biso   1.000  H
  C126     1.0000 0.72020  0.69860  0.75929  Biso   1.000  C
  H83      1.0000 0.67810  0.67460  0.74020  Biso   1.000  H
  C127     1.0000 0.78770  0.53840  0.32156  Biso   1.000  C
  H84      1.0000 0.77150  0.56890  0.34330  Biso   1.000  H
  C128     1.0000 0.01773  0.85780  0.08089  Biso   1.000  C
  H85      1.0000 0.99800  0.83480  0.10300  Biso   1.000  H
  C129     1.0000 0.80926  0.74270  0.84776  Biso   1.000  C
  C130     1.0000 0.83895  0.60470  0.61525  Biso   1.000  C
  H86      1.0000 0.86110  0.61210  0.65490  Biso   1.000  H
  C131     1.0000 0.95012  0.42270  0.49421  Biso   1.000  C
  C132     1.0000 0.74660  0.70740  0.81828  Biso   1.000  C
  H87      1.0000 0.72250  0.68980  0.83830  Biso   1.000  H
  C133     1.0000 0.84340  0.76810  0.81588  Biso   1.000  C
  H88      1.0000 0.88560  0.79210  0.83390  Biso   1.000  H
  C134     1.0000 0.81320  0.75710  0.75681  Biso   1.000  C
  H89      1.0000 0.83630  0.77420  0.73590  Biso   1.000  H
  C135     1.0000 0.75830  0.54390  0.26235  Biso   1.000  C
  H90      1.0000 0.72250  0.57950  0.24490  Biso   1.000  H
  C136     1.0000 0.10110  0.29060  0.52508  Biso   1.000  C
  H91      1.0000 0.12240  0.26660  0.50460  Biso   1.000  H
  C137     1.0000 0.98748  0.84990  0.02183  Biso   1.000  C
  C138     1.0000 0.84126  0.75240  0.91139  Biso   1.000  C
  C139     1.0000 0.84440  0.67460  0.09215  Biso   1.000  C
  H92      1.0000 0.88380  0.70310  0.11320  Biso   1.000  H
  C140     1.0000 0.86650  0.44450  0.31458  Biso   1.000  C
  H93      1.0000 0.90430  0.41170  0.33120  Biso   1.000  H
  C141     1.0000 0.07790  0.92830  0.02007  Biso   1.000  C
  H94      1.0000 0.09810  0.95280  0.99890  Biso   1.000  H
  C142     1.0000 0.01077  0.37200  0.52469  Biso   1.000  C
  C143     1.0000 0.83280  0.45330  0.25560  Biso   1.000  C
  H95      1.0000 0.84890  0.42420  0.23310  Biso   1.000  H
  C144     1.0000 0.81330  0.63110  0.11990  Biso   1.000  C
  H96      1.0000 0.83350  0.62990  0.16000  Biso   1.000  H
  N37      1.0000 0.12875  0.28079  0.58238  Biso   1.000  N
  N38      1.0000 0.77763  0.63560  0.58782  Biso   1.000  N
  N39      1.0000 0.77880  0.50020  0.22820  Biso   1.000  N
  N40      1.0000 0.92532  0.46100  0.52700  Biso   1.000  N
  N41      1.0000 0.84373  0.51850  0.44016  Biso   1.000  N
  N42      1.0000 0.92512  0.42750  0.43685  Biso   1.000  N
  N43      1.0000 0.75529  0.59020  0.09196  Biso   1.000  N
  N44      1.0000 0.75299  0.72330  0.72803  Biso   1.000  N
  N45      1.0000 0.10827  0.93520  0.07788  Biso   1.000  N
  N46      1.0000 0.90249  0.76020  0.02651  Biso   1.000  N
  N47      1.0000 0.81301  0.71260  0.94067  Biso   1.000  N
  N48      1.0000 0.89595  0.79930  0.93519  Biso   1.000  N
  Ag9      1.0000 0.72604  0.29129  0.13175  Biso   1.000  Ag
  Ag10     1.0000 0.20528  0.99943  0.63230  Biso   1.000  Ag
  C145     1.0000 0.37201  0.93780  0.08869  Biso   1.000  C
  H97      1.0000 0.41470  0.95920  0.11000  Biso   1.000  H
  C146     1.0000 0.57731  0.60000  0.60731  Biso   1.000  C
  H98      1.0000 0.59700  0.59570  0.64730  Biso   1.000  H
  C147     1.0000 0.34583  0.78090  0.49841  Biso   1.000  C
  C148     1.0000 0.37172  0.99280  0.99727  Biso   1.000  C
  C149     1.0000 0.51815  0.61310  0.49033  Biso   1.000  C
  H99      1.0000 0.49890  0.61610  0.45030  Biso   1.000  H
  C150     1.0000 0.59682  0.18360  0.11073  Biso   1.000  C
  H100     1.0000 0.61490  0.18950  0.15060  Biso   1.000  H
  C151     1.0000 0.25648  0.86680  0.50343  Biso   1.000  C
  H101     1.0000 0.23590  0.86730  0.46330  Biso   1.000  H
  C152     1.0000 0.42478  0.69900  0.49259  Biso   1.000  C
  C153     1.0000 0.27662  0.91330  0.99990  Biso   1.000  C
  H102     1.0000 0.25410  0.91750  0.96000  Biso   1.000  H
  C154     1.0000 0.22792  0.90770  0.53448  Biso   1.000  C
  H103     1.0000 0.18770  0.93520  0.51430  Biso   1.000  H
  C155     1.0000 0.37203  0.02330  0.91183  Biso   1.000  C
  C156     1.0000 0.33965  0.94760  0.02940  Biso   1.000  C
  C157     1.0000 0.53898  0.13880  0.08406  Biso   1.000  C
  H104     1.0000 0.51870  0.11580  0.10570  Biso   1.000  H
  C158     1.0000 0.24800  0.87310  0.03051  Biso   1.000  C
  H105     1.0000 0.20560  0.85060  0.01030  Biso   1.000  H
  C159     1.0000 0.31604  0.82500  0.53286  Biso   1.000  C
  C160     1.0000 0.34174  0.01340  0.84823  Biso   1.000  C
  C161     1.0000 0.54293  0.16590  0.99449  Biso   1.000  C
  H106     1.0000 0.52540  0.16190  0.95460  Biso   1.000  H
  C162     1.0000 0.22020  0.80140  0.25929  Biso   1.000  C
  H107     1.0000 0.17810  0.82540  0.24020  Biso   1.000  H
  C163     1.0000 0.28770  0.96160  0.82156  Biso   1.000  C
  H108     1.0000 0.27150  0.93110  0.84330  Biso   1.000  H
  C164     1.0000 0.51773  0.64220  0.58089  Biso   1.000  C
  H109     1.0000 0.49800  0.66520  0.60300  Biso   1.000  H
  C165     1.0000 0.30926  0.75730  0.34776  Biso   1.000  C
  C166     1.0000 0.33895  0.89530  0.11525  Biso   1.000  C
  H110     1.0000 0.36110  0.88790  0.15490  Biso   1.000  H
  C167     1.0000 0.45012  0.07730  0.99421  Biso   1.000  C
  C168     1.0000 0.24660  0.79260  0.31828  Biso   1.000  C
  H111     1.0000 0.22250  0.81020  0.33830  Biso   1.000  H
  C169     1.0000 0.34340  0.73190  0.31588  Biso   1.000  C
  H112     1.0000 0.38560  0.70790  0.33390  Biso   1.000  H
  C170     1.0000 0.31320  0.74290  0.25681  Biso   1.000  C
  H113     1.0000 0.33630  0.72580  0.23590  Biso   1.000  H
  C171     1.0000 0.25830  0.95610  0.76235  Biso   1.000  C
  H114     1.0000 0.22250  0.92050  0.74490  Biso   1.000  H
  C172     1.0000 0.60110  0.20940  0.02508  Biso   1.000  C
  H115     1.0000 0.62240  0.23340  0.00460  Biso   1.000  H
  C173     1.0000 0.48748  0.65010  0.52183  Biso   1.000  C
  C174     1.0000 0.34126  0.74760  0.41139  Biso   1.000  C
  C175     1.0000 0.34440  0.82540  0.59215  Biso   1.000  C
  H116     1.0000 0.38380  0.79690  0.61320  Biso   1.000  H
  C176     1.0000 0.36650  0.05550  0.81458  Biso   1.000  C
  H117     1.0000 0.40430  0.08830  0.83120  Biso   1.000  H
  C177     1.0000 0.57790  0.57170  0.52007  Biso   1.000  C
  H118     1.0000 0.59810  0.54720  0.49890  Biso   1.000  H
  C178     1.0000 0.51077  0.12800  0.02469  Biso   1.000  C
  C179     1.0000 0.33280  0.04670  0.75560  Biso   1.000  C
  H119     1.0000 0.34890  0.07580  0.73310  Biso   1.000  H
  C180     1.0000 0.31330  0.86890  0.61990  Biso   1.000  C
  H120     1.0000 0.33350  0.87010  0.66000  Biso   1.000  H
  N49      1.0000 0.62875  0.21921  0.08238  Biso   1.000  N
  N50      1.0000 0.27763  0.86440  0.08782  Biso   1.000  N
  N51      1.0000 0.27880  0.99980  0.72820  Biso   1.000  N
  N52      1.0000 0.42532  0.03900  0.02700  Biso   1.000  N
  N53      1.0000 0.34373  0.98150  0.94016  Biso   1.000  N
  N54      1.0000 0.42512  0.07250  0.93685  Biso   1.000  N
  N55      1.0000 0.25529  0.90980  0.59196  Biso   1.000  N
  N56      1.0000 0.25299  0.77670  0.22803  Biso   1.000  N
  N57      1.0000 0.60827  0.56480  0.57788  Biso   1.000  N
  N58      1.0000 0.40249  0.73980  0.52651  Biso   1.000  N
  N59      1.0000 0.31301  0.78740  0.44067  Biso   1.000  N
  N60      1.0000 0.39595  0.70070  0.43519  Biso   1.000  N
  Ag11     1.0000 0.22604  0.79129  0.13175  Biso   1.000  Ag
  Ag12     1.0000 0.70528  0.49943  0.63230  Biso   1.000  Ag
  C181     1.0000 0.87201  0.43780  0.08869  Biso   1.000  C
  H121     1.0000 0.91470  0.45920  0.11000  Biso   1.000  H
  C182     1.0000 0.07731  0.10000  0.60731  Biso   1.000  C
  H122     1.0000 0.09700  0.09570  0.64730  Biso   1.000  H
  C183     1.0000 0.84583  0.28090  0.49841  Biso   1.000  C
  C184     1.0000 0.87172  0.49280  0.99727  Biso   1.000  C
  C185     1.0000 0.01815  0.11310  0.49033  Biso   1.000  C
  H123     1.0000 0.99890  0.11610  0.45030  Biso   1.000  H
  C186     1.0000 0.09682  0.68360  0.11073  Biso   1.000  C
  H124     1.0000 0.11490  0.68950  0.15060  Biso   1.000  H
  C187     1.0000 0.75648  0.36680  0.50343  Biso   1.000  C
  H125     1.0000 0.73590  0.36730  0.46330  Biso   1.000  H
  C188     1.0000 0.92478  0.19900  0.49259  Biso   1.000  C
  C189     1.0000 0.77662  0.41330  0.99990  Biso   1.000  C
  H126     1.0000 0.75410  0.41750  0.96000  Biso   1.000  H
  C190     1.0000 0.72792  0.40770  0.53448  Biso   1.000  C
  H127     1.0000 0.68770  0.43520  0.51430  Biso   1.000  H
  C191     1.0000 0.87203  0.52330  0.91183  Biso   1.000  C
  C192     1.0000 0.83965  0.44760  0.02940  Biso   1.000  C
  C193     1.0000 0.03898  0.63880  0.08406  Biso   1.000  C
  H128     1.0000 0.01870  0.61580  0.10570  Biso   1.000  H
  C194     1.0000 0.74800  0.37310  0.03051  Biso   1.000  C
  H129     1.0000 0.70560  0.35060  0.01030  Biso   1.000  H
  C195     1.0000 0.81604  0.32500  0.53286  Biso   1.000  C
  C196     1.0000 0.84174  0.51340  0.84823  Biso   1.000  C
  C197     1.0000 0.04293  0.66590  0.99449  Biso   1.000  C
  H130     1.0000 0.02540  0.66190  0.95460  Biso   1.000  H
  C198     1.0000 0.72020  0.30140  0.25929  Biso   1.000  C
  H131     1.0000 0.67810  0.32540  0.24020  Biso   1.000  H
  C199     1.0000 0.78770  0.46160  0.82156  Biso   1.000  C
  H132     1.0000 0.77150  0.43110  0.84330  Biso   1.000  H
  C200     1.0000 0.01773  0.14220  0.58089  Biso   1.000  C
  H133     1.0000 0.99800  0.16520  0.60300  Biso   1.000  H
  C201     1.0000 0.80926  0.25730  0.34776  Biso   1.000  C
  C202     1.0000 0.83895  0.39530  0.11525  Biso   1.000  C
  H134     1.0000 0.86110  0.38790  0.15490  Biso   1.000  H
  C203     1.0000 0.95012  0.57730  0.99421  Biso   1.000  C
  C204     1.0000 0.74660  0.29260  0.31828  Biso   1.000  C
  H135     1.0000 0.72250  0.31020  0.33830  Biso   1.000  H
  C205     1.0000 0.84340  0.23190  0.31588  Biso   1.000  C
  H136     1.0000 0.88560  0.20790  0.33390  Biso   1.000  H
  C206     1.0000 0.81320  0.24290  0.25681  Biso   1.000  C
  H137     1.0000 0.83630  0.22580  0.23590  Biso   1.000  H
  C207     1.0000 0.75830  0.45610  0.76235  Biso   1.000  C
  H138     1.0000 0.72250  0.42050  0.74490  Biso   1.000  H
  C208     1.0000 0.10110  0.70940  0.02508  Biso   1.000  C
  H139     1.0000 0.12240  0.73340  0.00460  Biso   1.000  H
  C209     1.0000 0.98748  0.15010  0.52183  Biso   1.000  C
  C210     1.0000 0.84126  0.24760  0.41139  Biso   1.000  C
  C211     1.0000 0.84440  0.32540  0.59215  Biso   1.000  C
  H140     1.0000 0.88380  0.29690  0.61320  Biso   1.000  H
  C212     1.0000 0.86650  0.55550  0.81458  Biso   1.000  C
  H141     1.0000 0.90430  0.58830  0.83120  Biso   1.000  H
  C213     1.0000 0.07790  0.07170  0.52007  Biso   1.000  C
  H142     1.0000 0.09810  0.04720  0.49890  Biso   1.000  H
  C214     1.0000 0.01077  0.62800  0.02469  Biso   1.000  C
  C215     1.0000 0.83280  0.54670  0.75560  Biso   1.000  C
  H143     1.0000 0.84890  0.57580  0.73310  Biso   1.000  H
  C216     1.0000 0.81330  0.36890  0.61990  Biso   1.000  C
  H144     1.0000 0.83350  0.37010  0.66000  Biso   1.000  H
  N61      1.0000 0.12875  0.71921  0.08238  Biso   1.000  N
  N62      1.0000 0.77763  0.36440  0.08782  Biso   1.000  N
  N63      1.0000 0.77880  0.49980  0.72820  Biso   1.000  N
  N64      1.0000 0.92532  0.53900  0.02700  Biso   1.000  N
  N65      1.0000 0.84373  0.48150  0.94016  Biso   1.000  N
  N66      1.0000 0.92512  0.57250  0.93685  Biso   1.000  N
  N67      1.0000 0.75529  0.40980  0.59196  Biso   1.000  N
  N68      1.0000 0.75299  0.27670  0.22803  Biso   1.000  N
  N69      1.0000 0.10827  0.06480  0.57788  Biso   1.000  N
  N70      1.0000 0.90249  0.23980  0.52651  Biso   1.000  N
  N71      1.0000 0.81301  0.28740  0.44067  Biso   1.000  N
  N72      1.0000 0.89595  0.20070  0.43519  Biso   1.000  N
  Ag13     1.0000 0.27396  0.29129  0.36825  Biso   1.000  Ag
  Ag14     1.0000 0.79472  0.99943  0.86770  Biso   1.000  Ag
  C217     1.0000 0.62799  0.93780  0.41131  Biso   1.000  C
  H145     1.0000 0.58530  0.95920  0.39000  Biso   1.000  H
  C218     1.0000 0.42269  0.60000  0.89269  Biso   1.000  C
  H146     1.0000 0.40300  0.59570  0.85270  Biso   1.000  H
  C219     1.0000 0.65417  0.78090  0.00159  Biso   1.000  C
  C220     1.0000 0.62828  0.99280  0.50273  Biso   1.000  C
  C221     1.0000 0.48185  0.61310  0.00967  Biso   1.000  C
  H147     1.0000 0.50110  0.61610  0.04970  Biso   1.000  H
  C222     1.0000 0.40318  0.18360  0.38927  Biso   1.000  C
  H148     1.0000 0.38510  0.18950  0.34940  Biso   1.000  H
  C223     1.0000 0.74352  0.86680  0.99657  Biso   1.000  C
  H149     1.0000 0.76410  0.86730  0.03670  Biso   1.000  H
  C224     1.0000 0.57522  0.69900  0.00741  Biso   1.000  C
  C225     1.0000 0.72338  0.91330  0.50010  Biso   1.000  C
  H150     1.0000 0.74590  0.91750  0.54000  Biso   1.000  H
  C226     1.0000 0.77208  0.90770  0.96552  Biso   1.000  C
  H151     1.0000 0.81230  0.93520  0.98570  Biso   1.000  H
  C227     1.0000 0.62797  0.02330  0.58817  Biso   1.000  C
  C228     1.0000 0.66035  0.94760  0.47060  Biso   1.000  C
  C229     1.0000 0.46102  0.13880  0.41594  Biso   1.000  C
  H152     1.0000 0.48130  0.11580  0.39430  Biso   1.000  H
  C230     1.0000 0.75200  0.87310  0.46949  Biso   1.000  C
  H153     1.0000 0.79440  0.85060  0.48970  Biso   1.000  H
  C231     1.0000 0.68396  0.82500  0.96714  Biso   1.000  C
  C232     1.0000 0.65826  0.01340  0.65177  Biso   1.000  C
  C233     1.0000 0.45707  0.16590  0.50551  Biso   1.000  C
  H154     1.0000 0.47460  0.16190  0.54540  Biso   1.000  H
  C234     1.0000 0.77980  0.80140  0.24071  Biso   1.000  C
  H155     1.0000 0.82190  0.82540  0.25980  Biso   1.000  H
  C235     1.0000 0.71230  0.96160  0.67844  Biso   1.000  C
  H156     1.0000 0.72850  0.93110  0.65670  Biso   1.000  H
  C236     1.0000 0.48227  0.64220  0.91911  Biso   1.000  C
  H157     1.0000 0.50200  0.66520  0.89700  Biso   1.000  H
  C237     1.0000 0.69074  0.75730  0.15224  Biso   1.000  C
  C238     1.0000 0.66105  0.89530  0.38475  Biso   1.000  C
  H158     1.0000 0.63890  0.88790  0.34510  Biso   1.000  H
  C239     1.0000 0.54988  0.07730  0.50579  Biso   1.000  C
  C240     1.0000 0.75340  0.79260  0.18172  Biso   1.000  C
  H159     1.0000 0.77750  0.81020  0.16170  Biso   1.000  H
  C241     1.0000 0.65660  0.73190  0.18412  Biso   1.000  C
  H160     1.0000 0.61440  0.70790  0.16610  Biso   1.000  H
  C242     1.0000 0.68680  0.74290  0.24319  Biso   1.000  C
  H161     1.0000 0.66370  0.72580  0.26410  Biso   1.000  H
  C243     1.0000 0.74170  0.95610  0.73765  Biso   1.000  C
  H162     1.0000 0.77750  0.92050  0.75510  Biso   1.000  H
  C244     1.0000 0.39890  0.20940  0.47492  Biso   1.000  C
  H163     1.0000 0.37760  0.23340  0.49540  Biso   1.000  H
  C245     1.0000 0.51252  0.65010  0.97817  Biso   1.000  C
  C246     1.0000 0.65874  0.74760  0.08861  Biso   1.000  C
  C247     1.0000 0.65560  0.82540  0.90785  Biso   1.000  C
  H164     1.0000 0.61620  0.79690  0.88680  Biso   1.000  H
  C248     1.0000 0.63350  0.05550  0.68542  Biso   1.000  C
  H165     1.0000 0.59570  0.08830  0.66880  Biso   1.000  H
  C249     1.0000 0.42210  0.57170  0.97993  Biso   1.000  C
  H166     1.0000 0.40190  0.54720  0.00110  Biso   1.000  H
  C250     1.0000 0.48923  0.12800  0.47531  Biso   1.000  C
  C251     1.0000 0.66720  0.04670  0.74440  Biso   1.000  C
  H167     1.0000 0.65110  0.07580  0.76690  Biso   1.000  H
  C252     1.0000 0.68670  0.86890  0.88010  Biso   1.000  C
  H168     1.0000 0.66650  0.87010  0.84000  Biso   1.000  H
  N73      1.0000 0.37125  0.21921  0.41762  Biso   1.000  N
  N74      1.0000 0.72237  0.86440  0.41218  Biso   1.000  N
  N75      1.0000 0.72120  0.99980  0.77180  Biso   1.000  N
  N76      1.0000 0.57468  0.03900  0.47300  Biso   1.000  N
  N77      1.0000 0.65627  0.98150  0.55984  Biso   1.000  N
  N78      1.0000 0.57488  0.07250  0.56315  Biso   1.000  N
  N79      1.0000 0.74471  0.90980  0.90804  Biso   1.000  N
  N80      1.0000 0.74701  0.77670  0.27197  Biso   1.000  N
  N81      1.0000 0.39173  0.56480  0.92212  Biso   1.000  N
  N82      1.0000 0.59751  0.73980  0.97349  Biso   1.000  N
  N83      1.0000 0.68699  0.78740  0.05933  Biso   1.000  N
  N84      1.0000 0.60405  0.70070  0.06481  Biso   1.000  N
  Ag15     1.0000 0.77396  0.79129  0.36825  Biso   1.000  Ag
  Ag16     1.0000 0.29472  0.49943  0.86770  Biso   1.000  Ag
  C253     1.0000 0.12799  0.43780  0.41131  Biso   1.000  C
  H169     1.0000 0.08530  0.45920  0.39000  Biso   1.000  H
  C254     1.0000 0.92269  0.10000  0.89269  Biso   1.000  C
  H170     1.0000 0.90300  0.09570  0.85270  Biso   1.000  H
  C255     1.0000 0.15417  0.28090  0.00159  Biso   1.000  C
  C256     1.0000 0.12828  0.49280  0.50273  Biso   1.000  C
  C257     1.0000 0.98185  0.11310  0.00967  Biso   1.000  C
  H171     1.0000 0.00110  0.11610  0.04970  Biso   1.000  H
  C258     1.0000 0.90318  0.68360  0.38927  Biso   1.000  C
  H172     1.0000 0.88510  0.68950  0.34940  Biso   1.000  H
  C259     1.0000 0.24352  0.36680  0.99657  Biso   1.000  C
  H173     1.0000 0.26410  0.36730  0.03670  Biso   1.000  H
  C260     1.0000 0.07522  0.19900  0.00741  Biso   1.000  C
  C261     1.0000 0.22338  0.41330  0.50010  Biso   1.000  C
  H174     1.0000 0.24590  0.41750  0.54000  Biso   1.000  H
  C262     1.0000 0.27208  0.40770  0.96552  Biso   1.000  C
  H175     1.0000 0.31230  0.43520  0.98570  Biso   1.000  H
  C263     1.0000 0.12797  0.52330  0.58817  Biso   1.000  C
  C264     1.0000 0.16035  0.44760  0.47060  Biso   1.000  C
  C265     1.0000 0.96102  0.63880  0.41594  Biso   1.000  C
  H176     1.0000 0.98130  0.61580  0.39430  Biso   1.000  H
  C266     1.0000 0.25200  0.37310  0.46949  Biso   1.000  C
  H177     1.0000 0.29440  0.35060  0.48970  Biso   1.000  H
  C267     1.0000 0.18396  0.32500  0.96714  Biso   1.000  C
  C268     1.0000 0.15826  0.51340  0.65177  Biso   1.000  C
  C269     1.0000 0.95707  0.66590  0.50551  Biso   1.000  C
  H178     1.0000 0.97460  0.66190  0.54540  Biso   1.000  H
  C270     1.0000 0.27980  0.30140  0.24071  Biso   1.000  C
  H179     1.0000 0.32190  0.32540  0.25980  Biso   1.000  H
  C271     1.0000 0.21230  0.46160  0.67844  Biso   1.000  C
  H180     1.0000 0.22850  0.43110  0.65670  Biso   1.000  H
  C272     1.0000 0.98227  0.14220  0.91911  Biso   1.000  C
  H181     1.0000 0.00200  0.16520  0.89700  Biso   1.000  H
  C273     1.0000 0.19074  0.25730  0.15224  Biso   1.000  C
  C274     1.0000 0.16105  0.39530  0.38475  Biso   1.000  C
  H182     1.0000 0.13890  0.38790  0.34510  Biso   1.000  H
  C275     1.0000 0.04988  0.57730  0.50579  Biso   1.000  C
  C276     1.0000 0.25340  0.29260  0.18172  Biso   1.000  C
  H183     1.0000 0.27750  0.31020  0.16170  Biso   1.000  H
  C277     1.0000 0.15660  0.23190  0.18412  Biso   1.000  C
  H184     1.0000 0.11440  0.20790  0.16610  Biso   1.000  H
  C278     1.0000 0.18680  0.24290  0.24319  Biso   1.000  C
  H185     1.0000 0.16370  0.22580  0.26410  Biso   1.000  H
  C279     1.0000 0.24170  0.45610  0.73765  Biso   1.000  C
  H186     1.0000 0.27750  0.42050  0.75510  Biso   1.000  H
  C280     1.0000 0.89890  0.70940  0.47492  Biso   1.000  C
  H187     1.0000 0.87760  0.73340  0.49540  Biso   1.000  H
  C281     1.0000 0.01252  0.15010  0.97817  Biso   1.000  C
  C282     1.0000 0.15874  0.24760  0.08861  Biso   1.000  C
  C283     1.0000 0.15560  0.32540  0.90785  Biso   1.000  C
  H188     1.0000 0.11620  0.29690  0.88680  Biso   1.000  H
  C284     1.0000 0.13350  0.55550  0.68542  Biso   1.000  C
  H189     1.0000 0.09570  0.58830  0.66880  Biso   1.000  H
  C285     1.0000 0.92210  0.07170  0.97993  Biso   1.000  C
  H190     1.0000 0.90190  0.04720  0.00110  Biso   1.000  H
  C286     1.0000 0.98923  0.62800  0.47531  Biso   1.000  C
  C287     1.0000 0.16720  0.54670  0.74440  Biso   1.000  C
  H191     1.0000 0.15110  0.57580  0.76690  Biso   1.000  H
  C288     1.0000 0.18670  0.36890  0.88010  Biso   1.000  C
  H192     1.0000 0.16650  0.37010  0.84000  Biso   1.000  H
  N85      1.0000 0.87125  0.71921  0.41762  Biso   1.000  N
  N86      1.0000 0.22237  0.36440  0.41218  Biso   1.000  N
  N87      1.0000 0.22120  0.49980  0.77180  Biso   1.000  N
  N88      1.0000 0.07468  0.53900  0.47300  Biso   1.000  N
  N89      1.0000 0.15627  0.48150  0.55984  Biso   1.000  N
  N90      1.0000 0.07488  0.57250  0.56315  Biso   1.000  N
  N91      1.0000 0.24471  0.40980  0.90804  Biso   1.000  N
  N92      1.0000 0.24701  0.27670  0.27197  Biso   1.000  N
  N93      1.0000 0.89173  0.06480  0.92212  Biso   1.000  N
  N94      1.0000 0.09751  0.23980  0.97349  Biso   1.000  N
  N95      1.0000 0.18699  0.28740  0.05933  Biso   1.000  N
  N96      1.0000 0.10405  0.20070  0.06481  Biso   1.000  N
