data_image0
_cell_length_a       22.0366
_cell_length_b       16.4532
_cell_length_c       25.6805
_cell_angle_alpha    90
_cell_angle_beta     115.397
_cell_angle_gamma    90

_symmetry_space_group_name_H-M    "P 1"
_symmetry_int_tables_number       1

loop_
  _symmetry_equiv_pos_as_xyz
  'x, y, z'

loop_
  _atom_site_label
  _atom_site_occupancy
  _atom_site_fract_x
  _atom_site_fract_y
  _atom_site_fract_z
  _atom_site_thermal_displace_type
  _atom_site_B_iso_or_equiv
  _atom_site_type_symbol
  Ag1      1.0000 0.27404  0.70856  0.86820  Biso   1.000  Ag
  Ag2      1.0000 0.79465  0.00021  0.36768  Biso   1.000  Ag
  C1       1.0000 0.62836  0.06210  0.91179  Biso   1.000  C
  H1       1.0000 0.58580  0.04040  0.89060  Biso   1.000  H
  C2       1.0000 0.42295  0.40000  0.39285  Biso   1.000  C
  H2       1.0000 0.40330  0.40430  0.35290  Biso   1.000  H
  C3       1.0000 0.62842  0.00750  0.00282  Biso   1.000  C
  C4       1.0000 0.65412  0.21900  0.50174  Biso   1.000  C
  C5       1.0000 0.48163  0.38690  0.50950  Biso   1.000  C
  H3       1.0000 0.50060  0.38360  0.54950  Biso   1.000  H
  C6       1.0000 0.40311  0.81660  0.88888  Biso   1.000  C
  H4       1.0000 0.38500  0.81080  0.84900  Biso   1.000  H
  C7       1.0000 0.74388  0.13310  0.49673  Biso   1.000  C
  H5       1.0000 0.76470  0.13280  0.53680  Biso   1.000  H
  C8       1.0000 0.72318  0.08640  0.00014  Biso   1.000  C
  H6       1.0000 0.74550  0.08210  0.04000  Biso   1.000  H
  C9       1.0000 0.57523  0.30090  0.50731  Biso   1.000  C
  C10      1.0000 0.66041  0.05250  0.97072  Biso   1.000  C
  C11      1.0000 0.62810  0.97640  0.08825  Biso   1.000  C
  C12      1.0000 0.77212  0.09250  0.46566  Biso   1.000  C
  H7       1.0000 0.81250  0.06520  0.48580  Biso   1.000  H
  C13      1.0000 0.46113  0.86090  0.91585  Biso   1.000  C
  H8       1.0000 0.48180  0.88350  0.89440  Biso   1.000  H
  C14      1.0000 0.78000  0.19830  0.74082  Biso   1.000  C
  H9       1.0000 0.82210  0.17460  0.75990  Biso   1.000  H
  C15      1.0000 0.65853  0.98690  0.15185  Biso   1.000  C
  C16      1.0000 0.69090  0.24270  0.65244  Biso   1.000  C
  C17      1.0000 0.75254  0.12710  0.96965  Biso   1.000  C
  H10      1.0000 0.79510  0.14940  0.98990  Biso   1.000  H
  C18      1.0000 0.55014  0.92260  0.00605  Biso   1.000  C
  C19      1.0000 0.66106  0.10510  0.88467  Biso   1.000  C
  H11      1.0000 0.63870  0.11270  0.84500  Biso   1.000  H
  C20      1.0000 0.71218  0.03860  0.17865  Biso   1.000  C
  H12      1.0000 0.72800  0.06980  0.15690  Biso   1.000  H
  C21      1.0000 0.48236  0.35800  0.41910  Biso   1.000  C
  H13      1.0000 0.50210  0.33510  0.39700  Biso   1.000  H
  C22      1.0000 0.68425  0.17440  0.46749  Biso   1.000  C
  C23      1.0000 0.45688  0.83410  0.00548  Biso   1.000  C
  H14      1.0000 0.47440  0.83790  0.04540  Biso   1.000  H
  C24      1.0000 0.75343  0.20730  0.68173  Biso   1.000  C
  H15      1.0000 0.77750  0.18960  0.66170  Biso   1.000  H
  C25      1.0000 0.68690  0.25690  0.74328  Biso   1.000  C
  H16      1.0000 0.66390  0.27420  0.76430  Biso   1.000  H
  C26      1.0000 0.65630  0.26830  0.68386  Biso   1.000  C
  H17      1.0000 0.61410  0.29230  0.66570  Biso   1.000  H
  C27      1.0000 0.51278  0.35000  0.47833  Biso   1.000  C
  C28      1.0000 0.65893  0.25250  0.58855  Biso   1.000  C
  C29      1.0000 0.74210  0.04380  0.23781  Biso   1.000  C
  H18      1.0000 0.77830  0.07890  0.25530  Biso   1.000  H
  C30      1.0000 0.39894  0.79090  0.97480  Biso   1.000  C
  H19      1.0000 0.37760  0.76690  0.99520  Biso   1.000  H
  C31      1.0000 0.65563  0.17470  0.40809  Biso   1.000  C
  H20      1.0000 0.61630  0.20360  0.38730  Biso   1.000  H
  C32      1.0000 0.63376  0.94490  0.18561  Biso   1.000  C
  H21      1.0000 0.59570  0.91230  0.16890  Biso   1.000  H
  C33      1.0000 0.66740  0.95310  0.24475  Biso   1.000  C
  H22      1.0000 0.65140  0.92390  0.26730  Biso   1.000  H
  C34      1.0000 0.42193  0.42860  0.47980  Biso   1.000  C
  H23      1.0000 0.40170  0.45320  0.50090  Biso   1.000  H
  C35      1.0000 0.48905  0.87220  0.97533  Biso   1.000  C
  C36      1.0000 0.68672  0.13120  0.38001  Biso   1.000  C
  H24      1.0000 0.66650  0.13030  0.33990  Biso   1.000  H
  N1       1.0000 0.37117  0.78101  0.91746  Biso   1.000  N
  N2       1.0000 0.72246  0.13590  0.91219  Biso   1.000  N
  N3       1.0000 0.72127  0.00010  0.27168  Biso   1.000  N
  N4       1.0000 0.57480  0.96111  0.97307  Biso   1.000  N
  N5       1.0000 0.65627  0.01856  0.05975  Biso   1.000  N
  N6       1.0000 0.57485  0.92718  0.06336  Biso   1.000  N
  N7       1.0000 0.74459  0.09010  0.40779  Biso   1.000  N
  N8       1.0000 0.39180  0.43528  0.42208  Biso   1.000  N
  N9       1.0000 0.74691  0.22280  0.77201  Biso   1.000  N
  N10      1.0000 0.59747  0.26002  0.47353  Biso   1.000  N
  N11      1.0000 0.60422  0.29900  0.56492  Biso   1.000  N
  N12      1.0000 0.68724  0.21254  0.55933  Biso   1.000  N
  Ag3      1.0000 0.77404  0.20856  0.86820  Biso   1.000  Ag
  Ag4      1.0000 0.29465  0.50021  0.36768  Biso   1.000  Ag
  C37      1.0000 0.12836  0.56210  0.91179  Biso   1.000  C
  H25      1.0000 0.08580  0.54040  0.89060  Biso   1.000  H
  C38      1.0000 0.92295  0.90000  0.39285  Biso   1.000  C
  H26      1.0000 0.90330  0.90430  0.35290  Biso   1.000  H
  C39      1.0000 0.12842  0.50750  0.00282  Biso   1.000  C
  C40      1.0000 0.15412  0.71900  0.50174  Biso   1.000  C
  C41      1.0000 0.98163  0.88690  0.50950  Biso   1.000  C
  H27      1.0000 0.00060  0.88360  0.54950  Biso   1.000  H
  C42      1.0000 0.90311  0.31660  0.88888  Biso   1.000  C
  H28      1.0000 0.88500  0.31080  0.84900  Biso   1.000  H
  C43      1.0000 0.24388  0.63310  0.49673  Biso   1.000  C
  H29      1.0000 0.26470  0.63280  0.53680  Biso   1.000  H
  C44      1.0000 0.22318  0.58640  0.00014  Biso   1.000  C
  H30      1.0000 0.24550  0.58210  0.04000  Biso   1.000  H
  C45      1.0000 0.07523  0.80090  0.50731  Biso   1.000  C
  C46      1.0000 0.16041  0.55250  0.97072  Biso   1.000  C
  C47      1.0000 0.12810  0.47640  0.08825  Biso   1.000  C
  C48      1.0000 0.27212  0.59250  0.46566  Biso   1.000  C
  H31      1.0000 0.31250  0.56520  0.48580  Biso   1.000  H
  C49      1.0000 0.96113  0.36090  0.91585  Biso   1.000  C
  H32      1.0000 0.98180  0.38350  0.89440  Biso   1.000  H
  C50      1.0000 0.28000  0.69830  0.74082  Biso   1.000  C
  H33      1.0000 0.32210  0.67460  0.75990  Biso   1.000  H
  C51      1.0000 0.15853  0.48690  0.15185  Biso   1.000  C
  C52      1.0000 0.19090  0.74270  0.65244  Biso   1.000  C
  C53      1.0000 0.25254  0.62710  0.96965  Biso   1.000  C
  H34      1.0000 0.29510  0.64940  0.98990  Biso   1.000  H
  C54      1.0000 0.05014  0.42260  0.00605  Biso   1.000  C
  C55      1.0000 0.16106  0.60510  0.88467  Biso   1.000  C
  H35      1.0000 0.13870  0.61270  0.84500  Biso   1.000  H
  C56      1.0000 0.21218  0.53860  0.17865  Biso   1.000  C
  H36      1.0000 0.22800  0.56980  0.15690  Biso   1.000  H
  C57      1.0000 0.98236  0.85800  0.41910  Biso   1.000  C
  H37      1.0000 0.00210  0.83510  0.39700  Biso   1.000  H
  C58      1.0000 0.18425  0.67440  0.46749  Biso   1.000  C
  C59      1.0000 0.95688  0.33410  0.00548  Biso   1.000  C
  H38      1.0000 0.97440  0.33790  0.04540  Biso   1.000  H
  C60      1.0000 0.25343  0.70730  0.68173  Biso   1.000  C
  H39      1.0000 0.27750  0.68960  0.66170  Biso   1.000  H
  C61      1.0000 0.18690  0.75690  0.74328  Biso   1.000  C
  H40      1.0000 0.16390  0.77420  0.76430  Biso   1.000  H
  C62      1.0000 0.15630  0.76830  0.68386  Biso   1.000  C
  H41      1.0000 0.11410  0.79230  0.66570  Biso   1.000  H
  C63      1.0000 0.01278  0.85000  0.47833  Biso   1.000  C
  C64      1.0000 0.15893  0.75250  0.58855  Biso   1.000  C
  C65      1.0000 0.24210  0.54380  0.23781  Biso   1.000  C
  H42      1.0000 0.27830  0.57890  0.25530  Biso   1.000  H
  C66      1.0000 0.89894  0.29090  0.97480  Biso   1.000  C
  H43      1.0000 0.87760  0.26690  0.99520  Biso   1.000  H
  C67      1.0000 0.15563  0.67470  0.40809  Biso   1.000  C
  H44      1.0000 0.11630  0.70360  0.38730  Biso   1.000  H
  C68      1.0000 0.13376  0.44490  0.18561  Biso   1.000  C
  H45      1.0000 0.09570  0.41230  0.16890  Biso   1.000  H
  C69      1.0000 0.16740  0.45310  0.24475  Biso   1.000  C
  H46      1.0000 0.15140  0.42390  0.26730  Biso   1.000  H
  C70      1.0000 0.92193  0.92860  0.47980  Biso   1.000  C
  H47      1.0000 0.90170  0.95320  0.50090  Biso   1.000  H
  C71      1.0000 0.98905  0.37220  0.97533  Biso   1.000  C
  C72      1.0000 0.18672  0.63120  0.38001  Biso   1.000  C
  H48      1.0000 0.16650  0.63030  0.33990  Biso   1.000  H
  N13      1.0000 0.87117  0.28101  0.91746  Biso   1.000  N
  N14      1.0000 0.22246  0.63590  0.91219  Biso   1.000  N
  N15      1.0000 0.22127  0.50010  0.27168  Biso   1.000  N
  N16      1.0000 0.07480  0.46111  0.97307  Biso   1.000  N
  N17      1.0000 0.15627  0.51856  0.05975  Biso   1.000  N
  N18      1.0000 0.07485  0.42718  0.06336  Biso   1.000  N
  N19      1.0000 0.24459  0.59010  0.40779  Biso   1.000  N
  N20      1.0000 0.89180  0.93528  0.42208  Biso   1.000  N
  N21      1.0000 0.24691  0.72280  0.77201  Biso   1.000  N
  N22      1.0000 0.09747  0.76002  0.47353  Biso   1.000  N
  N23      1.0000 0.10422  0.79900  0.56492  Biso   1.000  N
  N24      1.0000 0.18724  0.71254  0.55933  Biso   1.000  N
  Ag5      1.0000 0.72596  0.70856  0.63180  Biso   1.000  Ag
  Ag6      1.0000 0.20535  0.00021  0.13232  Biso   1.000  Ag
  C73      1.0000 0.37164  0.06210  0.58821  Biso   1.000  C
  H49      1.0000 0.41420  0.04040  0.60940  Biso   1.000  H
  C74      1.0000 0.57705  0.40000  0.10715  Biso   1.000  C
  H50      1.0000 0.59670  0.40430  0.14710  Biso   1.000  H
  C75      1.0000 0.37158  0.00750  0.49718  Biso   1.000  C
  C76      1.0000 0.34588  0.21900  0.99826  Biso   1.000  C
  C77      1.0000 0.51837  0.38690  0.99050  Biso   1.000  C
  H51      1.0000 0.49940  0.38360  0.95050  Biso   1.000  H
  C78      1.0000 0.59689  0.81660  0.61112  Biso   1.000  C
  H52      1.0000 0.61500  0.81080  0.65100  Biso   1.000  H
  C79      1.0000 0.25612  0.13310  0.00327  Biso   1.000  C
  H53      1.0000 0.23530  0.13280  0.96320  Biso   1.000  H
  C80      1.0000 0.27682  0.08640  0.49986  Biso   1.000  C
  H54      1.0000 0.25450  0.08210  0.46000  Biso   1.000  H
  C81      1.0000 0.42477  0.30090  0.99269  Biso   1.000  C
  C82      1.0000 0.33959  0.05250  0.52928  Biso   1.000  C
  C83      1.0000 0.37190  0.97640  0.41175  Biso   1.000  C
  C84      1.0000 0.22788  0.09250  0.03434  Biso   1.000  C
  H55      1.0000 0.18750  0.06520  0.01420  Biso   1.000  H
  C85      1.0000 0.53887  0.86090  0.58415  Biso   1.000  C
  H56      1.0000 0.51820  0.88350  0.60560  Biso   1.000  H
  C86      1.0000 0.22000  0.19830  0.75918  Biso   1.000  C
  H57      1.0000 0.17790  0.17460  0.74010  Biso   1.000  H
  C87      1.0000 0.34147  0.98690  0.34815  Biso   1.000  C
  C88      1.0000 0.30910  0.24270  0.84756  Biso   1.000  C
  C89      1.0000 0.24746  0.12710  0.53035  Biso   1.000  C
  H58      1.0000 0.20490  0.14940  0.51010  Biso   1.000  H
  C90      1.0000 0.44986  0.92260  0.49395  Biso   1.000  C
  C91      1.0000 0.33894  0.10510  0.61533  Biso   1.000  C
  H59      1.0000 0.36130  0.11270  0.65500  Biso   1.000  H
  C92      1.0000 0.28782  0.03860  0.32135  Biso   1.000  C
  H60      1.0000 0.27200  0.06980  0.34310  Biso   1.000  H
  C93      1.0000 0.51764  0.35800  0.08090  Biso   1.000  C
  H61      1.0000 0.49790  0.33510  0.10300  Biso   1.000  H
  C94      1.0000 0.31575  0.17440  0.03251  Biso   1.000  C
  C95      1.0000 0.54312  0.83410  0.49452  Biso   1.000  C
  H62      1.0000 0.52560  0.83790  0.45460  Biso   1.000  H
  C96      1.0000 0.24657  0.20730  0.81827  Biso   1.000  C
  H63      1.0000 0.22250  0.18960  0.83830  Biso   1.000  H
  C97      1.0000 0.31310  0.25690  0.75672  Biso   1.000  C
  H64      1.0000 0.33610  0.27420  0.73570  Biso   1.000  H
  C98      1.0000 0.34370  0.26830  0.81614  Biso   1.000  C
  H65      1.0000 0.38590  0.29230  0.83430  Biso   1.000  H
  C99      1.0000 0.48722  0.35000  0.02167  Biso   1.000  C
  C100     1.0000 0.34107  0.25250  0.91145  Biso   1.000  C
  C101     1.0000 0.25790  0.04380  0.26219  Biso   1.000  C
  H66      1.0000 0.22170  0.07890  0.24470  Biso   1.000  H
  C102     1.0000 0.60106  0.79090  0.52520  Biso   1.000  C
  H67      1.0000 0.62240  0.76690  0.50480  Biso   1.000  H
  C103     1.0000 0.34437  0.17470  0.09191  Biso   1.000  C
  H68      1.0000 0.38370  0.20360  0.11270  Biso   1.000  H
  C104     1.0000 0.36624  0.94490  0.31439  Biso   1.000  C
  H69      1.0000 0.40430  0.91230  0.33110  Biso   1.000  H
  C105     1.0000 0.33260  0.95310  0.25525  Biso   1.000  C
  H70      1.0000 0.34860  0.92390  0.23270  Biso   1.000  H
  C106     1.0000 0.57807  0.42860  0.02020  Biso   1.000  C
  H71      1.0000 0.59830  0.45320  0.99910  Biso   1.000  H
  C107     1.0000 0.51095  0.87220  0.52467  Biso   1.000  C
  C108     1.0000 0.31328  0.13120  0.11999  Biso   1.000  C
  H72      1.0000 0.33350  0.13030  0.16010  Biso   1.000  H
  N25      1.0000 0.62883  0.78101  0.58254  Biso   1.000  N
  N26      1.0000 0.27754  0.13590  0.58781  Biso   1.000  N
  N27      1.0000 0.27873  0.00010  0.22832  Biso   1.000  N
  N28      1.0000 0.42520  0.96111  0.52693  Biso   1.000  N
  N29      1.0000 0.34373  0.01856  0.44025  Biso   1.000  N
  N30      1.0000 0.42515  0.92718  0.43664  Biso   1.000  N
  N31      1.0000 0.25541  0.09010  0.09221  Biso   1.000  N
  N32      1.0000 0.60820  0.43528  0.07792  Biso   1.000  N
  N33      1.0000 0.25309  0.22280  0.72799  Biso   1.000  N
  N34      1.0000 0.40253  0.26002  0.02647  Biso   1.000  N
  N35      1.0000 0.39578  0.29900  0.93508  Biso   1.000  N
  N36      1.0000 0.31276  0.21254  0.94067  Biso   1.000  N
  Ag7      1.0000 0.22596  0.20856  0.63180  Biso   1.000  Ag
  Ag8      1.0000 0.70535  0.50021  0.13232  Biso   1.000  Ag
  C109     1.0000 0.87164  0.56210  0.58821  Biso   1.000  C
  H73      1.0000 0.91420  0.54040  0.60940  Biso   1.000  H
  C110     1.0000 0.07705  0.90000  0.10715  Biso   1.000  C
  H74      1.0000 0.09670  0.90430  0.14710  Biso   1.000  H
  C111     1.0000 0.87158  0.50750  0.49718  Biso   1.000  C
  C112     1.0000 0.84588  0.71900  0.99826  Biso   1.000  C
  C113     1.0000 0.01837  0.88690  0.99050  Biso   1.000  C
  H75      1.0000 0.99940  0.88360  0.95050  Biso   1.000  H
  C114     1.0000 0.09689  0.31660  0.61112  Biso   1.000  C
  H76      1.0000 0.11500  0.31080  0.65100  Biso   1.000  H
  C115     1.0000 0.75612  0.63310  0.00327  Biso   1.000  C
  H77      1.0000 0.73530  0.63280  0.96320  Biso   1.000  H
  C116     1.0000 0.77682  0.58640  0.49986  Biso   1.000  C
  H78      1.0000 0.75450  0.58210  0.46000  Biso   1.000  H
  C117     1.0000 0.92477  0.80090  0.99269  Biso   1.000  C
  C118     1.0000 0.83959  0.55250  0.52928  Biso   1.000  C
  C119     1.0000 0.87190  0.47640  0.41175  Biso   1.000  C
  C120     1.0000 0.72788  0.59250  0.03434  Biso   1.000  C
  H79      1.0000 0.68750  0.56520  0.01420  Biso   1.000  H
  C121     1.0000 0.03887  0.36090  0.58415  Biso   1.000  C
  H80      1.0000 0.01820  0.38350  0.60560  Biso   1.000  H
  C122     1.0000 0.72000  0.69830  0.75918  Biso   1.000  C
  H81      1.0000 0.67790  0.67460  0.74010  Biso   1.000  H
  C123     1.0000 0.84147  0.48690  0.34815  Biso   1.000  C
  C124     1.0000 0.80910  0.74270  0.84756  Biso   1.000  C
  C125     1.0000 0.74746  0.62710  0.53035  Biso   1.000  C
  H82      1.0000 0.70490  0.64940  0.51010  Biso   1.000  H
  C126     1.0000 0.94986  0.42260  0.49395  Biso   1.000  C
  C127     1.0000 0.83894  0.60510  0.61533  Biso   1.000  C
  H83      1.0000 0.86130  0.61270  0.65500  Biso   1.000  H
  C128     1.0000 0.78782  0.53860  0.32135  Biso   1.000  C
  H84      1.0000 0.77200  0.56980  0.34310  Biso   1.000  H
  C129     1.0000 0.01764  0.85800  0.08090  Biso   1.000  C
  H85      1.0000 0.99790  0.83510  0.10300  Biso   1.000  H
  C130     1.0000 0.81575  0.67440  0.03251  Biso   1.000  C
  C131     1.0000 0.04312  0.33410  0.49452  Biso   1.000  C
  H86      1.0000 0.02560  0.33790  0.45460  Biso   1.000  H
  C132     1.0000 0.74657  0.70730  0.81827  Biso   1.000  C
  H87      1.0000 0.72250  0.68960  0.83830  Biso   1.000  H
  C133     1.0000 0.81310  0.75690  0.75672  Biso   1.000  C
  H88      1.0000 0.83610  0.77420  0.73570  Biso   1.000  H
  C134     1.0000 0.84370  0.76830  0.81614  Biso   1.000  C
  H89      1.0000 0.88590  0.79230  0.83430  Biso   1.000  H
  C135     1.0000 0.98722  0.85000  0.02167  Biso   1.000  C
  C136     1.0000 0.84107  0.75250  0.91145  Biso   1.000  C
  C137     1.0000 0.75790  0.54380  0.26219  Biso   1.000  C
  H90      1.0000 0.72170  0.57890  0.24470  Biso   1.000  H
  C138     1.0000 0.10106  0.29090  0.52520  Biso   1.000  C
  H91      1.0000 0.12240  0.26690  0.50480  Biso   1.000  H
  C139     1.0000 0.84437  0.67470  0.09191  Biso   1.000  C
  H92      1.0000 0.88370  0.70360  0.11270  Biso   1.000  H
  C140     1.0000 0.86624  0.44490  0.31439  Biso   1.000  C
  H93      1.0000 0.90430  0.41230  0.33110  Biso   1.000  H
  C141     1.0000 0.83260  0.45310  0.25525  Biso   1.000  C
  H94      1.0000 0.84860  0.42390  0.23270  Biso   1.000  H
  C142     1.0000 0.07807  0.92860  0.02020  Biso   1.000  C
  H95      1.0000 0.09830  0.95320  0.99910  Biso   1.000  H
  C143     1.0000 0.01095  0.37220  0.52467  Biso   1.000  C
  C144     1.0000 0.81328  0.63120  0.11999  Biso   1.000  C
  H96      1.0000 0.83350  0.63030  0.16010  Biso   1.000  H
  N37      1.0000 0.12883  0.28101  0.58254  Biso   1.000  N
  N38      1.0000 0.77754  0.63590  0.58781  Biso   1.000  N
  N39      1.0000 0.77873  0.50010  0.22832  Biso   1.000  N
  N40      1.0000 0.92520  0.46111  0.52693  Biso   1.000  N
  N41      1.0000 0.84373  0.51856  0.44025  Biso   1.000  N
  N42      1.0000 0.92515  0.42718  0.43664  Biso   1.000  N
  N43      1.0000 0.75541  0.59010  0.09221  Biso   1.000  N
  N44      1.0000 0.10820  0.93528  0.07792  Biso   1.000  N
  N45      1.0000 0.75309  0.72280  0.72799  Biso   1.000  N
  N46      1.0000 0.90253  0.76002  0.02647  Biso   1.000  N
  N47      1.0000 0.89578  0.79900  0.93508  Biso   1.000  N
  N48      1.0000 0.81276  0.71254  0.94067  Biso   1.000  N
  Ag9      1.0000 0.72596  0.29144  0.13180  Biso   1.000  Ag
  Ag10     1.0000 0.20535  0.99979  0.63232  Biso   1.000  Ag
  C145     1.0000 0.37164  0.93790  0.08821  Biso   1.000  C
  H97      1.0000 0.41420  0.95960  0.10940  Biso   1.000  H
  C146     1.0000 0.57705  0.60000  0.60715  Biso   1.000  C
  H98      1.0000 0.59670  0.59570  0.64710  Biso   1.000  H
  C147     1.0000 0.37158  0.99250  0.99718  Biso   1.000  C
  C148     1.0000 0.34588  0.78100  0.49826  Biso   1.000  C
  C149     1.0000 0.51837  0.61310  0.49050  Biso   1.000  C
  H99      1.0000 0.49940  0.61640  0.45050  Biso   1.000  H
  C150     1.0000 0.59689  0.18340  0.11112  Biso   1.000  C
  H100     1.0000 0.61500  0.18920  0.15100  Biso   1.000  H
  C151     1.0000 0.25612  0.86690  0.50327  Biso   1.000  C
  H101     1.0000 0.23530  0.86720  0.46320  Biso   1.000  H
  C152     1.0000 0.27682  0.91360  0.99986  Biso   1.000  C
  H102     1.0000 0.25450  0.91790  0.96000  Biso   1.000  H
  C153     1.0000 0.42477  0.69910  0.49269  Biso   1.000  C
  C154     1.0000 0.33959  0.94750  0.02928  Biso   1.000  C
  C155     1.0000 0.37190  0.02360  0.91175  Biso   1.000  C
  C156     1.0000 0.22788  0.90750  0.53434  Biso   1.000  C
  H103     1.0000 0.18750  0.93480  0.51420  Biso   1.000  H
  C157     1.0000 0.53887  0.13910  0.08415  Biso   1.000  C
  H104     1.0000 0.51820  0.11650  0.10560  Biso   1.000  H
  C158     1.0000 0.22000  0.80170  0.25918  Biso   1.000  C
  H105     1.0000 0.17790  0.82540  0.24010  Biso   1.000  H
  C159     1.0000 0.34147  0.01310  0.84815  Biso   1.000  C
  C160     1.0000 0.30910  0.75730  0.34756  Biso   1.000  C
  C161     1.0000 0.24746  0.87290  0.03035  Biso   1.000  C
  H106     1.0000 0.20490  0.85060  0.01010  Biso   1.000  H
  C162     1.0000 0.44986  0.07740  0.99395  Biso   1.000  C
  C163     1.0000 0.33894  0.89490  0.11533  Biso   1.000  C
  H107     1.0000 0.36130  0.88730  0.15500  Biso   1.000  H
  C164     1.0000 0.28782  0.96140  0.82135  Biso   1.000  C
  H108     1.0000 0.27200  0.93020  0.84310  Biso   1.000  H
  C165     1.0000 0.51764  0.64200  0.58090  Biso   1.000  C
  H109     1.0000 0.49790  0.66490  0.60300  Biso   1.000  H
  C166     1.0000 0.31575  0.82560  0.53251  Biso   1.000  C
  C167     1.0000 0.54312  0.16590  0.99452  Biso   1.000  C
  H110     1.0000 0.52560  0.16210  0.95460  Biso   1.000  H
  C168     1.0000 0.24657  0.79270  0.31827  Biso   1.000  C
  H111     1.0000 0.22250  0.81040  0.33830  Biso   1.000  H
  C169     1.0000 0.31310  0.74310  0.25672  Biso   1.000  C
  H112     1.0000 0.33610  0.72580  0.23570  Biso   1.000  H
  C170     1.0000 0.34370  0.73170  0.31614  Biso   1.000  C
  H113     1.0000 0.38590  0.70770  0.33430  Biso   1.000  H
  C171     1.0000 0.48722  0.65000  0.52167  Biso   1.000  C
  C172     1.0000 0.34107  0.74750  0.41145  Biso   1.000  C
  C173     1.0000 0.25790  0.95620  0.76219  Biso   1.000  C
  H114     1.0000 0.22170  0.92110  0.74470  Biso   1.000  H
  C174     1.0000 0.60106  0.20910  0.02520  Biso   1.000  C
  H115     1.0000 0.62240  0.23310  0.00480  Biso   1.000  H
  C175     1.0000 0.34437  0.82530  0.59191  Biso   1.000  C
  H116     1.0000 0.38370  0.79640  0.61270  Biso   1.000  H
  C176     1.0000 0.36624  0.05510  0.81439  Biso   1.000  C
  H117     1.0000 0.40430  0.08770  0.83110  Biso   1.000  H
  C177     1.0000 0.33260  0.04690  0.75525  Biso   1.000  C
  H118     1.0000 0.34860  0.07610  0.73270  Biso   1.000  H
  C178     1.0000 0.57807  0.57140  0.52020  Biso   1.000  C
  H119     1.0000 0.59830  0.54680  0.49910  Biso   1.000  H
  C179     1.0000 0.51095  0.12780  0.02467  Biso   1.000  C
  C180     1.0000 0.31328  0.86880  0.61999  Biso   1.000  C
  H120     1.0000 0.33350  0.86970  0.66010  Biso   1.000  H
  N49      1.0000 0.62883  0.21899  0.08254  Biso   1.000  N
  N50      1.0000 0.27754  0.86410  0.08781  Biso   1.000  N
  N51      1.0000 0.27873  0.99990  0.72832  Biso   1.000  N
  N52      1.0000 0.42520  0.03889  0.02693  Biso   1.000  N
  N53      1.0000 0.34373  0.98144  0.94025  Biso   1.000  N
  N54      1.0000 0.42515  0.07282  0.93664  Biso   1.000  N
  N55      1.0000 0.25541  0.90990  0.59221  Biso   1.000  N
  N56      1.0000 0.60820  0.56472  0.57792  Biso   1.000  N
  N57      1.0000 0.25309  0.77720  0.22799  Biso   1.000  N
  N58      1.0000 0.40253  0.73998  0.52647  Biso   1.000  N
  N59      1.0000 0.39578  0.70100  0.43508  Biso   1.000  N
  N60      1.0000 0.31276  0.78746  0.44067  Biso   1.000  N
  Ag11     1.0000 0.22596  0.79144  0.13180  Biso   1.000  Ag
  Ag12     1.0000 0.70535  0.49979  0.63232  Biso   1.000  Ag
  C181     1.0000 0.87164  0.43790  0.08821  Biso   1.000  C
  H121     1.0000 0.91420  0.45960  0.10940  Biso   1.000  H
  C182     1.0000 0.07705  0.10000  0.60715  Biso   1.000  C
  H122     1.0000 0.09670  0.09570  0.64710  Biso   1.000  H
  C183     1.0000 0.87158  0.49250  0.99718  Biso   1.000  C
  C184     1.0000 0.84588  0.28100  0.49826  Biso   1.000  C
  C185     1.0000 0.01837  0.11310  0.49050  Biso   1.000  C
  H123     1.0000 0.99940  0.11640  0.45050  Biso   1.000  H
  C186     1.0000 0.09689  0.68340  0.11112  Biso   1.000  C
  H124     1.0000 0.11500  0.68920  0.15100  Biso   1.000  H
  C187     1.0000 0.75612  0.36690  0.50327  Biso   1.000  C
  H125     1.0000 0.73530  0.36720  0.46320  Biso   1.000  H
  C188     1.0000 0.77682  0.41360  0.99986  Biso   1.000  C
  H126     1.0000 0.75450  0.41790  0.96000  Biso   1.000  H
  C189     1.0000 0.92477  0.19910  0.49269  Biso   1.000  C
  C190     1.0000 0.83959  0.44750  0.02928  Biso   1.000  C
  C191     1.0000 0.87190  0.52360  0.91175  Biso   1.000  C
  C192     1.0000 0.72788  0.40750  0.53434  Biso   1.000  C
  H127     1.0000 0.68750  0.43480  0.51420  Biso   1.000  H
  C193     1.0000 0.03887  0.63910  0.08415  Biso   1.000  C
  H128     1.0000 0.01820  0.61650  0.10560  Biso   1.000  H
  C194     1.0000 0.72000  0.30170  0.25918  Biso   1.000  C
  H129     1.0000 0.67790  0.32540  0.24010  Biso   1.000  H
  C195     1.0000 0.84147  0.51310  0.84815  Biso   1.000  C
  C196     1.0000 0.80910  0.25730  0.34756  Biso   1.000  C
  C197     1.0000 0.74746  0.37290  0.03035  Biso   1.000  C
  H130     1.0000 0.70490  0.35060  0.01010  Biso   1.000  H
  C198     1.0000 0.94986  0.57740  0.99395  Biso   1.000  C
  C199     1.0000 0.83894  0.39490  0.11533  Biso   1.000  C
  H131     1.0000 0.86130  0.38730  0.15500  Biso   1.000  H
  C200     1.0000 0.78782  0.46140  0.82135  Biso   1.000  C
  H132     1.0000 0.77200  0.43020  0.84310  Biso   1.000  H
  C201     1.0000 0.01764  0.14200  0.58090  Biso   1.000  C
  H133     1.0000 0.99790  0.16490  0.60300  Biso   1.000  H
  C202     1.0000 0.81575  0.32560  0.53251  Biso   1.000  C
  C203     1.0000 0.04312  0.66590  0.99452  Biso   1.000  C
  H134     1.0000 0.02560  0.66210  0.95460  Biso   1.000  H
  C204     1.0000 0.74657  0.29270  0.31827  Biso   1.000  C
  H135     1.0000 0.72250  0.31040  0.33830  Biso   1.000  H
  C205     1.0000 0.81310  0.24310  0.25672  Biso   1.000  C
  H136     1.0000 0.83610  0.22580  0.23570  Biso   1.000  H
  C206     1.0000 0.84370  0.23170  0.31614  Biso   1.000  C
  H137     1.0000 0.88590  0.20770  0.33430  Biso   1.000  H
  C207     1.0000 0.98722  0.15000  0.52167  Biso   1.000  C
  C208     1.0000 0.84107  0.24750  0.41145  Biso   1.000  C
  C209     1.0000 0.75790  0.45620  0.76219  Biso   1.000  C
  H138     1.0000 0.72170  0.42110  0.74470  Biso   1.000  H
  C210     1.0000 0.10106  0.70910  0.02520  Biso   1.000  C
  H139     1.0000 0.12240  0.73310  0.00480  Biso   1.000  H
  C211     1.0000 0.84437  0.32530  0.59191  Biso   1.000  C
  H140     1.0000 0.88370  0.29640  0.61270  Biso   1.000  H
  C212     1.0000 0.86624  0.55510  0.81439  Biso   1.000  C
  H141     1.0000 0.90430  0.58770  0.83110  Biso   1.000  H
  C213     1.0000 0.83260  0.54690  0.75525  Biso   1.000  C
  H142     1.0000 0.84860  0.57610  0.73270  Biso   1.000  H
  C214     1.0000 0.07807  0.07140  0.52020  Biso   1.000  C
  H143     1.0000 0.09830  0.04680  0.49910  Biso   1.000  H
  C215     1.0000 0.01095  0.62780  0.02467  Biso   1.000  C
  C216     1.0000 0.81328  0.36880  0.61999  Biso   1.000  C
  H144     1.0000 0.83350  0.36970  0.66010  Biso   1.000  H
  N61      1.0000 0.12883  0.71899  0.08254  Biso   1.000  N
  N62      1.0000 0.77754  0.36410  0.08781  Biso   1.000  N
  N63      1.0000 0.77873  0.49990  0.72832  Biso   1.000  N
  N64      1.0000 0.92520  0.53889  0.02693  Biso   1.000  N
  N65      1.0000 0.84373  0.48144  0.94025  Biso   1.000  N
  N66      1.0000 0.92515  0.57282  0.93664  Biso   1.000  N
  N67      1.0000 0.75541  0.40990  0.59221  Biso   1.000  N
  N68      1.0000 0.10820  0.06472  0.57792  Biso   1.000  N
  N69      1.0000 0.75309  0.27720  0.22799  Biso   1.000  N
  N70      1.0000 0.90253  0.23998  0.52647  Biso   1.000  N
  N71      1.0000 0.89578  0.20100  0.43508  Biso   1.000  N
  N72      1.0000 0.81276  0.28746  0.44067  Biso   1.000  N
  Ag13     1.0000 0.27404  0.29144  0.36820  Biso   1.000  Ag
  Ag14     1.0000 0.79465  0.99979  0.86768  Biso   1.000  Ag
  C217     1.0000 0.62836  0.93790  0.41179  Biso   1.000  C
  H145     1.0000 0.58580  0.95960  0.39060  Biso   1.000  H
  C218     1.0000 0.42295  0.60000  0.89285  Biso   1.000  C
  H146     1.0000 0.40330  0.59570  0.85290  Biso   1.000  H
  C219     1.0000 0.62842  0.99250  0.50282  Biso   1.000  C
  C220     1.0000 0.65412  0.78100  0.00174  Biso   1.000  C
  C221     1.0000 0.48163  0.61310  0.00950  Biso   1.000  C
  H147     1.0000 0.50060  0.61640  0.04950  Biso   1.000  H
  C222     1.0000 0.40311  0.18340  0.38888  Biso   1.000  C
  H148     1.0000 0.38500  0.18920  0.34900  Biso   1.000  H
  C223     1.0000 0.74388  0.86690  0.99673  Biso   1.000  C
  H149     1.0000 0.76470  0.86720  0.03680  Biso   1.000  H
  C224     1.0000 0.72318  0.91360  0.50014  Biso   1.000  C
  H150     1.0000 0.74550  0.91790  0.54000  Biso   1.000  H
  C225     1.0000 0.57523  0.69910  0.00731  Biso   1.000  C
  C226     1.0000 0.66041  0.94750  0.47072  Biso   1.000  C
  C227     1.0000 0.62810  0.02360  0.58825  Biso   1.000  C
  C228     1.0000 0.77212  0.90750  0.96566  Biso   1.000  C
  H151     1.0000 0.81250  0.93480  0.98580  Biso   1.000  H
  C229     1.0000 0.46113  0.13910  0.41585  Biso   1.000  C
  H152     1.0000 0.48180  0.11650  0.39440  Biso   1.000  H
  C230     1.0000 0.78000  0.80170  0.24082  Biso   1.000  C
  H153     1.0000 0.82210  0.82540  0.25990  Biso   1.000  H
  C231     1.0000 0.65853  0.01310  0.65185  Biso   1.000  C
  C232     1.0000 0.69090  0.75730  0.15244  Biso   1.000  C
  C233     1.0000 0.75254  0.87290  0.46965  Biso   1.000  C
  H154     1.0000 0.79510  0.85060  0.48990  Biso   1.000  H
  C234     1.0000 0.55014  0.07740  0.50605  Biso   1.000  C
  C235     1.0000 0.66106  0.89490  0.38467  Biso   1.000  C
  H155     1.0000 0.63870  0.88730  0.34500  Biso   1.000  H
  C236     1.0000 0.71218  0.96140  0.67865  Biso   1.000  C
  H156     1.0000 0.72800  0.93020  0.65690  Biso   1.000  H
  C237     1.0000 0.48236  0.64200  0.91910  Biso   1.000  C
  H157     1.0000 0.50210  0.66490  0.89700  Biso   1.000  H
  C238     1.0000 0.68425  0.82560  0.96749  Biso   1.000  C
  C239     1.0000 0.45688  0.16590  0.50548  Biso   1.000  C
  H158     1.0000 0.47440  0.16210  0.54540  Biso   1.000  H
  C240     1.0000 0.75343  0.79270  0.18173  Biso   1.000  C
  H159     1.0000 0.77750  0.81040  0.16170  Biso   1.000  H
  C241     1.0000 0.68690  0.74310  0.24328  Biso   1.000  C
  H160     1.0000 0.66390  0.72580  0.26430  Biso   1.000  H
  C242     1.0000 0.65630  0.73170  0.18386  Biso   1.000  C
  H161     1.0000 0.61410  0.70770  0.16570  Biso   1.000  H
  C243     1.0000 0.51278  0.65000  0.97833  Biso   1.000  C
  C244     1.0000 0.65893  0.74750  0.08855  Biso   1.000  C
  C245     1.0000 0.74210  0.95620  0.73781  Biso   1.000  C
  H162     1.0000 0.77830  0.92110  0.75530  Biso   1.000  H
  C246     1.0000 0.39894  0.20910  0.47480  Biso   1.000  C
  H163     1.0000 0.37760  0.23310  0.49520  Biso   1.000  H
  C247     1.0000 0.65563  0.82530  0.90809  Biso   1.000  C
  H164     1.0000 0.61630  0.79640  0.88730  Biso   1.000  H
  C248     1.0000 0.63376  0.05510  0.68561  Biso   1.000  C
  H165     1.0000 0.59570  0.08770  0.66890  Biso   1.000  H
  C249     1.0000 0.66740  0.04690  0.74475  Biso   1.000  C
  H166     1.0000 0.65140  0.07610  0.76730  Biso   1.000  H
  C250     1.0000 0.42193  0.57140  0.97980  Biso   1.000  C
  H167     1.0000 0.40170  0.54680  0.00090  Biso   1.000  H
  C251     1.0000 0.48905  0.12780  0.47533  Biso   1.000  C
  C252     1.0000 0.68672  0.86880  0.88001  Biso   1.000  C
  H168     1.0000 0.66650  0.86970  0.83990  Biso   1.000  H
  N73      1.0000 0.37117  0.21899  0.41746  Biso   1.000  N
  N74      1.0000 0.72246  0.86410  0.41219  Biso   1.000  N
  N75      1.0000 0.72127  0.99990  0.77168  Biso   1.000  N
  N76      1.0000 0.57480  0.03889  0.47307  Biso   1.000  N
  N77      1.0000 0.65627  0.98144  0.55975  Biso   1.000  N
  N78      1.0000 0.57485  0.07282  0.56336  Biso   1.000  N
  N79      1.0000 0.74459  0.90990  0.90779  Biso   1.000  N
  N80      1.0000 0.39180  0.56472  0.92208  Biso   1.000  N
  N81      1.0000 0.74691  0.77720  0.27201  Biso   1.000  N
  N82      1.0000 0.59747  0.73998  0.97353  Biso   1.000  N
  N83      1.0000 0.60422  0.70100  0.06492  Biso   1.000  N
  N84      1.0000 0.68724  0.78746  0.05933  Biso   1.000  N
  Ag15     1.0000 0.77404  0.79144  0.36820  Biso   1.000  Ag
  Ag16     1.0000 0.29465  0.49979  0.86768  Biso   1.000  Ag
  C253     1.0000 0.12836  0.43790  0.41179  Biso   1.000  C
  H169     1.0000 0.08580  0.45960  0.39060  Biso   1.000  H
  C254     1.0000 0.92295  0.10000  0.89285  Biso   1.000  C
  H170     1.0000 0.90330  0.09570  0.85290  Biso   1.000  H
  C255     1.0000 0.12842  0.49250  0.50282  Biso   1.000  C
  C256     1.0000 0.15412  0.28100  0.00174  Biso   1.000  C
  C257     1.0000 0.98163  0.11310  0.00950  Biso   1.000  C
  H171     1.0000 0.00060  0.11640  0.04950  Biso   1.000  H
  C258     1.0000 0.90311  0.68340  0.38888  Biso   1.000  C
  H172     1.0000 0.88500  0.68920  0.34900  Biso   1.000  H
  C259     1.0000 0.24388  0.36690  0.99673  Biso   1.000  C
  H173     1.0000 0.26470  0.36720  0.03680  Biso   1.000  H
  C260     1.0000 0.22318  0.41360  0.50014  Biso   1.000  C
  H174     1.0000 0.24550  0.41790  0.54000  Biso   1.000  H
  C261     1.0000 0.07523  0.19910  0.00731  Biso   1.000  C
  C262     1.0000 0.16041  0.44750  0.47072  Biso   1.000  C
  C263     1.0000 0.12810  0.52360  0.58825  Biso   1.000  C
  C264     1.0000 0.27212  0.40750  0.96566  Biso   1.000  C
  H175     1.0000 0.31250  0.43480  0.98580  Biso   1.000  H
  C265     1.0000 0.96113  0.63910  0.41585  Biso   1.000  C
  H176     1.0000 0.98180  0.61650  0.39440  Biso   1.000  H
  C266     1.0000 0.28000  0.30170  0.24082  Biso   1.000  C
  H177     1.0000 0.32210  0.32540  0.25990  Biso   1.000  H
  C267     1.0000 0.15853  0.51310  0.65185  Biso   1.000  C
  C268     1.0000 0.19090  0.25730  0.15244  Biso   1.000  C
  C269     1.0000 0.25254  0.37290  0.46965  Biso   1.000  C
  H178     1.0000 0.29510  0.35060  0.48990  Biso   1.000  H
  C270     1.0000 0.05014  0.57740  0.50605  Biso   1.000  C
  C271     1.0000 0.16106  0.39490  0.38467  Biso   1.000  C
  H179     1.0000 0.13870  0.38730  0.34500  Biso   1.000  H
  C272     1.0000 0.21218  0.46140  0.67865  Biso   1.000  C
  H180     1.0000 0.22800  0.43020  0.65690  Biso   1.000  H
  C273     1.0000 0.98236  0.14200  0.91910  Biso   1.000  C
  H181     1.0000 0.00210  0.16490  0.89700  Biso   1.000  H
  C274     1.0000 0.18425  0.32560  0.96749  Biso   1.000  C
  C275     1.0000 0.95688  0.66590  0.50548  Biso   1.000  C
  H182     1.0000 0.97440  0.66210  0.54540  Biso   1.000  H
  C276     1.0000 0.25343  0.29270  0.18173  Biso   1.000  C
  H183     1.0000 0.27750  0.31040  0.16170  Biso   1.000  H
  C277     1.0000 0.18690  0.24310  0.24328  Biso   1.000  C
  H184     1.0000 0.16390  0.22580  0.26430  Biso   1.000  H
  C278     1.0000 0.15630  0.23170  0.18386  Biso   1.000  C
  H185     1.0000 0.11410  0.20770  0.16570  Biso   1.000  H
  C279     1.0000 0.01278  0.15000  0.97833  Biso   1.000  C
  C280     1.0000 0.15893  0.24750  0.08855  Biso   1.000  C
  C281     1.0000 0.24210  0.45620  0.73781  Biso   1.000  C
  H186     1.0000 0.27830  0.42110  0.75530  Biso   1.000  H
  C282     1.0000 0.89894  0.70910  0.47480  Biso   1.000  C
  H187     1.0000 0.87760  0.73310  0.49520  Biso   1.000  H
  C283     1.0000 0.15563  0.32530  0.90809  Biso   1.000  C
  H188     1.0000 0.11630  0.29640  0.88730  Biso   1.000  H
  C284     1.0000 0.13376  0.55510  0.68561  Biso   1.000  C
  H189     1.0000 0.09570  0.58770  0.66890  Biso   1.000  H
  C285     1.0000 0.16740  0.54690  0.74475  Biso   1.000  C
  H190     1.0000 0.15140  0.57610  0.76730  Biso   1.000  H
  C286     1.0000 0.92193  0.07140  0.97980  Biso   1.000  C
  H191     1.0000 0.90170  0.04680  0.00090  Biso   1.000  H
  C287     1.0000 0.98905  0.62780  0.47533  Biso   1.000  C
  C288     1.0000 0.18672  0.36880  0.88001  Biso   1.000  C
  H192     1.0000 0.16650  0.36970  0.83990  Biso   1.000  H
  N85      1.0000 0.87117  0.71899  0.41746  Biso   1.000  N
  N86      1.0000 0.22246  0.36410  0.41219  Biso   1.000  N
  N87      1.0000 0.22127  0.49990  0.77168  Biso   1.000  N
  N88      1.0000 0.07480  0.53889  0.47307  Biso   1.000  N
  N89      1.0000 0.15627  0.48144  0.55975  Biso   1.000  N
  N90      1.0000 0.07485  0.57282  0.56336  Biso   1.000  N
  N91      1.0000 0.24459  0.40990  0.90779  Biso   1.000  N
  N92      1.0000 0.89180  0.06472  0.92208  Biso   1.000  N
  N93      1.0000 0.24691  0.27720  0.27201  Biso   1.000  N
  N94      1.0000 0.09747  0.23998  0.97353  Biso   1.000  N
  N95      1.0000 0.10422  0.20100  0.06492  Biso   1.000  N
  N96      1.0000 0.18724  0.28746  0.05933  Biso   1.000  N
