data_image0
_cell_length_a       22.0466
_cell_length_b       16.425
_cell_length_c       25.5931
_cell_angle_alpha    90
_cell_angle_beta     115.293
_cell_angle_gamma    90

_symmetry_space_group_name_H-M    "P 1"
_symmetry_int_tables_number       1

loop_
  _symmetry_equiv_pos_as_xyz
  'x, y, z'

loop_
  _atom_site_label
  _atom_site_occupancy
  _atom_site_fract_x
  _atom_site_fract_y
  _atom_site_fract_z
  _atom_site_thermal_displace_type
  _atom_site_B_iso_or_equiv
  _atom_site_type_symbol
  Ag1      1.0000 0.84424  0.45767  0.36785  Biso   1.000  Ag
  Ag2      1.0000 0.32285  0.25273  0.86721  Biso   1.000  Ag
  C1       1.0000 0.77790  0.63760  0.00910  Biso   1.000  C
  H1       1.0000 0.79880  0.63380  0.04920  Biso   1.000  H
  C2       1.0000 0.12370  0.25690  0.50210  Biso   1.000  C
  C3       1.0000 0.59770  0.47040  0.00060  Biso   1.000  C
  C4       1.0000 0.06000  0.30220  0.46990  Biso   1.000  C
  C5       1.0000 0.29770  0.08420  0.50460  Biso   1.000  C
  H2       1.0000 0.32000  0.08860  0.54460  Biso   1.000  H
  C6       1.0000 0.23510  0.06480  0.38820  Biso   1.000  C
  H3       1.0000 0.21320  0.05780  0.34840  Biso   1.000  H
  C7       1.0000 0.44390  0.34320  0.96440  Biso   1.000  C
  H4       1.0000 0.42410  0.31480  0.98440  Biso   1.000  H
  C8       1.0000 0.03310  0.31170  0.41090  Biso   1.000  C
  H5       1.0000 0.05440  0.29000  0.38960  Biso   1.000  H
  C9       1.0000 0.53310  0.42650  0.96670  Biso   1.000  C
  C10      1.0000 0.50350  0.38400  0.99600  Biso   1.000  C
  H6       1.0000 0.52300  0.38270  0.03620  Biso   1.000  H
  C11      1.0000 0.68260  0.55200  0.00660  Biso   1.000  C
  C12      1.0000 0.71990  0.65190  0.89200  Biso   1.000  C
  H7       1.0000 0.69990  0.65600  0.85190  Biso   1.000  H
  C13      1.0000 0.21000  0.22690  0.58780  Biso   1.000  C
  C14      1.0000 0.67930  0.45610  0.18100  Biso   1.000  C
  H8       1.0000 0.63540  0.43820  0.16090  Biso   1.000  H
  C15      1.0000 0.68010  0.50210  0.08790  Biso   1.000  C
  C16      1.0000 0.71540  0.60140  0.97740  Biso   1.000  C
  C17      1.0000 0.02600  0.33560  0.49960  Biso   1.000  C
  H9       1.0000 0.04310  0.33080  0.53960  Biso   1.000  H
  C18      1.0000 0.24340  0.23740  0.65120  Biso   1.000  C
  C19      1.0000 0.68600  0.60990  0.91840  Biso   1.000  C
  H10      1.0000 0.64390  0.58770  0.89640  Biso   1.000  H
  C20      1.0000 0.20540  0.17230  0.50480  Biso   1.000  C
  C21      1.0000 0.23590  0.12090  0.47440  Biso   1.000  C
  C22      1.0000 0.97330  0.35450  0.38370  Biso   1.000  C
  H11      1.0000 0.95610  0.36260  0.34400  Biso   1.000  H
  C23      1.0000 0.96700  0.37560  0.46910  Biso   1.000  C
  H12      1.0000 0.94470  0.39780  0.48950  Biso   1.000  H
  C24      1.0000 0.32570  0.04100  0.47410  Biso   1.000  C
  H13      1.0000 0.36790  0.01800  0.49440  Biso   1.000  H
  C25      1.0000 0.80800  0.67940  0.97900  Biso   1.000  C
  H14      1.0000 0.84970  0.70330  0.00010  Biso   1.000  H
  C26      1.0000 0.20380  0.11010  0.41510  Biso   1.000  C
  H15      1.0000 0.16180  0.13300  0.39360  Biso   1.000  H
  C27      1.0000 0.71230  0.49240  0.15170  Biso   1.000  C
  C28      1.0000 0.80750  0.50470  0.24250  Biso   1.000  C
  H16      1.0000 0.85180  0.52100  0.26340  Biso   1.000  H
  C29      1.0000 0.50210  0.42720  0.90690  Biso   1.000  C
  H17      1.0000 0.52020  0.45650  0.88590  Biso   1.000  H
  C30      1.0000 0.44390  0.38340  0.87950  Biso   1.000  C
  H18      1.0000 0.42420  0.38220  0.83930  Biso   1.000  H
  C31      1.0000 0.77820  0.51690  0.18320  Biso   1.000  C
  H19      1.0000 0.80230  0.54090  0.16490  Biso   1.000  H
  C32      1.0000 0.32840  0.20750  0.74410  Biso   1.000  C
  H20      1.0000 0.36790  0.18020  0.76680  Biso   1.000  H
  C33      1.0000 0.21570  0.28930  0.67800  Biso   1.000  C
  H21      1.0000 0.17740  0.31950  0.65630  Biso   1.000  H
  C34      1.0000 0.30230  0.19730  0.68500  Biso   1.000  C
  H22      1.0000 0.32370  0.16450  0.66840  Biso   1.000  H
  C35      1.0000 0.24590  0.29500  0.73700  Biso   1.000  C
  H23      1.0000 0.22690  0.32990  0.75460  Biso   1.000  H
  C36      1.0000 0.71180  0.44650  0.24020  Biso   1.000  C
  H24      1.0000 0.68880  0.42230  0.25930  Biso   1.000  H
  N1       1.0000 0.93940  0.38480  0.41199  Biso   1.000  N
  N2       1.0000 0.29540  0.03050  0.41671  Biso   1.000  N
  N3       1.0000 0.30060  0.25390  0.77070  Biso   1.000  N
  N4       1.0000 0.15320  0.26790  0.55916  Biso   1.000  N
  N5       1.0000 0.14790  0.21030  0.47215  Biso   1.000  N
  N6       1.0000 0.23820  0.17770  0.56275  Biso   1.000  N
  N7       1.0000 0.41360  0.34230  0.90708  Biso   1.000  N
  N8       1.0000 0.78010  0.68710  0.92142  Biso   1.000  N
  N9       1.0000 0.77590  0.47110  0.27150  Biso   1.000  N
  N10      1.0000 0.62280  0.46270  0.05860  Biso   1.000  N
  N11      1.0000 0.62620  0.51160  0.97294  Biso   1.000  N
  N12      1.0000 0.71140  0.54960  0.06446  Biso   1.000  N
  Ag3      1.0000 0.34424  0.95767  0.36784  Biso   1.000  Ag
  Ag4      1.0000 0.82285  0.75273  0.86721  Biso   1.000  Ag
  C37      1.0000 0.27790  0.13760  0.00910  Biso   1.000  C
  H25      1.0000 0.29880  0.13380  0.04920  Biso   1.000  H
  C38      1.0000 0.62370  0.75690  0.50210  Biso   1.000  C
  C39      1.0000 0.09770  0.97040  0.00060  Biso   1.000  C
  C40      1.0000 0.56000  0.80220  0.46990  Biso   1.000  C
  C41      1.0000 0.79770  0.58420  0.50460  Biso   1.000  C
  H26      1.0000 0.82000  0.58860  0.54460  Biso   1.000  H
  C42      1.0000 0.73510  0.56480  0.38820  Biso   1.000  C
  H27      1.0000 0.71320  0.55780  0.34840  Biso   1.000  H
  C43      1.0000 0.94390  0.84320  0.96440  Biso   1.000  C
  H28      1.0000 0.92410  0.81480  0.98440  Biso   1.000  H
  C44      1.0000 0.53310  0.81170  0.41090  Biso   1.000  C
  H29      1.0000 0.55440  0.79000  0.38960  Biso   1.000  H
  C45      1.0000 0.03310  0.92650  0.96670  Biso   1.000  C
  C46      1.0000 0.00350  0.88400  0.99600  Biso   1.000  C
  H30      1.0000 0.02300  0.88270  0.03620  Biso   1.000  H
  C47      1.0000 0.18260  0.05200  0.00660  Biso   1.000  C
  C48      1.0000 0.21990  0.15190  0.89200  Biso   1.000  C
  H31      1.0000 0.19990  0.15600  0.85190  Biso   1.000  H
  C49      1.0000 0.71000  0.72690  0.58780  Biso   1.000  C
  C50      1.0000 0.17930  0.95610  0.18100  Biso   1.000  C
  H32      1.0000 0.13540  0.93820  0.16090  Biso   1.000  H
  C51      1.0000 0.18010  0.00210  0.08790  Biso   1.000  C
  C52      1.0000 0.21540  0.10140  0.97740  Biso   1.000  C
  C53      1.0000 0.52600  0.83560  0.49960  Biso   1.000  C
  H33      1.0000 0.54310  0.83080  0.53960  Biso   1.000  H
  C54      1.0000 0.74340  0.73740  0.65120  Biso   1.000  C
  C55      1.0000 0.18600  0.10990  0.91840  Biso   1.000  C
  H34      1.0000 0.14390  0.08770  0.89640  Biso   1.000  H
  C56      1.0000 0.70540  0.67230  0.50480  Biso   1.000  C
  C57      1.0000 0.73590  0.62090  0.47440  Biso   1.000  C
  C58      1.0000 0.47330  0.85450  0.38370  Biso   1.000  C
  H35      1.0000 0.45610  0.86260  0.34400  Biso   1.000  H
  C59      1.0000 0.46700  0.87560  0.46910  Biso   1.000  C
  H36      1.0000 0.44470  0.89780  0.48950  Biso   1.000  H
  C60      1.0000 0.82570  0.54100  0.47410  Biso   1.000  C
  H37      1.0000 0.86790  0.51800  0.49440  Biso   1.000  H
  C61      1.0000 0.30800  0.17940  0.97900  Biso   1.000  C
  H38      1.0000 0.34970  0.20330  0.00010  Biso   1.000  H
  C62      1.0000 0.70380  0.61010  0.41510  Biso   1.000  C
  H39      1.0000 0.66180  0.63300  0.39360  Biso   1.000  H
  C63      1.0000 0.21230  0.99240  0.15170  Biso   1.000  C
  C64      1.0000 0.30750  0.00470  0.24250  Biso   1.000  C
  H40      1.0000 0.35180  0.02100  0.26340  Biso   1.000  H
  C65      1.0000 0.00210  0.92720  0.90690  Biso   1.000  C
  H41      1.0000 0.02020  0.95650  0.88590  Biso   1.000  H
  C66      1.0000 0.94390  0.88340  0.87950  Biso   1.000  C
  H42      1.0000 0.92420  0.88220  0.83930  Biso   1.000  H
  C67      1.0000 0.27820  0.01690  0.18320  Biso   1.000  C
  H43      1.0000 0.30230  0.04090  0.16490  Biso   1.000  H
  C68      1.0000 0.82840  0.70750  0.74410  Biso   1.000  C
  H44      1.0000 0.86790  0.68020  0.76680  Biso   1.000  H
  C69      1.0000 0.71570  0.78930  0.67800  Biso   1.000  C
  H45      1.0000 0.67740  0.81950  0.65630  Biso   1.000  H
  C70      1.0000 0.80230  0.69730  0.68500  Biso   1.000  C
  H46      1.0000 0.82370  0.66450  0.66840  Biso   1.000  H
  C71      1.0000 0.74590  0.79500  0.73700  Biso   1.000  C
  H47      1.0000 0.72690  0.82990  0.75460  Biso   1.000  H
  C72      1.0000 0.21180  0.94650  0.24020  Biso   1.000  C
  H48      1.0000 0.18880  0.92230  0.25930  Biso   1.000  H
  N13      1.0000 0.43940  0.88480  0.41199  Biso   1.000  N
  N14      1.0000 0.79540  0.53050  0.41671  Biso   1.000  N
  N15      1.0000 0.80060  0.75390  0.77070  Biso   1.000  N
  N16      1.0000 0.65320  0.76790  0.55916  Biso   1.000  N
  N17      1.0000 0.64790  0.71030  0.47215  Biso   1.000  N
  N18      1.0000 0.73820  0.67770  0.56275  Biso   1.000  N
  N19      1.0000 0.91360  0.84230  0.90708  Biso   1.000  N
  N20      1.0000 0.28010  0.18710  0.92142  Biso   1.000  N
  N21      1.0000 0.27590  0.97110  0.27150  Biso   1.000  N
  N22      1.0000 0.12280  0.96270  0.05860  Biso   1.000  N
  N23      1.0000 0.12620  0.01160  0.97294  Biso   1.000  N
  N24      1.0000 0.21140  0.04960  0.06446  Biso   1.000  N
  Ag5      1.0000 0.15576  0.45767  0.13216  Biso   1.000  Ag
  Ag6      1.0000 0.67715  0.25273  0.63279  Biso   1.000  Ag
  C73      1.0000 0.22210  0.63760  0.49090  Biso   1.000  C
  H49      1.0000 0.20120  0.63380  0.45080  Biso   1.000  H
  C74      1.0000 0.87630  0.25690  0.99790  Biso   1.000  C
  C75      1.0000 0.40230  0.47040  0.49940  Biso   1.000  C
  C76      1.0000 0.94000  0.30220  0.03010  Biso   1.000  C
  C77      1.0000 0.70230  0.08420  0.99540  Biso   1.000  C
  H50      1.0000 0.68000  0.08860  0.95540  Biso   1.000  H
  C78      1.0000 0.76490  0.06480  0.11180  Biso   1.000  C
  H51      1.0000 0.78680  0.05780  0.15160  Biso   1.000  H
  C79      1.0000 0.55610  0.34320  0.53560  Biso   1.000  C
  H52      1.0000 0.57590  0.31480  0.51560  Biso   1.000  H
  C80      1.0000 0.96690  0.31170  0.08910  Biso   1.000  C
  H53      1.0000 0.94560  0.29000  0.11040  Biso   1.000  H
  C81      1.0000 0.46690  0.42650  0.53330  Biso   1.000  C
  C82      1.0000 0.49650  0.38400  0.50400  Biso   1.000  C
  H54      1.0000 0.47700  0.38270  0.46380  Biso   1.000  H
  C83      1.0000 0.31740  0.55200  0.49340  Biso   1.000  C
  C84      1.0000 0.28010  0.65190  0.60800  Biso   1.000  C
  H55      1.0000 0.30010  0.65600  0.64810  Biso   1.000  H
  C85      1.0000 0.79000  0.22690  0.91220  Biso   1.000  C
  C86      1.0000 0.32070  0.45610  0.31900  Biso   1.000  C
  H56      1.0000 0.36460  0.43820  0.33910  Biso   1.000  H
  C87      1.0000 0.31990  0.50210  0.41210  Biso   1.000  C
  C88      1.0000 0.28460  0.60140  0.52260  Biso   1.000  C
  C89      1.0000 0.97400  0.33560  0.00040  Biso   1.000  C
  H57      1.0000 0.95690  0.33080  0.96040  Biso   1.000  H
  C90      1.0000 0.75660  0.23740  0.84880  Biso   1.000  C
  C91      1.0000 0.31400  0.60990  0.58160  Biso   1.000  C
  H58      1.0000 0.35610  0.58770  0.60360  Biso   1.000  H
  C92      1.0000 0.79460  0.17230  0.99520  Biso   1.000  C
  C93      1.0000 0.76410  0.12090  0.02560  Biso   1.000  C
  C94      1.0000 0.02670  0.35450  0.11630  Biso   1.000  C
  H59      1.0000 0.04390  0.36260  0.15600  Biso   1.000  H
  C95      1.0000 0.03300  0.37560  0.03090  Biso   1.000  C
  H60      1.0000 0.05530  0.39780  0.01050  Biso   1.000  H
  C96      1.0000 0.67430  0.04100  0.02590  Biso   1.000  C
  H61      1.0000 0.63210  0.01800  0.00560  Biso   1.000  H
  C97      1.0000 0.19200  0.67940  0.52100  Biso   1.000  C
  H62      1.0000 0.15030  0.70330  0.49990  Biso   1.000  H
  C98      1.0000 0.79620  0.11010  0.08490  Biso   1.000  C
  H63      1.0000 0.83820  0.13300  0.10640  Biso   1.000  H
  C99      1.0000 0.28770  0.49240  0.34830  Biso   1.000  C
  C100     1.0000 0.19250  0.50470  0.25750  Biso   1.000  C
  H64      1.0000 0.14820  0.52100  0.23660  Biso   1.000  H
  C101     1.0000 0.49790  0.42720  0.59310  Biso   1.000  C
  H65      1.0000 0.47980  0.45650  0.61410  Biso   1.000  H
  C102     1.0000 0.55610  0.38340  0.62050  Biso   1.000  C
  H66      1.0000 0.57580  0.38220  0.66070  Biso   1.000  H
  C103     1.0000 0.22180  0.51690  0.31680  Biso   1.000  C
  H67      1.0000 0.19770  0.54090  0.33510  Biso   1.000  H
  C104     1.0000 0.67160  0.20750  0.75590  Biso   1.000  C
  H68      1.0000 0.63210  0.18020  0.73320  Biso   1.000  H
  C105     1.0000 0.78430  0.28930  0.82200  Biso   1.000  C
  H69      1.0000 0.82260  0.31950  0.84370  Biso   1.000  H
  C106     1.0000 0.69770  0.19730  0.81500  Biso   1.000  C
  H70      1.0000 0.67630  0.16450  0.83160  Biso   1.000  H
  C107     1.0000 0.75410  0.29500  0.76300  Biso   1.000  C
  H71      1.0000 0.77310  0.32990  0.74540  Biso   1.000  H
  C108     1.0000 0.28820  0.44650  0.25980  Biso   1.000  C
  H72      1.0000 0.31120  0.42230  0.24070  Biso   1.000  H
  N25      1.0000 0.06060  0.38480  0.08801  Biso   1.000  N
  N26      1.0000 0.70460  0.03050  0.08329  Biso   1.000  N
  N27      1.0000 0.69940  0.25390  0.72930  Biso   1.000  N
  N28      1.0000 0.84680  0.26790  0.94084  Biso   1.000  N
  N29      1.0000 0.85210  0.21030  0.02785  Biso   1.000  N
  N30      1.0000 0.76180  0.17770  0.93725  Biso   1.000  N
  N31      1.0000 0.58640  0.34230  0.59292  Biso   1.000  N
  N32      1.0000 0.21990  0.68710  0.57858  Biso   1.000  N
  N33      1.0000 0.22410  0.47110  0.22850  Biso   1.000  N
  N34      1.0000 0.37720  0.46270  0.44140  Biso   1.000  N
  N35      1.0000 0.37380  0.51160  0.52706  Biso   1.000  N
  N36      1.0000 0.28860  0.54960  0.43554  Biso   1.000  N
  Ag7      1.0000 0.65576  0.95767  0.13216  Biso   1.000  Ag
  Ag8      1.0000 0.17715  0.75273  0.63279  Biso   1.000  Ag
  C109     1.0000 0.72210  0.13760  0.49090  Biso   1.000  C
  H73      1.0000 0.70120  0.13380  0.45080  Biso   1.000  H
  C110     1.0000 0.37630  0.75690  0.99790  Biso   1.000  C
  C111     1.0000 0.90230  0.97040  0.49940  Biso   1.000  C
  C112     1.0000 0.44000  0.80220  0.03010  Biso   1.000  C
  C113     1.0000 0.20230  0.58420  0.99540  Biso   1.000  C
  H74      1.0000 0.18000  0.58860  0.95540  Biso   1.000  H
  C114     1.0000 0.26490  0.56480  0.11180  Biso   1.000  C
  H75      1.0000 0.28680  0.55780  0.15160  Biso   1.000  H
  C115     1.0000 0.05610  0.84320  0.53560  Biso   1.000  C
  H76      1.0000 0.07590  0.81480  0.51560  Biso   1.000  H
  C116     1.0000 0.46690  0.81170  0.08910  Biso   1.000  C
  H77      1.0000 0.44560  0.79000  0.11040  Biso   1.000  H
  C117     1.0000 0.96690  0.92650  0.53330  Biso   1.000  C
  C118     1.0000 0.99650  0.88400  0.50400  Biso   1.000  C
  H78      1.0000 0.97700  0.88270  0.46380  Biso   1.000  H
  C119     1.0000 0.81740  0.05200  0.49340  Biso   1.000  C
  C120     1.0000 0.78010  0.15190  0.60800  Biso   1.000  C
  H79      1.0000 0.80010  0.15600  0.64810  Biso   1.000  H
  C121     1.0000 0.29000  0.72690  0.91220  Biso   1.000  C
  C122     1.0000 0.82070  0.95610  0.31900  Biso   1.000  C
  H80      1.0000 0.86460  0.93820  0.33910  Biso   1.000  H
  C123     1.0000 0.81990  0.00210  0.41210  Biso   1.000  C
  C124     1.0000 0.78460  0.10140  0.52260  Biso   1.000  C
  C125     1.0000 0.47400  0.83560  0.00040  Biso   1.000  C
  H81      1.0000 0.45690  0.83080  0.96040  Biso   1.000  H
  C126     1.0000 0.25660  0.73740  0.84880  Biso   1.000  C
  C127     1.0000 0.81400  0.10990  0.58160  Biso   1.000  C
  H82      1.0000 0.85610  0.08770  0.60360  Biso   1.000  H
  C128     1.0000 0.29460  0.67230  0.99520  Biso   1.000  C
  C129     1.0000 0.26410  0.62090  0.02560  Biso   1.000  C
  C130     1.0000 0.52670  0.85450  0.11630  Biso   1.000  C
  H83      1.0000 0.54390  0.86260  0.15600  Biso   1.000  H
  C131     1.0000 0.53300  0.87560  0.03090  Biso   1.000  C
  H84      1.0000 0.55530  0.89780  0.01050  Biso   1.000  H
  C132     1.0000 0.17430  0.54100  0.02590  Biso   1.000  C
  H85      1.0000 0.13210  0.51800  0.00560  Biso   1.000  H
  C133     1.0000 0.69200  0.17940  0.52100  Biso   1.000  C
  H86      1.0000 0.65030  0.20330  0.49990  Biso   1.000  H
  C134     1.0000 0.29620  0.61010  0.08490  Biso   1.000  C
  H87      1.0000 0.33820  0.63300  0.10640  Biso   1.000  H
  C135     1.0000 0.78770  0.99240  0.34830  Biso   1.000  C
  C136     1.0000 0.69250  0.00470  0.25750  Biso   1.000  C
  H88      1.0000 0.64820  0.02100  0.23660  Biso   1.000  H
  C137     1.0000 0.99790  0.92720  0.59310  Biso   1.000  C
  H89      1.0000 0.97980  0.95650  0.61410  Biso   1.000  H
  C138     1.0000 0.05610  0.88340  0.62050  Biso   1.000  C
  H90      1.0000 0.07580  0.88220  0.66070  Biso   1.000  H
  C139     1.0000 0.72180  0.01690  0.31680  Biso   1.000  C
  H91      1.0000 0.69770  0.04090  0.33510  Biso   1.000  H
  C140     1.0000 0.17160  0.70750  0.75590  Biso   1.000  C
  H92      1.0000 0.13210  0.68020  0.73320  Biso   1.000  H
  C141     1.0000 0.28430  0.78930  0.82200  Biso   1.000  C
  H93      1.0000 0.32260  0.81950  0.84370  Biso   1.000  H
  C142     1.0000 0.19770  0.69730  0.81500  Biso   1.000  C
  H94      1.0000 0.17630  0.66450  0.83160  Biso   1.000  H
  C143     1.0000 0.25410  0.79500  0.76300  Biso   1.000  C
  H95      1.0000 0.27310  0.82990  0.74540  Biso   1.000  H
  C144     1.0000 0.78820  0.94650  0.25980  Biso   1.000  C
  H96      1.0000 0.81120  0.92230  0.24070  Biso   1.000  H
  N37      1.0000 0.56060  0.88480  0.08801  Biso   1.000  N
  N38      1.0000 0.20460  0.53050  0.08329  Biso   1.000  N
  N39      1.0000 0.19940  0.75390  0.72930  Biso   1.000  N
  N40      1.0000 0.34680  0.76790  0.94084  Biso   1.000  N
  N41      1.0000 0.35210  0.71030  0.02785  Biso   1.000  N
  N42      1.0000 0.26180  0.67770  0.93725  Biso   1.000  N
  N43      1.0000 0.08640  0.84230  0.59292  Biso   1.000  N
  N44      1.0000 0.71990  0.18710  0.57858  Biso   1.000  N
  N45      1.0000 0.72410  0.97110  0.22850  Biso   1.000  N
  N46      1.0000 0.87720  0.96270  0.44140  Biso   1.000  N
  N47      1.0000 0.87380  0.01160  0.52706  Biso   1.000  N
  N48      1.0000 0.78860  0.04960  0.43554  Biso   1.000  N
  Ag9      1.0000 0.15576  0.54233  0.63216  Biso   1.000  Ag
  Ag10     1.0000 0.67715  0.74727  0.13279  Biso   1.000  Ag
  C145     1.0000 0.22210  0.36240  0.99090  Biso   1.000  C
  H97      1.0000 0.20120  0.36620  0.95080  Biso   1.000  H
  C146     1.0000 0.87630  0.74310  0.49790  Biso   1.000  C
  C147     1.0000 0.40230  0.52960  0.99940  Biso   1.000  C
  C148     1.0000 0.94000  0.69780  0.53010  Biso   1.000  C
  C149     1.0000 0.70230  0.91580  0.49540  Biso   1.000  C
  H98      1.0000 0.68000  0.91140  0.45540  Biso   1.000  H
  C150     1.0000 0.76490  0.93520  0.61180  Biso   1.000  C
  H99      1.0000 0.78680  0.94220  0.65160  Biso   1.000  H
  C151     1.0000 0.55610  0.65680  0.03560  Biso   1.000  C
  H100     1.0000 0.57590  0.68520  0.01560  Biso   1.000  H
  C152     1.0000 0.96690  0.68830  0.58910  Biso   1.000  C
  H101     1.0000 0.94560  0.71000  0.61040  Biso   1.000  H
  C153     1.0000 0.46690  0.57350  0.03330  Biso   1.000  C
  C154     1.0000 0.49650  0.61600  0.00400  Biso   1.000  C
  H102     1.0000 0.47700  0.61730  0.96380  Biso   1.000  H
  C155     1.0000 0.31740  0.44800  0.99340  Biso   1.000  C
  C156     1.0000 0.28010  0.34810  0.10800  Biso   1.000  C
  H103     1.0000 0.30010  0.34400  0.14810  Biso   1.000  H
  C157     1.0000 0.79000  0.77310  0.41220  Biso   1.000  C
  C158     1.0000 0.32070  0.54390  0.81900  Biso   1.000  C
  H104     1.0000 0.36460  0.56180  0.83910  Biso   1.000  H
  C159     1.0000 0.31990  0.49790  0.91210  Biso   1.000  C
  C160     1.0000 0.28460  0.39860  0.02260  Biso   1.000  C
  C161     1.0000 0.97400  0.66440  0.50040  Biso   1.000  C
  H105     1.0000 0.95690  0.66920  0.46040  Biso   1.000  H
  C162     1.0000 0.75660  0.76260  0.34880  Biso   1.000  C
  C163     1.0000 0.31400  0.39010  0.08160  Biso   1.000  C
  H106     1.0000 0.35610  0.41230  0.10360  Biso   1.000  H
  C164     1.0000 0.79460  0.82770  0.49520  Biso   1.000  C
  C165     1.0000 0.76410  0.87910  0.52560  Biso   1.000  C
  C166     1.0000 0.02670  0.64550  0.61630  Biso   1.000  C
  H107     1.0000 0.04390  0.63740  0.65600  Biso   1.000  H
  C167     1.0000 0.03300  0.62440  0.53090  Biso   1.000  C
  H108     1.0000 0.05530  0.60220  0.51050  Biso   1.000  H
  C168     1.0000 0.67430  0.95900  0.52590  Biso   1.000  C
  H109     1.0000 0.63210  0.98200  0.50560  Biso   1.000  H
  C169     1.0000 0.19200  0.32060  0.02100  Biso   1.000  C
  H110     1.0000 0.15030  0.29670  0.99990  Biso   1.000  H
  C170     1.0000 0.79620  0.88990  0.58490  Biso   1.000  C
  H111     1.0000 0.83820  0.86700  0.60640  Biso   1.000  H
  C171     1.0000 0.28770  0.50760  0.84830  Biso   1.000  C
  C172     1.0000 0.19250  0.49530  0.75750  Biso   1.000  C
  H112     1.0000 0.14820  0.47900  0.73660  Biso   1.000  H
  C173     1.0000 0.49790  0.57280  0.09310  Biso   1.000  C
  H113     1.0000 0.47980  0.54350  0.11410  Biso   1.000  H
  C174     1.0000 0.55610  0.61660  0.12050  Biso   1.000  C
  H114     1.0000 0.57580  0.61780  0.16070  Biso   1.000  H
  C175     1.0000 0.22180  0.48310  0.81680  Biso   1.000  C
  H115     1.0000 0.19770  0.45910  0.83510  Biso   1.000  H
  C176     1.0000 0.67160  0.79250  0.25590  Biso   1.000  C
  H116     1.0000 0.63210  0.81980  0.23320  Biso   1.000  H
  C177     1.0000 0.78430  0.71070  0.32200  Biso   1.000  C
  H117     1.0000 0.82260  0.68050  0.34370  Biso   1.000  H
  C178     1.0000 0.69770  0.80270  0.31500  Biso   1.000  C
  H118     1.0000 0.67630  0.83550  0.33160  Biso   1.000  H
  C179     1.0000 0.75410  0.70500  0.26300  Biso   1.000  C
  H119     1.0000 0.77310  0.67010  0.24540  Biso   1.000  H
  C180     1.0000 0.28820  0.55350  0.75980  Biso   1.000  C
  H120     1.0000 0.31120  0.57770  0.74070  Biso   1.000  H
  N49      1.0000 0.06060  0.61520  0.58801  Biso   1.000  N
  N50      1.0000 0.70460  0.96950  0.58329  Biso   1.000  N
  N51      1.0000 0.69940  0.74610  0.22930  Biso   1.000  N
  N52      1.0000 0.84680  0.73210  0.44084  Biso   1.000  N
  N53      1.0000 0.85210  0.78970  0.52785  Biso   1.000  N
  N54      1.0000 0.76180  0.82230  0.43725  Biso   1.000  N
  N55      1.0000 0.58640  0.65770  0.09292  Biso   1.000  N
  N56      1.0000 0.21990  0.31290  0.07858  Biso   1.000  N
  N57      1.0000 0.22410  0.52890  0.72850  Biso   1.000  N
  N58      1.0000 0.37720  0.53730  0.94140  Biso   1.000  N
  N59      1.0000 0.37380  0.48840  0.02706  Biso   1.000  N
  N60      1.0000 0.28860  0.45040  0.93554  Biso   1.000  N
  Ag11     1.0000 0.65576  0.04233  0.63216  Biso   1.000  Ag
  Ag12     1.0000 0.17715  0.24727  0.13279  Biso   1.000  Ag
  C181     1.0000 0.72210  0.86240  0.99090  Biso   1.000  C
  H121     1.0000 0.70120  0.86620  0.95080  Biso   1.000  H
  C182     1.0000 0.37630  0.24310  0.49790  Biso   1.000  C
  C183     1.0000 0.90230  0.02960  0.99940  Biso   1.000  C
  C184     1.0000 0.44000  0.19780  0.53010  Biso   1.000  C
  C185     1.0000 0.20230  0.41580  0.49540  Biso   1.000  C
  H122     1.0000 0.18000  0.41140  0.45540  Biso   1.000  H
  C186     1.0000 0.26490  0.43520  0.61180  Biso   1.000  C
  H123     1.0000 0.28680  0.44220  0.65160  Biso   1.000  H
  C187     1.0000 0.05610  0.15680  0.03560  Biso   1.000  C
  H124     1.0000 0.07590  0.18520  0.01560  Biso   1.000  H
  C188     1.0000 0.46690  0.18830  0.58910  Biso   1.000  C
  H125     1.0000 0.44560  0.21000  0.61040  Biso   1.000  H
  C189     1.0000 0.96690  0.07350  0.03330  Biso   1.000  C
  C190     1.0000 0.99650  0.11600  0.00400  Biso   1.000  C
  H126     1.0000 0.97700  0.11730  0.96380  Biso   1.000  H
  C191     1.0000 0.81740  0.94800  0.99340  Biso   1.000  C
  C192     1.0000 0.78010  0.84810  0.10800  Biso   1.000  C
  H127     1.0000 0.80010  0.84400  0.14810  Biso   1.000  H
  C193     1.0000 0.29000  0.27310  0.41220  Biso   1.000  C
  C194     1.0000 0.82070  0.04390  0.81900  Biso   1.000  C
  H128     1.0000 0.86460  0.06180  0.83910  Biso   1.000  H
  C195     1.0000 0.81990  0.99790  0.91210  Biso   1.000  C
  C196     1.0000 0.78460  0.89860  0.02260  Biso   1.000  C
  C197     1.0000 0.47400  0.16440  0.50040  Biso   1.000  C
  H129     1.0000 0.45690  0.16920  0.46040  Biso   1.000  H
  C198     1.0000 0.25660  0.26260  0.34880  Biso   1.000  C
  C199     1.0000 0.81400  0.89010  0.08160  Biso   1.000  C
  H130     1.0000 0.85610  0.91230  0.10360  Biso   1.000  H
  C200     1.0000 0.29460  0.32770  0.49520  Biso   1.000  C
  C201     1.0000 0.26410  0.37910  0.52560  Biso   1.000  C
  C202     1.0000 0.52670  0.14550  0.61630  Biso   1.000  C
  H131     1.0000 0.54390  0.13740  0.65600  Biso   1.000  H
  C203     1.0000 0.53300  0.12440  0.53090  Biso   1.000  C
  H132     1.0000 0.55530  0.10220  0.51050  Biso   1.000  H
  C204     1.0000 0.17430  0.45900  0.52590  Biso   1.000  C
  H133     1.0000 0.13210  0.48200  0.50560  Biso   1.000  H
  C205     1.0000 0.69200  0.82060  0.02100  Biso   1.000  C
  H134     1.0000 0.65030  0.79670  0.99990  Biso   1.000  H
  C206     1.0000 0.29620  0.38990  0.58490  Biso   1.000  C
  H135     1.0000 0.33820  0.36700  0.60640  Biso   1.000  H
  C207     1.0000 0.78770  0.00760  0.84830  Biso   1.000  C
  C208     1.0000 0.69250  0.99530  0.75750  Biso   1.000  C
  H136     1.0000 0.64820  0.97900  0.73660  Biso   1.000  H
  C209     1.0000 0.99790  0.07280  0.09310  Biso   1.000  C
  H137     1.0000 0.97980  0.04350  0.11410  Biso   1.000  H
  C210     1.0000 0.05610  0.11660  0.12050  Biso   1.000  C
  H138     1.0000 0.07580  0.11780  0.16070  Biso   1.000  H
  C211     1.0000 0.72180  0.98310  0.81680  Biso   1.000  C
  H139     1.0000 0.69770  0.95910  0.83510  Biso   1.000  H
  C212     1.0000 0.17160  0.29250  0.25590  Biso   1.000  C
  H140     1.0000 0.13210  0.31980  0.23320  Biso   1.000  H
  C213     1.0000 0.28430  0.21070  0.32200  Biso   1.000  C
  H141     1.0000 0.32260  0.18050  0.34370  Biso   1.000  H
  C214     1.0000 0.19770  0.30270  0.31500  Biso   1.000  C
  H142     1.0000 0.17630  0.33550  0.33160  Biso   1.000  H
  C215     1.0000 0.25410  0.20500  0.26300  Biso   1.000  C
  H143     1.0000 0.27310  0.17010  0.24540  Biso   1.000  H
  C216     1.0000 0.78820  0.05350  0.75980  Biso   1.000  C
  H144     1.0000 0.81120  0.07770  0.74070  Biso   1.000  H
  N61      1.0000 0.56060  0.11520  0.58801  Biso   1.000  N
  N62      1.0000 0.20460  0.46950  0.58329  Biso   1.000  N
  N63      1.0000 0.19940  0.24610  0.22930  Biso   1.000  N
  N64      1.0000 0.34680  0.23210  0.44084  Biso   1.000  N
  N65      1.0000 0.35210  0.28970  0.52785  Biso   1.000  N
  N66      1.0000 0.26180  0.32230  0.43725  Biso   1.000  N
  N67      1.0000 0.08640  0.15770  0.09292  Biso   1.000  N
  N68      1.0000 0.71990  0.81290  0.07858  Biso   1.000  N
  N69      1.0000 0.72410  0.02890  0.72850  Biso   1.000  N
  N70      1.0000 0.87720  0.03730  0.94140  Biso   1.000  N
  N71      1.0000 0.87380  0.98840  0.02706  Biso   1.000  N
  N72      1.0000 0.78860  0.95040  0.93554  Biso   1.000  N
  Ag13     1.0000 0.84424  0.54233  0.86785  Biso   1.000  Ag
  Ag14     1.0000 0.32285  0.74727  0.36721  Biso   1.000  Ag
  C217     1.0000 0.77790  0.36240  0.50910  Biso   1.000  C
  H145     1.0000 0.79880  0.36620  0.54920  Biso   1.000  H
  C218     1.0000 0.12370  0.74310  0.00210  Biso   1.000  C
  C219     1.0000 0.59770  0.52960  0.50060  Biso   1.000  C
  C220     1.0000 0.06000  0.69780  0.96990  Biso   1.000  C
  C221     1.0000 0.29770  0.91580  0.00460  Biso   1.000  C
  H146     1.0000 0.32000  0.91140  0.04460  Biso   1.000  H
  C222     1.0000 0.23510  0.93520  0.88820  Biso   1.000  C
  H147     1.0000 0.21320  0.94220  0.84840  Biso   1.000  H
  C223     1.0000 0.44390  0.65680  0.46440  Biso   1.000  C
  H148     1.0000 0.42410  0.68520  0.48440  Biso   1.000  H
  C224     1.0000 0.03310  0.68830  0.91090  Biso   1.000  C
  H149     1.0000 0.05440  0.71000  0.88960  Biso   1.000  H
  C225     1.0000 0.53310  0.57350  0.46670  Biso   1.000  C
  C226     1.0000 0.50350  0.61600  0.49600  Biso   1.000  C
  H150     1.0000 0.52300  0.61730  0.53620  Biso   1.000  H
  C227     1.0000 0.68260  0.44800  0.50660  Biso   1.000  C
  C228     1.0000 0.71990  0.34810  0.39200  Biso   1.000  C
  H151     1.0000 0.69990  0.34400  0.35190  Biso   1.000  H
  C229     1.0000 0.21000  0.77310  0.08780  Biso   1.000  C
  C230     1.0000 0.67930  0.54390  0.68100  Biso   1.000  C
  H152     1.0000 0.63540  0.56180  0.66090  Biso   1.000  H
  C231     1.0000 0.68010  0.49790  0.58790  Biso   1.000  C
  C232     1.0000 0.71540  0.39860  0.47740  Biso   1.000  C
  C233     1.0000 0.02600  0.66440  0.99960  Biso   1.000  C
  H153     1.0000 0.04310  0.66920  0.03960  Biso   1.000  H
  C234     1.0000 0.24340  0.76260  0.15120  Biso   1.000  C
  C235     1.0000 0.68600  0.39010  0.41840  Biso   1.000  C
  H154     1.0000 0.64390  0.41230  0.39640  Biso   1.000  H
  C236     1.0000 0.20540  0.82770  0.00480  Biso   1.000  C
  C237     1.0000 0.23590  0.87910  0.97440  Biso   1.000  C
  C238     1.0000 0.97330  0.64550  0.88370  Biso   1.000  C
  H155     1.0000 0.95610  0.63740  0.84400  Biso   1.000  H
  C239     1.0000 0.96700  0.62440  0.96910  Biso   1.000  C
  H156     1.0000 0.94470  0.60220  0.98950  Biso   1.000  H
  C240     1.0000 0.32570  0.95900  0.97410  Biso   1.000  C
  H157     1.0000 0.36790  0.98200  0.99440  Biso   1.000  H
  C241     1.0000 0.80800  0.32060  0.47900  Biso   1.000  C
  H158     1.0000 0.84970  0.29670  0.50010  Biso   1.000  H
  C242     1.0000 0.20380  0.88990  0.91510  Biso   1.000  C
  H159     1.0000 0.16180  0.86700  0.89360  Biso   1.000  H
  C243     1.0000 0.71230  0.50760  0.65170  Biso   1.000  C
  C244     1.0000 0.80750  0.49530  0.74250  Biso   1.000  C
  H160     1.0000 0.85180  0.47900  0.76340  Biso   1.000  H
  C245     1.0000 0.50210  0.57280  0.40690  Biso   1.000  C
  H161     1.0000 0.52020  0.54350  0.38590  Biso   1.000  H
  C246     1.0000 0.44390  0.61660  0.37950  Biso   1.000  C
  H162     1.0000 0.42420  0.61780  0.33930  Biso   1.000  H
  C247     1.0000 0.77820  0.48310  0.68320  Biso   1.000  C
  H163     1.0000 0.80230  0.45910  0.66490  Biso   1.000  H
  C248     1.0000 0.32840  0.79250  0.24410  Biso   1.000  C
  H164     1.0000 0.36790  0.81980  0.26680  Biso   1.000  H
  C249     1.0000 0.21570  0.71070  0.17800  Biso   1.000  C
  H165     1.0000 0.17740  0.68050  0.15630  Biso   1.000  H
  C250     1.0000 0.30230  0.80270  0.18500  Biso   1.000  C
  H166     1.0000 0.32370  0.83550  0.16840  Biso   1.000  H
  C251     1.0000 0.24590  0.70500  0.23700  Biso   1.000  C
  H167     1.0000 0.22690  0.67010  0.25460  Biso   1.000  H
  C252     1.0000 0.71180  0.55350  0.74020  Biso   1.000  C
  H168     1.0000 0.68880  0.57770  0.75930  Biso   1.000  H
  N73      1.0000 0.93940  0.61520  0.91199  Biso   1.000  N
  N74      1.0000 0.29540  0.96950  0.91671  Biso   1.000  N
  N75      1.0000 0.30060  0.74610  0.27070  Biso   1.000  N
  N76      1.0000 0.15320  0.73210  0.05916  Biso   1.000  N
  N77      1.0000 0.14790  0.78970  0.97215  Biso   1.000  N
  N78      1.0000 0.23820  0.82230  0.06275  Biso   1.000  N
  N79      1.0000 0.41360  0.65770  0.40708  Biso   1.000  N
  N80      1.0000 0.78010  0.31290  0.42142  Biso   1.000  N
  N81      1.0000 0.77590  0.52890  0.77150  Biso   1.000  N
  N82      1.0000 0.62280  0.53730  0.55860  Biso   1.000  N
  N83      1.0000 0.62620  0.48840  0.47294  Biso   1.000  N
  N84      1.0000 0.71140  0.45040  0.56446  Biso   1.000  N
  Ag15     1.0000 0.34424  0.04233  0.86785  Biso   1.000  Ag
  Ag16     1.0000 0.82285  0.24727  0.36721  Biso   1.000  Ag
  C253     1.0000 0.27790  0.86240  0.50910  Biso   1.000  C
  H169     1.0000 0.29880  0.86620  0.54920  Biso   1.000  H
  C254     1.0000 0.62370  0.24310  0.00210  Biso   1.000  C
  C255     1.0000 0.09770  0.02960  0.50060  Biso   1.000  C
  C256     1.0000 0.56000  0.19780  0.96990  Biso   1.000  C
  C257     1.0000 0.79770  0.41580  0.00460  Biso   1.000  C
  H170     1.0000 0.82000  0.41140  0.04460  Biso   1.000  H
  C258     1.0000 0.73510  0.43520  0.88820  Biso   1.000  C
  H171     1.0000 0.71320  0.44220  0.84840  Biso   1.000  H
  C259     1.0000 0.94390  0.15680  0.46440  Biso   1.000  C
  H172     1.0000 0.92410  0.18520  0.48440  Biso   1.000  H
  C260     1.0000 0.53310  0.18830  0.91090  Biso   1.000  C
  H173     1.0000 0.55440  0.21000  0.88960  Biso   1.000  H
  C261     1.0000 0.03310  0.07350  0.46670  Biso   1.000  C
  C262     1.0000 0.00350  0.11600  0.49600  Biso   1.000  C
  H174     1.0000 0.02300  0.11730  0.53620  Biso   1.000  H
  C263     1.0000 0.18260  0.94800  0.50660  Biso   1.000  C
  C264     1.0000 0.21990  0.84810  0.39200  Biso   1.000  C
  H175     1.0000 0.19990  0.84400  0.35190  Biso   1.000  H
  C265     1.0000 0.71000  0.27310  0.08780  Biso   1.000  C
  C266     1.0000 0.17930  0.04390  0.68100  Biso   1.000  C
  H176     1.0000 0.13540  0.06180  0.66090  Biso   1.000  H
  C267     1.0000 0.18010  0.99790  0.58790  Biso   1.000  C
  C268     1.0000 0.21540  0.89860  0.47740  Biso   1.000  C
  C269     1.0000 0.52600  0.16440  0.99960  Biso   1.000  C
  H177     1.0000 0.54310  0.16920  0.03960  Biso   1.000  H
  C270     1.0000 0.74340  0.26260  0.15120  Biso   1.000  C
  C271     1.0000 0.18600  0.89010  0.41840  Biso   1.000  C
  H178     1.0000 0.14390  0.91230  0.39640  Biso   1.000  H
  C272     1.0000 0.70540  0.32770  0.00480  Biso   1.000  C
  C273     1.0000 0.73590  0.37910  0.97440  Biso   1.000  C
  C274     1.0000 0.47330  0.14550  0.88370  Biso   1.000  C
  H179     1.0000 0.45610  0.13740  0.84400  Biso   1.000  H
  C275     1.0000 0.46700  0.12440  0.96910  Biso   1.000  C
  H180     1.0000 0.44470  0.10220  0.98950  Biso   1.000  H
  C276     1.0000 0.82570  0.45900  0.97410  Biso   1.000  C
  H181     1.0000 0.86790  0.48200  0.99440  Biso   1.000  H
  C277     1.0000 0.30800  0.82060  0.47900  Biso   1.000  C
  H182     1.0000 0.34970  0.79670  0.50010  Biso   1.000  H
  C278     1.0000 0.70380  0.38990  0.91510  Biso   1.000  C
  H183     1.0000 0.66180  0.36700  0.89360  Biso   1.000  H
  C279     1.0000 0.21230  0.00760  0.65170  Biso   1.000  C
  C280     1.0000 0.30750  0.99530  0.74250  Biso   1.000  C
  H184     1.0000 0.35180  0.97900  0.76340  Biso   1.000  H
  C281     1.0000 0.00210  0.07280  0.40690  Biso   1.000  C
  H185     1.0000 0.02020  0.04350  0.38590  Biso   1.000  H
  C282     1.0000 0.94390  0.11660  0.37950  Biso   1.000  C
  H186     1.0000 0.92420  0.11780  0.33930  Biso   1.000  H
  C283     1.0000 0.27820  0.98310  0.68320  Biso   1.000  C
  H187     1.0000 0.30230  0.95910  0.66490  Biso   1.000  H
  C284     1.0000 0.82840  0.29250  0.24410  Biso   1.000  C
  H188     1.0000 0.86790  0.31980  0.26680  Biso   1.000  H
  C285     1.0000 0.71570  0.21070  0.17800  Biso   1.000  C
  H189     1.0000 0.67740  0.18050  0.15630  Biso   1.000  H
  C286     1.0000 0.80230  0.30270  0.18500  Biso   1.000  C
  H190     1.0000 0.82370  0.33550  0.16840  Biso   1.000  H
  C287     1.0000 0.74590  0.20500  0.23700  Biso   1.000  C
  H191     1.0000 0.72690  0.17010  0.25460  Biso   1.000  H
  C288     1.0000 0.21180  0.05350  0.74020  Biso   1.000  C
  H192     1.0000 0.18880  0.07770  0.75930  Biso   1.000  H
  N85      1.0000 0.43940  0.11520  0.91199  Biso   1.000  N
  N86      1.0000 0.79540  0.46950  0.91671  Biso   1.000  N
  N87      1.0000 0.80060  0.24610  0.27070  Biso   1.000  N
  N88      1.0000 0.65320  0.23210  0.05916  Biso   1.000  N
  N89      1.0000 0.64790  0.28970  0.97215  Biso   1.000  N
  N90      1.0000 0.73820  0.32230  0.06275  Biso   1.000  N
  N91      1.0000 0.91360  0.15770  0.40708  Biso   1.000  N
  N92      1.0000 0.28010  0.81290  0.42142  Biso   1.000  N
  N93      1.0000 0.27590  0.02890  0.77150  Biso   1.000  N
  N94      1.0000 0.12280  0.03730  0.55860  Biso   1.000  N
  N95      1.0000 0.12620  0.98840  0.47294  Biso   1.000  N
  N96      1.0000 0.21140  0.95040  0.56446  Biso   1.000  N
