data_image0
_cell_length_a       22.0572
_cell_length_b       16.3893
_cell_length_c       25.603
_cell_angle_alpha    90
_cell_angle_beta     115.305
_cell_angle_gamma    90

_symmetry_space_group_name_H-M    "P 1"
_symmetry_int_tables_number       1

loop_
  _symmetry_equiv_pos_as_xyz
  'x, y, z'

loop_
  _atom_site_label
  _atom_site_occupancy
  _atom_site_fract_x
  _atom_site_fract_y
  _atom_site_fract_z
  _atom_site_thermal_displace_type
  _atom_site_B_iso_or_equiv
  _atom_site_type_symbol
  Ag1      1.0000 0.84414  0.45773  0.36791  Biso   1.000  Ag
  Ag2      1.0000 0.32294  0.25223  0.86728  Biso   1.000  Ag
  C1       1.0000 0.12400  0.25730  0.50250  Biso   1.000  C
  C2       1.0000 0.77800  0.63770  0.00930  Biso   1.000  C
  H1       1.0000 0.79890  0.63380  0.04930  Biso   1.000  H
  C3       1.0000 0.59760  0.46970  0.00090  Biso   1.000  C
  C4       1.0000 0.23490  0.06470  0.38830  Biso   1.000  C
  H2       1.0000 0.21280  0.05740  0.34850  Biso   1.000  H
  C5       1.0000 0.29790  0.08440  0.50490  Biso   1.000  C
  H3       1.0000 0.32030  0.08900  0.54490  Biso   1.000  H
  C6       1.0000 0.03330  0.31220  0.41110  Biso   1.000  C
  H4       1.0000 0.05480  0.29080  0.38990  Biso   1.000  H
  C7       1.0000 0.06000  0.30240  0.47010  Biso   1.000  C
  C8       1.0000 0.44360  0.34310  0.96480  Biso   1.000  C
  H5       1.0000 0.42340  0.31530  0.98480  Biso   1.000  H
  C9       1.0000 0.50340  0.38350  0.99640  Biso   1.000  C
  H6       1.0000 0.52310  0.38190  0.03660  Biso   1.000  H
  C10      1.0000 0.71970  0.65200  0.89220  Biso   1.000  C
  H7       1.0000 0.69950  0.65670  0.85210  Biso   1.000  H
  C11      1.0000 0.20990  0.22710  0.58760  Biso   1.000  C
  C12      1.0000 0.53320  0.42640  0.96690  Biso   1.000  C
  C13      1.0000 0.67920  0.45620  0.18150  Biso   1.000  C
  H8       1.0000 0.63520  0.43830  0.16160  Biso   1.000  H
  C14      1.0000 0.24330  0.23770  0.65140  Biso   1.000  C
  C15      1.0000 0.02620  0.33550  0.49980  Biso   1.000  C
  H9       1.0000 0.04350  0.33070  0.53970  Biso   1.000  H
  C16      1.0000 0.68230  0.55190  0.00670  Biso   1.000  C
  C17      1.0000 0.68020  0.50200  0.08810  Biso   1.000  C
  C18      1.0000 0.71540  0.60140  0.97750  Biso   1.000  C
  C19      1.0000 0.68610  0.60940  0.91860  Biso   1.000  C
  H10      1.0000 0.64420  0.58660  0.89660  Biso   1.000  H
  C20      1.0000 0.97360  0.35470  0.38420  Biso   1.000  C
  H11      1.0000 0.95630  0.36260  0.34440  Biso   1.000  H
  C21      1.0000 0.32570  0.04080  0.47400  Biso   1.000  C
  H12      1.0000 0.36780  0.01760  0.49430  Biso   1.000  H
  C22      1.0000 0.96700  0.37550  0.46950  Biso   1.000  C
  H13      1.0000 0.94460  0.39720  0.48990  Biso   1.000  H
  C23      1.0000 0.80830  0.67960  0.97960  Biso   1.000  C
  H14      1.0000 0.84990  0.70370  0.00070  Biso   1.000  H
  C24      1.0000 0.20560  0.17240  0.50520  Biso   1.000  C
  C25      1.0000 0.23580  0.12090  0.47460  Biso   1.000  C
  C26      1.0000 0.80730  0.50490  0.24270  Biso   1.000  C
  H15      1.0000 0.85160  0.52140  0.26350  Biso   1.000  H
  C27      1.0000 0.20370  0.11030  0.41500  Biso   1.000  C
  H16      1.0000 0.16190  0.13350  0.39360  Biso   1.000  H
  C28      1.0000 0.50230  0.42670  0.90710  Biso   1.000  C
  H17      1.0000 0.52050  0.45570  0.88600  Biso   1.000  H
  C29      1.0000 0.71230  0.49240  0.15190  Biso   1.000  C
  C30      1.0000 0.21580  0.28930  0.67810  Biso   1.000  C
  H18      1.0000 0.17770  0.31960  0.65630  Biso   1.000  H
  C31      1.0000 0.77810  0.51680  0.18340  Biso   1.000  C
  H19      1.0000 0.80220  0.54060  0.16520  Biso   1.000  H
  C32      1.0000 0.44380  0.38300  0.87970  Biso   1.000  C
  H20      1.0000 0.42400  0.38190  0.83950  Biso   1.000  H
  C33      1.0000 0.30230  0.19740  0.68500  Biso   1.000  C
  H21      1.0000 0.32360  0.16470  0.66820  Biso   1.000  H
  C34      1.0000 0.32870  0.20720  0.74430  Biso   1.000  C
  H22      1.0000 0.36820  0.17980  0.76700  Biso   1.000  H
  C35      1.0000 0.24580  0.29530  0.73740  Biso   1.000  C
  H23      1.0000 0.22680  0.33000  0.75500  Biso   1.000  H
  C36      1.0000 0.71210  0.44710  0.24030  Biso   1.000  C
  H24      1.0000 0.68910  0.42320  0.25950  Biso   1.000  H
  N1       1.0000 0.93951  0.38510  0.41209  Biso   1.000  N
  N2       1.0000 0.29548  0.03030  0.41670  Biso   1.000  N
  N3       1.0000 0.30070  0.25370  0.77100  Biso   1.000  N
  N4       1.0000 0.15324  0.26780  0.55939  Biso   1.000  N
  N5       1.0000 0.14786  0.21020  0.47242  Biso   1.000  N
  N6       1.0000 0.23824  0.17800  0.56282  Biso   1.000  N
  N7       1.0000 0.41356  0.34210  0.90728  Biso   1.000  N
  N8       1.0000 0.78030  0.68700  0.92164  Biso   1.000  N
  N9       1.0000 0.77590  0.47120  0.27169  Biso   1.000  N
  N10      1.0000 0.62276  0.46260  0.05861  Biso   1.000  N
  N11      1.0000 0.62621  0.51140  0.97300  Biso   1.000  N
  N12      1.0000 0.71159  0.54960  0.06475  Biso   1.000  N
  Ag3      1.0000 0.34414  0.95773  0.36791  Biso   1.000  Ag
  Ag4      1.0000 0.82294  0.75223  0.86728  Biso   1.000  Ag
  C37      1.0000 0.62400  0.75730  0.50250  Biso   1.000  C
  C38      1.0000 0.27800  0.13770  0.00930  Biso   1.000  C
  H25      1.0000 0.29890  0.13380  0.04930  Biso   1.000  H
  C39      1.0000 0.09760  0.96970  0.00090  Biso   1.000  C
  C40      1.0000 0.73490  0.56470  0.38830  Biso   1.000  C
  H26      1.0000 0.71280  0.55740  0.34850  Biso   1.000  H
  C41      1.0000 0.79790  0.58440  0.50490  Biso   1.000  C
  H27      1.0000 0.82030  0.58900  0.54490  Biso   1.000  H
  C42      1.0000 0.53330  0.81220  0.41110  Biso   1.000  C
  H28      1.0000 0.55480  0.79080  0.38990  Biso   1.000  H
  C43      1.0000 0.56000  0.80240  0.47010  Biso   1.000  C
  C44      1.0000 0.94360  0.84310  0.96480  Biso   1.000  C
  H29      1.0000 0.92340  0.81530  0.98480  Biso   1.000  H
  C45      1.0000 0.00340  0.88350  0.99640  Biso   1.000  C
  H30      1.0000 0.02310  0.88190  0.03660  Biso   1.000  H
  C46      1.0000 0.21970  0.15200  0.89220  Biso   1.000  C
  H31      1.0000 0.19950  0.15670  0.85210  Biso   1.000  H
  C47      1.0000 0.70990  0.72710  0.58760  Biso   1.000  C
  C48      1.0000 0.03320  0.92640  0.96690  Biso   1.000  C
  C49      1.0000 0.17920  0.95620  0.18150  Biso   1.000  C
  H32      1.0000 0.13520  0.93830  0.16160  Biso   1.000  H
  C50      1.0000 0.74330  0.73770  0.65140  Biso   1.000  C
  C51      1.0000 0.52620  0.83550  0.49980  Biso   1.000  C
  H33      1.0000 0.54350  0.83070  0.53970  Biso   1.000  H
  C52      1.0000 0.18230  0.05190  0.00670  Biso   1.000  C
  C53      1.0000 0.18020  0.00200  0.08810  Biso   1.000  C
  C54      1.0000 0.21540  0.10140  0.97750  Biso   1.000  C
  C55      1.0000 0.18610  0.10940  0.91860  Biso   1.000  C
  H34      1.0000 0.14420  0.08660  0.89660  Biso   1.000  H
  C56      1.0000 0.47360  0.85470  0.38420  Biso   1.000  C
  H35      1.0000 0.45630  0.86260  0.34440  Biso   1.000  H
  C57      1.0000 0.82570  0.54080  0.47400  Biso   1.000  C
  H36      1.0000 0.86780  0.51760  0.49430  Biso   1.000  H
  C58      1.0000 0.46700  0.87550  0.46950  Biso   1.000  C
  H37      1.0000 0.44460  0.89720  0.48990  Biso   1.000  H
  C59      1.0000 0.30830  0.17960  0.97960  Biso   1.000  C
  H38      1.0000 0.34990  0.20370  0.00070  Biso   1.000  H
  C60      1.0000 0.70560  0.67240  0.50520  Biso   1.000  C
  C61      1.0000 0.73580  0.62090  0.47460  Biso   1.000  C
  C62      1.0000 0.30730  0.00490  0.24270  Biso   1.000  C
  H39      1.0000 0.35160  0.02140  0.26350  Biso   1.000  H
  C63      1.0000 0.70370  0.61030  0.41500  Biso   1.000  C
  H40      1.0000 0.66190  0.63350  0.39360  Biso   1.000  H
  C64      1.0000 0.00230  0.92670  0.90710  Biso   1.000  C
  H41      1.0000 0.02050  0.95570  0.88600  Biso   1.000  H
  C65      1.0000 0.21230  0.99240  0.15190  Biso   1.000  C
  C66      1.0000 0.71580  0.78930  0.67810  Biso   1.000  C
  H42      1.0000 0.67770  0.81960  0.65630  Biso   1.000  H
  C67      1.0000 0.27810  0.01680  0.18340  Biso   1.000  C
  H43      1.0000 0.30220  0.04060  0.16520  Biso   1.000  H
  C68      1.0000 0.94380  0.88300  0.87970  Biso   1.000  C
  H44      1.0000 0.92400  0.88190  0.83950  Biso   1.000  H
  C69      1.0000 0.80230  0.69740  0.68500  Biso   1.000  C
  H45      1.0000 0.82360  0.66470  0.66820  Biso   1.000  H
  C70      1.0000 0.82870  0.70720  0.74430  Biso   1.000  C
  H46      1.0000 0.86820  0.67980  0.76700  Biso   1.000  H
  C71      1.0000 0.74580  0.79530  0.73740  Biso   1.000  C
  H47      1.0000 0.72680  0.83000  0.75500  Biso   1.000  H
  C72      1.0000 0.21210  0.94710  0.24030  Biso   1.000  C
  H48      1.0000 0.18910  0.92320  0.25950  Biso   1.000  H
  N13      1.0000 0.43951  0.88510  0.41209  Biso   1.000  N
  N14      1.0000 0.79548  0.53030  0.41670  Biso   1.000  N
  N15      1.0000 0.80070  0.75370  0.77100  Biso   1.000  N
  N16      1.0000 0.65324  0.76780  0.55939  Biso   1.000  N
  N17      1.0000 0.64786  0.71020  0.47242  Biso   1.000  N
  N18      1.0000 0.73824  0.67800  0.56282  Biso   1.000  N
  N19      1.0000 0.91356  0.84210  0.90728  Biso   1.000  N
  N20      1.0000 0.28030  0.18700  0.92164  Biso   1.000  N
  N21      1.0000 0.27590  0.97120  0.27169  Biso   1.000  N
  N22      1.0000 0.12276  0.96260  0.05861  Biso   1.000  N
  N23      1.0000 0.12621  0.01140  0.97300  Biso   1.000  N
  N24      1.0000 0.21159  0.04960  0.06475  Biso   1.000  N
  Ag5      1.0000 0.15586  0.45773  0.13209  Biso   1.000  Ag
  Ag6      1.0000 0.67706  0.25223  0.63272  Biso   1.000  Ag
  C73      1.0000 0.87600  0.25730  0.99750  Biso   1.000  C
  C74      1.0000 0.22200  0.63770  0.49070  Biso   1.000  C
  H49      1.0000 0.20110  0.63380  0.45070  Biso   1.000  H
  C75      1.0000 0.40240  0.46970  0.49910  Biso   1.000  C
  C76      1.0000 0.76510  0.06470  0.11170  Biso   1.000  C
  H50      1.0000 0.78720  0.05740  0.15150  Biso   1.000  H
  C77      1.0000 0.70210  0.08440  0.99510  Biso   1.000  C
  H51      1.0000 0.67970  0.08900  0.95510  Biso   1.000  H
  C78      1.0000 0.96670  0.31220  0.08890  Biso   1.000  C
  H52      1.0000 0.94520  0.29080  0.11010  Biso   1.000  H
  C79      1.0000 0.94000  0.30240  0.02990  Biso   1.000  C
  C80      1.0000 0.55640  0.34310  0.53520  Biso   1.000  C
  H53      1.0000 0.57660  0.31530  0.51520  Biso   1.000  H
  C81      1.0000 0.49660  0.38350  0.50360  Biso   1.000  C
  H54      1.0000 0.47690  0.38190  0.46340  Biso   1.000  H
  C82      1.0000 0.28030  0.65200  0.60780  Biso   1.000  C
  H55      1.0000 0.30050  0.65670  0.64790  Biso   1.000  H
  C83      1.0000 0.79010  0.22710  0.91240  Biso   1.000  C
  C84      1.0000 0.46680  0.42640  0.53310  Biso   1.000  C
  C85      1.0000 0.32080  0.45620  0.31850  Biso   1.000  C
  H56      1.0000 0.36480  0.43830  0.33840  Biso   1.000  H
  C86      1.0000 0.75670  0.23770  0.84860  Biso   1.000  C
  C87      1.0000 0.97380  0.33550  0.00020  Biso   1.000  C
  H57      1.0000 0.95650  0.33070  0.96030  Biso   1.000  H
  C88      1.0000 0.31770  0.55190  0.49330  Biso   1.000  C
  C89      1.0000 0.31980  0.50200  0.41190  Biso   1.000  C
  C90      1.0000 0.28460  0.60140  0.52250  Biso   1.000  C
  C91      1.0000 0.31390  0.60940  0.58140  Biso   1.000  C
  H58      1.0000 0.35580  0.58660  0.60340  Biso   1.000  H
  C92      1.0000 0.02640  0.35470  0.11580  Biso   1.000  C
  H59      1.0000 0.04370  0.36260  0.15560  Biso   1.000  H
  C93      1.0000 0.67430  0.04080  0.02600  Biso   1.000  C
  H60      1.0000 0.63220  0.01760  0.00570  Biso   1.000  H
  C94      1.0000 0.03300  0.37550  0.03050  Biso   1.000  C
  H61      1.0000 0.05540  0.39720  0.01010  Biso   1.000  H
  C95      1.0000 0.19170  0.67960  0.52040  Biso   1.000  C
  H62      1.0000 0.15010  0.70370  0.49930  Biso   1.000  H
  C96      1.0000 0.79440  0.17240  0.99480  Biso   1.000  C
  C97      1.0000 0.76420  0.12090  0.02540  Biso   1.000  C
  C98      1.0000 0.19270  0.50490  0.25730  Biso   1.000  C
  H63      1.0000 0.14840  0.52140  0.23650  Biso   1.000  H
  C99      1.0000 0.79630  0.11030  0.08500  Biso   1.000  C
  H64      1.0000 0.83810  0.13350  0.10640  Biso   1.000  H
  C100     1.0000 0.49770  0.42670  0.59290  Biso   1.000  C
  H65      1.0000 0.47950  0.45570  0.61400  Biso   1.000  H
  C101     1.0000 0.28770  0.49240  0.34810  Biso   1.000  C
  C102     1.0000 0.78420  0.28930  0.82190  Biso   1.000  C
  H66      1.0000 0.82230  0.31960  0.84370  Biso   1.000  H
  C103     1.0000 0.22190  0.51680  0.31660  Biso   1.000  C
  H67      1.0000 0.19780  0.54060  0.33480  Biso   1.000  H
  C104     1.0000 0.55620  0.38300  0.62030  Biso   1.000  C
  H68      1.0000 0.57600  0.38190  0.66050  Biso   1.000  H
  C105     1.0000 0.69770  0.19740  0.81500  Biso   1.000  C
  H69      1.0000 0.67640  0.16470  0.83180  Biso   1.000  H
  C106     1.0000 0.67130  0.20720  0.75570  Biso   1.000  C
  H70      1.0000 0.63180  0.17980  0.73300  Biso   1.000  H
  C107     1.0000 0.75420  0.29530  0.76260  Biso   1.000  C
  H71      1.0000 0.77320  0.33000  0.74500  Biso   1.000  H
  C108     1.0000 0.28790  0.44710  0.25970  Biso   1.000  C
  H72      1.0000 0.31090  0.42320  0.24050  Biso   1.000  H
  N25      1.0000 0.06049  0.38510  0.08791  Biso   1.000  N
  N26      1.0000 0.70452  0.03030  0.08330  Biso   1.000  N
  N27      1.0000 0.69930  0.25370  0.72900  Biso   1.000  N
  N28      1.0000 0.84676  0.26780  0.94061  Biso   1.000  N
  N29      1.0000 0.85214  0.21020  0.02758  Biso   1.000  N
  N30      1.0000 0.76176  0.17800  0.93718  Biso   1.000  N
  N31      1.0000 0.58644  0.34210  0.59272  Biso   1.000  N
  N32      1.0000 0.21970  0.68700  0.57836  Biso   1.000  N
  N33      1.0000 0.22410  0.47120  0.22831  Biso   1.000  N
  N34      1.0000 0.37724  0.46260  0.44139  Biso   1.000  N
  N35      1.0000 0.37379  0.51140  0.52700  Biso   1.000  N
  N36      1.0000 0.28841  0.54960  0.43525  Biso   1.000  N
  Ag7      1.0000 0.65586  0.95773  0.13209  Biso   1.000  Ag
  Ag8      1.0000 0.17706  0.75223  0.63272  Biso   1.000  Ag
  C109     1.0000 0.37600  0.75730  0.99750  Biso   1.000  C
  C110     1.0000 0.72200  0.13770  0.49070  Biso   1.000  C
  H73      1.0000 0.70110  0.13380  0.45070  Biso   1.000  H
  C111     1.0000 0.90240  0.96970  0.49910  Biso   1.000  C
  C112     1.0000 0.26510  0.56470  0.11170  Biso   1.000  C
  H74      1.0000 0.28720  0.55740  0.15150  Biso   1.000  H
  C113     1.0000 0.20210  0.58440  0.99510  Biso   1.000  C
  H75      1.0000 0.17970  0.58900  0.95510  Biso   1.000  H
  C114     1.0000 0.46670  0.81220  0.08890  Biso   1.000  C
  H76      1.0000 0.44520  0.79080  0.11010  Biso   1.000  H
  C115     1.0000 0.44000  0.80240  0.02990  Biso   1.000  C
  C116     1.0000 0.05640  0.84310  0.53520  Biso   1.000  C
  H77      1.0000 0.07660  0.81530  0.51520  Biso   1.000  H
  C117     1.0000 0.99660  0.88350  0.50360  Biso   1.000  C
  H78      1.0000 0.97690  0.88190  0.46340  Biso   1.000  H
  C118     1.0000 0.78030  0.15200  0.60780  Biso   1.000  C
  H79      1.0000 0.80050  0.15670  0.64790  Biso   1.000  H
  C119     1.0000 0.29010  0.72710  0.91240  Biso   1.000  C
  C120     1.0000 0.96680  0.92640  0.53310  Biso   1.000  C
  C121     1.0000 0.82080  0.95620  0.31850  Biso   1.000  C
  H80      1.0000 0.86480  0.93830  0.33840  Biso   1.000  H
  C122     1.0000 0.25670  0.73770  0.84860  Biso   1.000  C
  C123     1.0000 0.47380  0.83550  0.00020  Biso   1.000  C
  H81      1.0000 0.45650  0.83070  0.96030  Biso   1.000  H
  C124     1.0000 0.81770  0.05190  0.49330  Biso   1.000  C
  C125     1.0000 0.81980  0.00200  0.41190  Biso   1.000  C
  C126     1.0000 0.78460  0.10140  0.52250  Biso   1.000  C
  C127     1.0000 0.81390  0.10940  0.58140  Biso   1.000  C
  H82      1.0000 0.85580  0.08660  0.60340  Biso   1.000  H
  C128     1.0000 0.52640  0.85470  0.11580  Biso   1.000  C
  H83      1.0000 0.54370  0.86260  0.15560  Biso   1.000  H
  C129     1.0000 0.17430  0.54080  0.02600  Biso   1.000  C
  H84      1.0000 0.13220  0.51760  0.00570  Biso   1.000  H
  C130     1.0000 0.53300  0.87550  0.03050  Biso   1.000  C
  H85      1.0000 0.55540  0.89720  0.01010  Biso   1.000  H
  C131     1.0000 0.69170  0.17960  0.52040  Biso   1.000  C
  H86      1.0000 0.65010  0.20370  0.49930  Biso   1.000  H
  C132     1.0000 0.29440  0.67240  0.99480  Biso   1.000  C
  C133     1.0000 0.26420  0.62090  0.02540  Biso   1.000  C
  C134     1.0000 0.69270  0.00490  0.25730  Biso   1.000  C
  H87      1.0000 0.64840  0.02140  0.23650  Biso   1.000  H
  C135     1.0000 0.29630  0.61030  0.08500  Biso   1.000  C
  H88      1.0000 0.33810  0.63350  0.10640  Biso   1.000  H
  C136     1.0000 0.99770  0.92670  0.59290  Biso   1.000  C
  H89      1.0000 0.97950  0.95570  0.61400  Biso   1.000  H
  C137     1.0000 0.78770  0.99240  0.34810  Biso   1.000  C
  C138     1.0000 0.28420  0.78930  0.82190  Biso   1.000  C
  H90      1.0000 0.32230  0.81960  0.84370  Biso   1.000  H
  C139     1.0000 0.72190  0.01680  0.31660  Biso   1.000  C
  H91      1.0000 0.69780  0.04060  0.33480  Biso   1.000  H
  C140     1.0000 0.05620  0.88300  0.62030  Biso   1.000  C
  H92      1.0000 0.07600  0.88190  0.66050  Biso   1.000  H
  C141     1.0000 0.19770  0.69740  0.81500  Biso   1.000  C
  H93      1.0000 0.17640  0.66470  0.83180  Biso   1.000  H
  C142     1.0000 0.17130  0.70720  0.75570  Biso   1.000  C
  H94      1.0000 0.13180  0.67980  0.73300  Biso   1.000  H
  C143     1.0000 0.25420  0.79530  0.76260  Biso   1.000  C
  H95      1.0000 0.27320  0.83000  0.74500  Biso   1.000  H
  C144     1.0000 0.78790  0.94710  0.25970  Biso   1.000  C
  H96      1.0000 0.81090  0.92320  0.24050  Biso   1.000  H
  N37      1.0000 0.56049  0.88510  0.08791  Biso   1.000  N
  N38      1.0000 0.20452  0.53030  0.08330  Biso   1.000  N
  N39      1.0000 0.19930  0.75370  0.72900  Biso   1.000  N
  N40      1.0000 0.34676  0.76780  0.94061  Biso   1.000  N
  N41      1.0000 0.35214  0.71020  0.02758  Biso   1.000  N
  N42      1.0000 0.26176  0.67800  0.93718  Biso   1.000  N
  N43      1.0000 0.08644  0.84210  0.59272  Biso   1.000  N
  N44      1.0000 0.71970  0.18700  0.57836  Biso   1.000  N
  N45      1.0000 0.72410  0.97120  0.22831  Biso   1.000  N
  N46      1.0000 0.87724  0.96260  0.44139  Biso   1.000  N
  N47      1.0000 0.87379  0.01140  0.52700  Biso   1.000  N
  N48      1.0000 0.78841  0.04960  0.43525  Biso   1.000  N
  Ag9      1.0000 0.15586  0.54227  0.63209  Biso   1.000  Ag
  Ag10     1.0000 0.67706  0.74777  0.13272  Biso   1.000  Ag
  C145     1.0000 0.87600  0.74270  0.49750  Biso   1.000  C
  C146     1.0000 0.22200  0.36230  0.99070  Biso   1.000  C
  H97      1.0000 0.20110  0.36620  0.95070  Biso   1.000  H
  C147     1.0000 0.40240  0.53030  0.99910  Biso   1.000  C
  C148     1.0000 0.76510  0.93530  0.61170  Biso   1.000  C
  H98      1.0000 0.78720  0.94260  0.65150  Biso   1.000  H
  C149     1.0000 0.70210  0.91560  0.49510  Biso   1.000  C
  H99      1.0000 0.67970  0.91100  0.45510  Biso   1.000  H
  C150     1.0000 0.96670  0.68780  0.58890  Biso   1.000  C
  H100     1.0000 0.94520  0.70920  0.61010  Biso   1.000  H
  C151     1.0000 0.94000  0.69760  0.52990  Biso   1.000  C
  C152     1.0000 0.55640  0.65690  0.03520  Biso   1.000  C
  H101     1.0000 0.57660  0.68470  0.01520  Biso   1.000  H
  C153     1.0000 0.49660  0.61650  0.00360  Biso   1.000  C
  H102     1.0000 0.47690  0.61810  0.96340  Biso   1.000  H
  C154     1.0000 0.28030  0.34800  0.10780  Biso   1.000  C
  H103     1.0000 0.30050  0.34330  0.14790  Biso   1.000  H
  C155     1.0000 0.79010  0.77290  0.41240  Biso   1.000  C
  C156     1.0000 0.46680  0.57360  0.03310  Biso   1.000  C
  C157     1.0000 0.32080  0.54380  0.81850  Biso   1.000  C
  H104     1.0000 0.36480  0.56170  0.83840  Biso   1.000  H
  C158     1.0000 0.75670  0.76230  0.34860  Biso   1.000  C
  C159     1.0000 0.97380  0.66450  0.50020  Biso   1.000  C
  H105     1.0000 0.95650  0.66930  0.46030  Biso   1.000  H
  C160     1.0000 0.31770  0.44810  0.99330  Biso   1.000  C
  C161     1.0000 0.31980  0.49800  0.91190  Biso   1.000  C
  C162     1.0000 0.28460  0.39860  0.02250  Biso   1.000  C
  C163     1.0000 0.31390  0.39060  0.08140  Biso   1.000  C
  H106     1.0000 0.35580  0.41340  0.10340  Biso   1.000  H
  C164     1.0000 0.02640  0.64530  0.61580  Biso   1.000  C
  H107     1.0000 0.04370  0.63740  0.65560  Biso   1.000  H
  C165     1.0000 0.67430  0.95920  0.52600  Biso   1.000  C
  H108     1.0000 0.63220  0.98240  0.50570  Biso   1.000  H
  C166     1.0000 0.03300  0.62450  0.53050  Biso   1.000  C
  H109     1.0000 0.05540  0.60280  0.51010  Biso   1.000  H
  C167     1.0000 0.19170  0.32040  0.02040  Biso   1.000  C
  H110     1.0000 0.15010  0.29630  0.99930  Biso   1.000  H
  C168     1.0000 0.79440  0.82760  0.49480  Biso   1.000  C
  C169     1.0000 0.76420  0.87910  0.52540  Biso   1.000  C
  C170     1.0000 0.19270  0.49510  0.75730  Biso   1.000  C
  H111     1.0000 0.14840  0.47860  0.73650  Biso   1.000  H
  C171     1.0000 0.79630  0.88970  0.58500  Biso   1.000  C
  H112     1.0000 0.83810  0.86650  0.60640  Biso   1.000  H
  C172     1.0000 0.49770  0.57330  0.09290  Biso   1.000  C
  H113     1.0000 0.47950  0.54430  0.11400  Biso   1.000  H
  C173     1.0000 0.28770  0.50760  0.84810  Biso   1.000  C
  C174     1.0000 0.78420  0.71070  0.32190  Biso   1.000  C
  H114     1.0000 0.82230  0.68040  0.34370  Biso   1.000  H
  C175     1.0000 0.22190  0.48320  0.81660  Biso   1.000  C
  H115     1.0000 0.19780  0.45940  0.83480  Biso   1.000  H
  C176     1.0000 0.55620  0.61700  0.12030  Biso   1.000  C
  H116     1.0000 0.57600  0.61810  0.16050  Biso   1.000  H
  C177     1.0000 0.69770  0.80260  0.31500  Biso   1.000  C
  H117     1.0000 0.67640  0.83530  0.33180  Biso   1.000  H
  C178     1.0000 0.67130  0.79280  0.25570  Biso   1.000  C
  H118     1.0000 0.63180  0.82020  0.23300  Biso   1.000  H
  C179     1.0000 0.75420  0.70470  0.26260  Biso   1.000  C
  H119     1.0000 0.77320  0.67000  0.24500  Biso   1.000  H
  C180     1.0000 0.28790  0.55290  0.75970  Biso   1.000  C
  H120     1.0000 0.31090  0.57680  0.74050  Biso   1.000  H
  N49      1.0000 0.06049  0.61490  0.58791  Biso   1.000  N
  N50      1.0000 0.70452  0.96970  0.58330  Biso   1.000  N
  N51      1.0000 0.69930  0.74630  0.22900  Biso   1.000  N
  N52      1.0000 0.84676  0.73220  0.44061  Biso   1.000  N
  N53      1.0000 0.85214  0.78980  0.52758  Biso   1.000  N
  N54      1.0000 0.76176  0.82200  0.43718  Biso   1.000  N
  N55      1.0000 0.58644  0.65790  0.09272  Biso   1.000  N
  N56      1.0000 0.21970  0.31300  0.07836  Biso   1.000  N
  N57      1.0000 0.22410  0.52880  0.72831  Biso   1.000  N
  N58      1.0000 0.37724  0.53740  0.94139  Biso   1.000  N
  N59      1.0000 0.37379  0.48860  0.02700  Biso   1.000  N
  N60      1.0000 0.28841  0.45040  0.93525  Biso   1.000  N
  Ag11     1.0000 0.65586  0.04227  0.63209  Biso   1.000  Ag
  Ag12     1.0000 0.17706  0.24777  0.13272  Biso   1.000  Ag
  C181     1.0000 0.37600  0.24270  0.49750  Biso   1.000  C
  C182     1.0000 0.72200  0.86230  0.99070  Biso   1.000  C
  H121     1.0000 0.70110  0.86620  0.95070  Biso   1.000  H
  C183     1.0000 0.90240  0.03030  0.99910  Biso   1.000  C
  C184     1.0000 0.26510  0.43530  0.61170  Biso   1.000  C
  H122     1.0000 0.28720  0.44260  0.65150  Biso   1.000  H
  C185     1.0000 0.20210  0.41560  0.49510  Biso   1.000  C
  H123     1.0000 0.17970  0.41100  0.45510  Biso   1.000  H
  C186     1.0000 0.46670  0.18780  0.58890  Biso   1.000  C
  H124     1.0000 0.44520  0.20920  0.61010  Biso   1.000  H
  C187     1.0000 0.44000  0.19760  0.52990  Biso   1.000  C
  C188     1.0000 0.05640  0.15690  0.03520  Biso   1.000  C
  H125     1.0000 0.07660  0.18470  0.01520  Biso   1.000  H
  C189     1.0000 0.99660  0.11650  0.00360  Biso   1.000  C
  H126     1.0000 0.97690  0.11810  0.96340  Biso   1.000  H
  C190     1.0000 0.78030  0.84800  0.10780  Biso   1.000  C
  H127     1.0000 0.80050  0.84330  0.14790  Biso   1.000  H
  C191     1.0000 0.29010  0.27290  0.41240  Biso   1.000  C
  C192     1.0000 0.96680  0.07360  0.03310  Biso   1.000  C
  C193     1.0000 0.82080  0.04380  0.81850  Biso   1.000  C
  H128     1.0000 0.86480  0.06170  0.83840  Biso   1.000  H
  C194     1.0000 0.25670  0.26230  0.34860  Biso   1.000  C
  C195     1.0000 0.47380  0.16450  0.50020  Biso   1.000  C
  H129     1.0000 0.45650  0.16930  0.46030  Biso   1.000  H
  C196     1.0000 0.81770  0.94810  0.99330  Biso   1.000  C
  C197     1.0000 0.81980  0.99800  0.91190  Biso   1.000  C
  C198     1.0000 0.78460  0.89860  0.02250  Biso   1.000  C
  C199     1.0000 0.81390  0.89060  0.08140  Biso   1.000  C
  H130     1.0000 0.85580  0.91340  0.10340  Biso   1.000  H
  C200     1.0000 0.52640  0.14530  0.61580  Biso   1.000  C
  H131     1.0000 0.54370  0.13740  0.65560  Biso   1.000  H
  C201     1.0000 0.17430  0.45920  0.52600  Biso   1.000  C
  H132     1.0000 0.13220  0.48240  0.50570  Biso   1.000  H
  C202     1.0000 0.53300  0.12450  0.53050  Biso   1.000  C
  H133     1.0000 0.55540  0.10280  0.51010  Biso   1.000  H
  C203     1.0000 0.69170  0.82040  0.02040  Biso   1.000  C
  H134     1.0000 0.65010  0.79630  0.99930  Biso   1.000  H
  C204     1.0000 0.29440  0.32760  0.49480  Biso   1.000  C
  C205     1.0000 0.26420  0.37910  0.52540  Biso   1.000  C
  C206     1.0000 0.69270  0.99510  0.75730  Biso   1.000  C
  H135     1.0000 0.64840  0.97860  0.73650  Biso   1.000  H
  C207     1.0000 0.29630  0.38970  0.58500  Biso   1.000  C
  H136     1.0000 0.33810  0.36650  0.60640  Biso   1.000  H
  C208     1.0000 0.99770  0.07330  0.09290  Biso   1.000  C
  H137     1.0000 0.97950  0.04430  0.11400  Biso   1.000  H
  C209     1.0000 0.78770  0.00760  0.84810  Biso   1.000  C
  C210     1.0000 0.28420  0.21070  0.32190  Biso   1.000  C
  H138     1.0000 0.32230  0.18040  0.34370  Biso   1.000  H
  C211     1.0000 0.72190  0.98320  0.81660  Biso   1.000  C
  H139     1.0000 0.69780  0.95940  0.83480  Biso   1.000  H
  C212     1.0000 0.05620  0.11700  0.12030  Biso   1.000  C
  H140     1.0000 0.07600  0.11810  0.16050  Biso   1.000  H
  C213     1.0000 0.19770  0.30260  0.31500  Biso   1.000  C
  H141     1.0000 0.17640  0.33530  0.33180  Biso   1.000  H
  C214     1.0000 0.17130  0.29280  0.25570  Biso   1.000  C
  H142     1.0000 0.13180  0.32020  0.23300  Biso   1.000  H
  C215     1.0000 0.25420  0.20470  0.26260  Biso   1.000  C
  H143     1.0000 0.27320  0.17000  0.24500  Biso   1.000  H
  C216     1.0000 0.78790  0.05290  0.75970  Biso   1.000  C
  H144     1.0000 0.81090  0.07680  0.74050  Biso   1.000  H
  N61      1.0000 0.56049  0.11490  0.58791  Biso   1.000  N
  N62      1.0000 0.20452  0.46970  0.58330  Biso   1.000  N
  N63      1.0000 0.19930  0.24630  0.22900  Biso   1.000  N
  N64      1.0000 0.34676  0.23220  0.44061  Biso   1.000  N
  N65      1.0000 0.35214  0.28980  0.52758  Biso   1.000  N
  N66      1.0000 0.26176  0.32200  0.43718  Biso   1.000  N
  N67      1.0000 0.08644  0.15790  0.09272  Biso   1.000  N
  N68      1.0000 0.71970  0.81300  0.07836  Biso   1.000  N
  N69      1.0000 0.72410  0.02880  0.72831  Biso   1.000  N
  N70      1.0000 0.87724  0.03740  0.94139  Biso   1.000  N
  N71      1.0000 0.87379  0.98860  0.02700  Biso   1.000  N
  N72      1.0000 0.78841  0.95040  0.93525  Biso   1.000  N
  Ag13     1.0000 0.84414  0.54227  0.86791  Biso   1.000  Ag
  Ag14     1.0000 0.32294  0.74777  0.36728  Biso   1.000  Ag
  C217     1.0000 0.12400  0.74270  0.00250  Biso   1.000  C
  C218     1.0000 0.77800  0.36230  0.50930  Biso   1.000  C
  H145     1.0000 0.79890  0.36620  0.54930  Biso   1.000  H
  C219     1.0000 0.59760  0.53030  0.50090  Biso   1.000  C
  C220     1.0000 0.23490  0.93530  0.88830  Biso   1.000  C
  H146     1.0000 0.21280  0.94260  0.84850  Biso   1.000  H
  C221     1.0000 0.29790  0.91560  0.00490  Biso   1.000  C
  H147     1.0000 0.32030  0.91100  0.04490  Biso   1.000  H
  C222     1.0000 0.03330  0.68780  0.91110  Biso   1.000  C
  H148     1.0000 0.05480  0.70920  0.88990  Biso   1.000  H
  C223     1.0000 0.06000  0.69760  0.97010  Biso   1.000  C
  C224     1.0000 0.44360  0.65690  0.46480  Biso   1.000  C
  H149     1.0000 0.42340  0.68470  0.48480  Biso   1.000  H
  C225     1.0000 0.50340  0.61650  0.49640  Biso   1.000  C
  H150     1.0000 0.52310  0.61810  0.53660  Biso   1.000  H
  C226     1.0000 0.71970  0.34800  0.39220  Biso   1.000  C
  H151     1.0000 0.69950  0.34330  0.35210  Biso   1.000  H
  C227     1.0000 0.20990  0.77290  0.08760  Biso   1.000  C
  C228     1.0000 0.53320  0.57360  0.46690  Biso   1.000  C
  C229     1.0000 0.67920  0.54380  0.68150  Biso   1.000  C
  H152     1.0000 0.63520  0.56170  0.66160  Biso   1.000  H
  C230     1.0000 0.24330  0.76230  0.15140  Biso   1.000  C
  C231     1.0000 0.02620  0.66450  0.99980  Biso   1.000  C
  H153     1.0000 0.04350  0.66930  0.03970  Biso   1.000  H
  C232     1.0000 0.68230  0.44810  0.50670  Biso   1.000  C
  C233     1.0000 0.68020  0.49800  0.58810  Biso   1.000  C
  C234     1.0000 0.71540  0.39860  0.47750  Biso   1.000  C
  C235     1.0000 0.68610  0.39060  0.41860  Biso   1.000  C
  H154     1.0000 0.64420  0.41340  0.39660  Biso   1.000  H
  C236     1.0000 0.97360  0.64530  0.88420  Biso   1.000  C
  H155     1.0000 0.95630  0.63740  0.84440  Biso   1.000  H
  C237     1.0000 0.32570  0.95920  0.97400  Biso   1.000  C
  H156     1.0000 0.36780  0.98240  0.99430  Biso   1.000  H
  C238     1.0000 0.96700  0.62450  0.96950  Biso   1.000  C
  H157     1.0000 0.94460  0.60280  0.98990  Biso   1.000  H
  C239     1.0000 0.80830  0.32040  0.47960  Biso   1.000  C
  H158     1.0000 0.84990  0.29630  0.50070  Biso   1.000  H
  C240     1.0000 0.20560  0.82760  0.00520  Biso   1.000  C
  C241     1.0000 0.23580  0.87910  0.97460  Biso   1.000  C
  C242     1.0000 0.80730  0.49510  0.74270  Biso   1.000  C
  H159     1.0000 0.85160  0.47860  0.76350  Biso   1.000  H
  C243     1.0000 0.20370  0.88970  0.91500  Biso   1.000  C
  H160     1.0000 0.16190  0.86650  0.89360  Biso   1.000  H
  C244     1.0000 0.50230  0.57330  0.40710  Biso   1.000  C
  H161     1.0000 0.52050  0.54430  0.38600  Biso   1.000  H
  C245     1.0000 0.71230  0.50760  0.65190  Biso   1.000  C
  C246     1.0000 0.21580  0.71070  0.17810  Biso   1.000  C
  H162     1.0000 0.17770  0.68040  0.15630  Biso   1.000  H
  C247     1.0000 0.77810  0.48320  0.68340  Biso   1.000  C
  H163     1.0000 0.80220  0.45940  0.66520  Biso   1.000  H
  C248     1.0000 0.44380  0.61700  0.37970  Biso   1.000  C
  H164     1.0000 0.42400  0.61810  0.33950  Biso   1.000  H
  C249     1.0000 0.30230  0.80260  0.18500  Biso   1.000  C
  H165     1.0000 0.32360  0.83530  0.16820  Biso   1.000  H
  C250     1.0000 0.32870  0.79280  0.24430  Biso   1.000  C
  H166     1.0000 0.36820  0.82020  0.26700  Biso   1.000  H
  C251     1.0000 0.24580  0.70470  0.23740  Biso   1.000  C
  H167     1.0000 0.22680  0.67000  0.25500  Biso   1.000  H
  C252     1.0000 0.71210  0.55290  0.74030  Biso   1.000  C
  H168     1.0000 0.68910  0.57680  0.75950  Biso   1.000  H
  N73      1.0000 0.93951  0.61490  0.91209  Biso   1.000  N
  N74      1.0000 0.29548  0.96970  0.91670  Biso   1.000  N
  N75      1.0000 0.30070  0.74630  0.27100  Biso   1.000  N
  N76      1.0000 0.15324  0.73220  0.05939  Biso   1.000  N
  N77      1.0000 0.14786  0.78980  0.97242  Biso   1.000  N
  N78      1.0000 0.23824  0.82200  0.06282  Biso   1.000  N
  N79      1.0000 0.41356  0.65790  0.40728  Biso   1.000  N
  N80      1.0000 0.78030  0.31300  0.42164  Biso   1.000  N
  N81      1.0000 0.77590  0.52880  0.77169  Biso   1.000  N
  N82      1.0000 0.62276  0.53740  0.55861  Biso   1.000  N
  N83      1.0000 0.62621  0.48860  0.47300  Biso   1.000  N
  N84      1.0000 0.71159  0.45040  0.56475  Biso   1.000  N
  Ag15     1.0000 0.34414  0.04227  0.86791  Biso   1.000  Ag
  Ag16     1.0000 0.82294  0.24777  0.36728  Biso   1.000  Ag
  C253     1.0000 0.62400  0.24270  0.00250  Biso   1.000  C
  C254     1.0000 0.27800  0.86230  0.50930  Biso   1.000  C
  H169     1.0000 0.29890  0.86620  0.54930  Biso   1.000  H
  C255     1.0000 0.09760  0.03030  0.50090  Biso   1.000  C
  C256     1.0000 0.73490  0.43530  0.88830  Biso   1.000  C
  H170     1.0000 0.71280  0.44260  0.84850  Biso   1.000  H
  C257     1.0000 0.79790  0.41560  0.00490  Biso   1.000  C
  H171     1.0000 0.82030  0.41100  0.04490  Biso   1.000  H
  C258     1.0000 0.53330  0.18780  0.91110  Biso   1.000  C
  H172     1.0000 0.55480  0.20920  0.88990  Biso   1.000  H
  C259     1.0000 0.56000  0.19760  0.97010  Biso   1.000  C
  C260     1.0000 0.94360  0.15690  0.46480  Biso   1.000  C
  H173     1.0000 0.92340  0.18470  0.48480  Biso   1.000  H
  C261     1.0000 0.00340  0.11650  0.49640  Biso   1.000  C
  H174     1.0000 0.02310  0.11810  0.53660  Biso   1.000  H
  C262     1.0000 0.21970  0.84800  0.39220  Biso   1.000  C
  H175     1.0000 0.19950  0.84330  0.35210  Biso   1.000  H
  C263     1.0000 0.70990  0.27290  0.08760  Biso   1.000  C
  C264     1.0000 0.03320  0.07360  0.46690  Biso   1.000  C
  C265     1.0000 0.17920  0.04380  0.68150  Biso   1.000  C
  H176     1.0000 0.13520  0.06170  0.66160  Biso   1.000  H
  C266     1.0000 0.74330  0.26230  0.15140  Biso   1.000  C
  C267     1.0000 0.52620  0.16450  0.99980  Biso   1.000  C
  H177     1.0000 0.54350  0.16930  0.03970  Biso   1.000  H
  C268     1.0000 0.18230  0.94810  0.50670  Biso   1.000  C
  C269     1.0000 0.18020  0.99800  0.58810  Biso   1.000  C
  C270     1.0000 0.21540  0.89860  0.47750  Biso   1.000  C
  C271     1.0000 0.18610  0.89060  0.41860  Biso   1.000  C
  H178     1.0000 0.14420  0.91340  0.39660  Biso   1.000  H
  C272     1.0000 0.47360  0.14530  0.88420  Biso   1.000  C
  H179     1.0000 0.45630  0.13740  0.84440  Biso   1.000  H
  C273     1.0000 0.82570  0.45920  0.97400  Biso   1.000  C
  H180     1.0000 0.86780  0.48240  0.99430  Biso   1.000  H
  C274     1.0000 0.46700  0.12450  0.96950  Biso   1.000  C
  H181     1.0000 0.44460  0.10280  0.98990  Biso   1.000  H
  C275     1.0000 0.30830  0.82040  0.47960  Biso   1.000  C
  H182     1.0000 0.34990  0.79630  0.50070  Biso   1.000  H
  C276     1.0000 0.70560  0.32760  0.00520  Biso   1.000  C
  C277     1.0000 0.73580  0.37910  0.97460  Biso   1.000  C
  C278     1.0000 0.30730  0.99510  0.74270  Biso   1.000  C
  H183     1.0000 0.35160  0.97860  0.76350  Biso   1.000  H
  C279     1.0000 0.70370  0.38970  0.91500  Biso   1.000  C
  H184     1.0000 0.66190  0.36650  0.89360  Biso   1.000  H
  C280     1.0000 0.00230  0.07330  0.40710  Biso   1.000  C
  H185     1.0000 0.02050  0.04430  0.38600  Biso   1.000  H
  C281     1.0000 0.21230  0.00760  0.65190  Biso   1.000  C
  C282     1.0000 0.71580  0.21070  0.17810  Biso   1.000  C
  H186     1.0000 0.67770  0.18040  0.15630  Biso   1.000  H
  C283     1.0000 0.27810  0.98320  0.68340  Biso   1.000  C
  H187     1.0000 0.30220  0.95940  0.66520  Biso   1.000  H
  C284     1.0000 0.94380  0.11700  0.37970  Biso   1.000  C
  H188     1.0000 0.92400  0.11810  0.33950  Biso   1.000  H
  C285     1.0000 0.80230  0.30260  0.18500  Biso   1.000  C
  H189     1.0000 0.82360  0.33530  0.16820  Biso   1.000  H
  C286     1.0000 0.82870  0.29280  0.24430  Biso   1.000  C
  H190     1.0000 0.86820  0.32020  0.26700  Biso   1.000  H
  C287     1.0000 0.74580  0.20470  0.23740  Biso   1.000  C
  H191     1.0000 0.72680  0.17000  0.25500  Biso   1.000  H
  C288     1.0000 0.21210  0.05290  0.74030  Biso   1.000  C
  H192     1.0000 0.18910  0.07680  0.75950  Biso   1.000  H
  N85      1.0000 0.43951  0.11490  0.91209  Biso   1.000  N
  N86      1.0000 0.79548  0.46970  0.91670  Biso   1.000  N
  N87      1.0000 0.80070  0.24630  0.27100  Biso   1.000  N
  N88      1.0000 0.65324  0.23220  0.05939  Biso   1.000  N
  N89      1.0000 0.64786  0.28980  0.97242  Biso   1.000  N
  N90      1.0000 0.73824  0.32200  0.06282  Biso   1.000  N
  N91      1.0000 0.91356  0.15790  0.40728  Biso   1.000  N
  N92      1.0000 0.28030  0.81300  0.42164  Biso   1.000  N
  N93      1.0000 0.27590  0.02880  0.77169  Biso   1.000  N
  N94      1.0000 0.12276  0.03740  0.55861  Biso   1.000  N
  N95      1.0000 0.12621  0.98860  0.47300  Biso   1.000  N
  N96      1.0000 0.21159  0.95040  0.56475  Biso   1.000  N
