data_image0
_cell_length_a       21.9867
_cell_length_b       16.5916
_cell_length_c       25.552
_cell_angle_alpha    90
_cell_angle_beta     115.203
_cell_angle_gamma    90

_symmetry_space_group_name_H-M    "P 1"
_symmetry_int_tables_number       1

loop_
  _symmetry_equiv_pos_as_xyz
  'x, y, z'

loop_
  _atom_site_label
  _atom_site_occupancy
  _atom_site_fract_x
  _atom_site_fract_y
  _atom_site_fract_z
  _atom_site_thermal_displace_type
  _atom_site_B_iso_or_equiv
  _atom_site_type_symbol
  Ag1      1.0000 0.84427  0.45709  0.36725  Biso   1.000  Ag
  Ag2      1.0000 0.82221  0.75508  0.86674  Biso   1.000  Ag
  C1       1.0000 0.09780  0.97050  0.99940  Biso   1.000  C
  C2       1.0000 0.62370  0.75590  0.50120  Biso   1.000  C
  C3       1.0000 0.27720  0.13840  0.00840  Biso   1.000  C
  H1       1.0000 0.29790  0.13500  0.04850  Biso   1.000  H
  C4       1.0000 0.55960  0.80140  0.46840  Biso   1.000  C
  C5       1.0000 0.18180  0.05250  0.00550  Biso   1.000  C
  C6       1.0000 0.00380  0.88470  0.99510  Biso   1.000  C
  H2       1.0000 0.02370  0.88310  0.03530  Biso   1.000  H
  C7       1.0000 0.79740  0.58360  0.50390  Biso   1.000  C
  H3       1.0000 0.81940  0.58750  0.54400  Biso   1.000  H
  C8       1.0000 0.53290  0.81100  0.41010  Biso   1.000  C
  H4       1.0000 0.55450  0.78980  0.38880  Biso   1.000  H
  C9       1.0000 0.71000  0.72620  0.58640  Biso   1.000  C
  C10      1.0000 0.94410  0.84420  0.96360  Biso   1.000  C
  H5       1.0000 0.92410  0.81620  0.98370  Biso   1.000  H
  C11      1.0000 0.22010  0.15300  0.89120  Biso   1.000  C
  H6       1.0000 0.20040  0.15810  0.85110  Biso   1.000  H
  C12      1.0000 0.18010  0.00230  0.08670  Biso   1.000  C
  C13      1.0000 0.17890  0.95590  0.17980  Biso   1.000  C
  H7       1.0000 0.13490  0.93810  0.15960  Biso   1.000  H
  C14      1.0000 0.74310  0.73640  0.65020  Biso   1.000  C
  C15      1.0000 0.03330  0.92750  0.96550  Biso   1.000  C
  C16      1.0000 0.73560  0.56480  0.38780  Biso   1.000  C
  H8       1.0000 0.71430  0.55850  0.34780  Biso   1.000  H
  C17      1.0000 0.73550  0.62090  0.47330  Biso   1.000  C
  C18      1.0000 0.52560  0.83510  0.49800  Biso   1.000  C
  H9       1.0000 0.54290  0.83080  0.53810  Biso   1.000  H
  C19      1.0000 0.21470  0.10130  0.97660  Biso   1.000  C
  C20      1.0000 0.70390  0.60950  0.41400  Biso   1.000  C
  H10      1.0000 0.66180  0.63180  0.39230  Biso   1.000  H
  C21      1.0000 0.21230  0.99180  0.15100  Biso   1.000  C
  C22      1.0000 0.18600  0.11030  0.91720  Biso   1.000  C
  H11      1.0000 0.14420  0.08780  0.89470  Biso   1.000  H
  C23      1.0000 0.70500  0.67230  0.50360  Biso   1.000  C
  C24      1.0000 0.47330  0.85280  0.38280  Biso   1.000  C
  H12      1.0000 0.45590  0.86030  0.34300  Biso   1.000  H
  C25      1.0000 0.46700  0.87440  0.46790  Biso   1.000  C
  H13      1.0000 0.44480  0.89680  0.48840  Biso   1.000  H
  C26      1.0000 0.82530  0.54100  0.47340  Biso   1.000  C
  H14      1.0000 0.86760  0.51840  0.49390  Biso   1.000  H
  C27      1.0000 0.30740  0.18070  0.97830  Biso   1.000  C
  H15      1.0000 0.34870  0.20540  0.99930  Biso   1.000  H
  C28      1.0000 0.00200  0.92800  0.90570  Biso   1.000  C
  H16      1.0000 0.01970  0.95770  0.88460  Biso   1.000  H
  C29      1.0000 0.30680  0.00500  0.24160  Biso   1.000  C
  H17      1.0000 0.35110  0.02160  0.26260  Biso   1.000  H
  C30      1.0000 0.71450  0.78800  0.67670  Biso   1.000  C
  H18      1.0000 0.67580  0.81720  0.65500  Biso   1.000  H
  C31      1.0000 0.94410  0.88370  0.87810  Biso   1.000  C
  H19      1.0000 0.92480  0.88170  0.83790  Biso   1.000  H
  C32      1.0000 0.21140  0.94660  0.23900  Biso   1.000  C
  H20      1.0000 0.18850  0.92220  0.25810  Biso   1.000  H
  C33      1.0000 0.27780  0.01680  0.18250  Biso   1.000  C
  H21      1.0000 0.30180  0.04090  0.16430  Biso   1.000  H
  C34      1.0000 0.74550  0.79420  0.73600  Biso   1.000  C
  H22      1.0000 0.72650  0.82870  0.75360  Biso   1.000  H
  C35      1.0000 0.82810  0.70850  0.74320  Biso   1.000  C
  H23      1.0000 0.86730  0.68080  0.76590  Biso   1.000  H
  C36      1.0000 0.80210  0.69910  0.68400  Biso   1.000  C
  H24      1.0000 0.82440  0.66780  0.66750  Biso   1.000  H
  N1       1.0000 0.79540  0.53020  0.41650  Biso   1.000  N
  N2       1.0000 0.43940  0.88270  0.41100  Biso   1.000  N
  N3       1.0000 0.80050  0.75490  0.76970  Biso   1.000  N
  N4       1.0000 0.73760  0.67730  0.56150  Biso   1.000  N
  N5       1.0000 0.64790  0.71010  0.47130  Biso   1.000  N
  N6       1.0000 0.65270  0.76690  0.55820  Biso   1.000  N
  N7       1.0000 0.91370  0.84330  0.90580  Biso   1.000  N
  N8       1.0000 0.27510  0.97140  0.27030  Biso   1.000  N
  N9       1.0000 0.27980  0.18700  0.92120  Biso   1.000  N
  N10      1.0000 0.12560  0.01270  0.97180  Biso   1.000  N
  N11      1.0000 0.12270  0.96330  0.05730  Biso   1.000  N
  N12      1.0000 0.21110  0.04990  0.06350  Biso   1.000  N
  Ag3      1.0000 0.34427  0.95709  0.36725  Biso   1.000  Ag
  Ag4      1.0000 0.32221  0.25508  0.86674  Biso   1.000  Ag
  C37      1.0000 0.59780  0.47050  0.99940  Biso   1.000  C
  C38      1.0000 0.12370  0.25590  0.50120  Biso   1.000  C
  C39      1.0000 0.77720  0.63840  0.00840  Biso   1.000  C
  H25      1.0000 0.79790  0.63500  0.04850  Biso   1.000  H
  C40      1.0000 0.05960  0.30140  0.46840  Biso   1.000  C
  C41      1.0000 0.68180  0.55250  0.00550  Biso   1.000  C
  C42      1.0000 0.50380  0.38470  0.99510  Biso   1.000  C
  H26      1.0000 0.52370  0.38310  0.03530  Biso   1.000  H
  C43      1.0000 0.29740  0.08360  0.50390  Biso   1.000  C
  H27      1.0000 0.31940  0.08750  0.54400  Biso   1.000  H
  C44      1.0000 0.03290  0.31100  0.41010  Biso   1.000  C
  H28      1.0000 0.05450  0.28980  0.38880  Biso   1.000  H
  C45      1.0000 0.21000  0.22620  0.58640  Biso   1.000  C
  C46      1.0000 0.44410  0.34420  0.96360  Biso   1.000  C
  H29      1.0000 0.42410  0.31620  0.98370  Biso   1.000  H
  C47      1.0000 0.72010  0.65300  0.89120  Biso   1.000  C
  H30      1.0000 0.70040  0.65810  0.85110  Biso   1.000  H
  C48      1.0000 0.68010  0.50230  0.08670  Biso   1.000  C
  C49      1.0000 0.67890  0.45590  0.17980  Biso   1.000  C
  H31      1.0000 0.63490  0.43810  0.15960  Biso   1.000  H
  C50      1.0000 0.24310  0.23640  0.65020  Biso   1.000  C
  C51      1.0000 0.53330  0.42750  0.96550  Biso   1.000  C
  C52      1.0000 0.23560  0.06480  0.38780  Biso   1.000  C
  H32      1.0000 0.21430  0.05850  0.34780  Biso   1.000  H
  C53      1.0000 0.23550  0.12090  0.47330  Biso   1.000  C
  C54      1.0000 0.02560  0.33510  0.49800  Biso   1.000  C
  H33      1.0000 0.04290  0.33080  0.53810  Biso   1.000  H
  C55      1.0000 0.71470  0.60130  0.97660  Biso   1.000  C
  C56      1.0000 0.20390  0.10950  0.41400  Biso   1.000  C
  H34      1.0000 0.16180  0.13180  0.39230  Biso   1.000  H
  C57      1.0000 0.71230  0.49180  0.15100  Biso   1.000  C
  C58      1.0000 0.68600  0.61030  0.91720  Biso   1.000  C
  H35      1.0000 0.64420  0.58780  0.89470  Biso   1.000  H
  C59      1.0000 0.20500  0.17230  0.50360  Biso   1.000  C
  C60      1.0000 0.97330  0.35280  0.38280  Biso   1.000  C
  H36      1.0000 0.95590  0.36030  0.34300  Biso   1.000  H
  C61      1.0000 0.96700  0.37440  0.46790  Biso   1.000  C
  H37      1.0000 0.94480  0.39680  0.48840  Biso   1.000  H
  C62      1.0000 0.32530  0.04100  0.47340  Biso   1.000  C
  H38      1.0000 0.36760  0.01840  0.49390  Biso   1.000  H
  C63      1.0000 0.80740  0.68070  0.97830  Biso   1.000  C
  H39      1.0000 0.84870  0.70540  0.99930  Biso   1.000  H
  C64      1.0000 0.50200  0.42800  0.90570  Biso   1.000  C
  H40      1.0000 0.51970  0.45770  0.88460  Biso   1.000  H
  C65      1.0000 0.80680  0.50500  0.24160  Biso   1.000  C
  H41      1.0000 0.85110  0.52160  0.26260  Biso   1.000  H
  C66      1.0000 0.21450  0.28800  0.67670  Biso   1.000  C
  H42      1.0000 0.17580  0.31720  0.65500  Biso   1.000  H
  C67      1.0000 0.44410  0.38370  0.87810  Biso   1.000  C
  H43      1.0000 0.42480  0.38170  0.83790  Biso   1.000  H
  C68      1.0000 0.71140  0.44660  0.23900  Biso   1.000  C
  H44      1.0000 0.68850  0.42220  0.25810  Biso   1.000  H
  C69      1.0000 0.77780  0.51680  0.18250  Biso   1.000  C
  H45      1.0000 0.80180  0.54090  0.16430  Biso   1.000  H
  C70      1.0000 0.24550  0.29420  0.73600  Biso   1.000  C
  H46      1.0000 0.22650  0.32870  0.75360  Biso   1.000  H
  C71      1.0000 0.32810  0.20850  0.74320  Biso   1.000  C
  H47      1.0000 0.36730  0.18080  0.76590  Biso   1.000  H
  C72      1.0000 0.30210  0.19910  0.68400  Biso   1.000  C
  H48      1.0000 0.32440  0.16780  0.66750  Biso   1.000  H
  N13      1.0000 0.29540  0.03020  0.41650  Biso   1.000  N
  N14      1.0000 0.93940  0.38270  0.41100  Biso   1.000  N
  N15      1.0000 0.30050  0.25490  0.76970  Biso   1.000  N
  N16      1.0000 0.23760  0.17730  0.56150  Biso   1.000  N
  N17      1.0000 0.14790  0.21010  0.47130  Biso   1.000  N
  N18      1.0000 0.15270  0.26690  0.55820  Biso   1.000  N
  N19      1.0000 0.41370  0.34330  0.90580  Biso   1.000  N
  N20      1.0000 0.77510  0.47140  0.27030  Biso   1.000  N
  N21      1.0000 0.77980  0.68700  0.92120  Biso   1.000  N
  N22      1.0000 0.62560  0.51270  0.97180  Biso   1.000  N
  N23      1.0000 0.62270  0.46330  0.05730  Biso   1.000  N
  N24      1.0000 0.71110  0.54990  0.06350  Biso   1.000  N
  Ag5      1.0000 0.15573  0.45709  0.13275  Biso   1.000  Ag
  Ag6      1.0000 0.17779  0.75508  0.63326  Biso   1.000  Ag
  C73      1.0000 0.90220  0.97050  0.50060  Biso   1.000  C
  C74      1.0000 0.37630  0.75590  0.99880  Biso   1.000  C
  C75      1.0000 0.72280  0.13840  0.49160  Biso   1.000  C
  H49      1.0000 0.70210  0.13500  0.45150  Biso   1.000  H
  C76      1.0000 0.44040  0.80140  0.03160  Biso   1.000  C
  C77      1.0000 0.81820  0.05250  0.49450  Biso   1.000  C
  C78      1.0000 0.99620  0.88470  0.50490  Biso   1.000  C
  H50      1.0000 0.97630  0.88310  0.46470  Biso   1.000  H
  C79      1.0000 0.20260  0.58360  0.99610  Biso   1.000  C
  H51      1.0000 0.18060  0.58750  0.95600  Biso   1.000  H
  C80      1.0000 0.46710  0.81100  0.08990  Biso   1.000  C
  H52      1.0000 0.44550  0.78980  0.11120  Biso   1.000  H
  C81      1.0000 0.29000  0.72620  0.91360  Biso   1.000  C
  C82      1.0000 0.05590  0.84420  0.53640  Biso   1.000  C
  H53      1.0000 0.07590  0.81620  0.51630  Biso   1.000  H
  C83      1.0000 0.77990  0.15300  0.60880  Biso   1.000  C
  H54      1.0000 0.79960  0.15810  0.64890  Biso   1.000  H
  C84      1.0000 0.81990  0.00230  0.41330  Biso   1.000  C
  C85      1.0000 0.82110  0.95590  0.32020  Biso   1.000  C
  H55      1.0000 0.86510  0.93810  0.34040  Biso   1.000  H
  C86      1.0000 0.25690  0.73640  0.84980  Biso   1.000  C
  C87      1.0000 0.96670  0.92750  0.53450  Biso   1.000  C
  C88      1.0000 0.26440  0.56480  0.11220  Biso   1.000  C
  H56      1.0000 0.28570  0.55850  0.15220  Biso   1.000  H
  C89      1.0000 0.26450  0.62090  0.02670  Biso   1.000  C
  C90      1.0000 0.47440  0.83510  0.00200  Biso   1.000  C
  H57      1.0000 0.45710  0.83080  0.96190  Biso   1.000  H
  C91      1.0000 0.78530  0.10130  0.52340  Biso   1.000  C
  C92      1.0000 0.29610  0.60950  0.08600  Biso   1.000  C
  H58      1.0000 0.33820  0.63180  0.10770  Biso   1.000  H
  C93      1.0000 0.78770  0.99180  0.34900  Biso   1.000  C
  C94      1.0000 0.81400  0.11030  0.58280  Biso   1.000  C
  H59      1.0000 0.85580  0.08780  0.60530  Biso   1.000  H
  C95      1.0000 0.29500  0.67230  0.99640  Biso   1.000  C
  C96      1.0000 0.52670  0.85280  0.11720  Biso   1.000  C
  H60      1.0000 0.54410  0.86030  0.15700  Biso   1.000  H
  C97      1.0000 0.53300  0.87440  0.03210  Biso   1.000  C
  H61      1.0000 0.55520  0.89680  0.01160  Biso   1.000  H
  C98      1.0000 0.17470  0.54100  0.02660  Biso   1.000  C
  H62      1.0000 0.13240  0.51840  0.00610  Biso   1.000  H
  C99      1.0000 0.69260  0.18070  0.52170  Biso   1.000  C
  H63      1.0000 0.65130  0.20540  0.50070  Biso   1.000  H
  C100     1.0000 0.99800  0.92800  0.59430  Biso   1.000  C
  H64      1.0000 0.98030  0.95770  0.61540  Biso   1.000  H
  C101     1.0000 0.69320  0.00500  0.25840  Biso   1.000  C
  H65      1.0000 0.64890  0.02160  0.23740  Biso   1.000  H
  C102     1.0000 0.28550  0.78800  0.82330  Biso   1.000  C
  H66      1.0000 0.32420  0.81720  0.84500  Biso   1.000  H
  C103     1.0000 0.05590  0.88370  0.62190  Biso   1.000  C
  H67      1.0000 0.07520  0.88170  0.66210  Biso   1.000  H
  C104     1.0000 0.78860  0.94660  0.26100  Biso   1.000  C
  H68      1.0000 0.81150  0.92220  0.24190  Biso   1.000  H
  C105     1.0000 0.72220  0.01680  0.31750  Biso   1.000  C
  H69      1.0000 0.69820  0.04090  0.33570  Biso   1.000  H
  C106     1.0000 0.25450  0.79420  0.76400  Biso   1.000  C
  H70      1.0000 0.27350  0.82870  0.74640  Biso   1.000  H
  C107     1.0000 0.17190  0.70850  0.75680  Biso   1.000  C
  H71      1.0000 0.13270  0.68080  0.73410  Biso   1.000  H
  C108     1.0000 0.19790  0.69910  0.81600  Biso   1.000  C
  H72      1.0000 0.17560  0.66780  0.83250  Biso   1.000  H
  N25      1.0000 0.20460  0.53020  0.08350  Biso   1.000  N
  N26      1.0000 0.56060  0.88270  0.08900  Biso   1.000  N
  N27      1.0000 0.19950  0.75490  0.73030  Biso   1.000  N
  N28      1.0000 0.26240  0.67730  0.93850  Biso   1.000  N
  N29      1.0000 0.35210  0.71010  0.02870  Biso   1.000  N
  N30      1.0000 0.34730  0.76690  0.94180  Biso   1.000  N
  N31      1.0000 0.08630  0.84330  0.59420  Biso   1.000  N
  N32      1.0000 0.72490  0.97140  0.22970  Biso   1.000  N
  N33      1.0000 0.72020  0.18700  0.57880  Biso   1.000  N
  N34      1.0000 0.87440  0.01270  0.52820  Biso   1.000  N
  N35      1.0000 0.87730  0.96330  0.44270  Biso   1.000  N
  N36      1.0000 0.78890  0.04990  0.43650  Biso   1.000  N
  Ag7      1.0000 0.65573  0.95709  0.13275  Biso   1.000  Ag
  Ag8      1.0000 0.67779  0.25508  0.63326  Biso   1.000  Ag
  C109     1.0000 0.40220  0.47050  0.50060  Biso   1.000  C
  C110     1.0000 0.87630  0.25590  0.99880  Biso   1.000  C
  C111     1.0000 0.22280  0.63840  0.49160  Biso   1.000  C
  H73      1.0000 0.20210  0.63500  0.45150  Biso   1.000  H
  C112     1.0000 0.94040  0.30140  0.03160  Biso   1.000  C
  C113     1.0000 0.31820  0.55250  0.49450  Biso   1.000  C
  C114     1.0000 0.49620  0.38470  0.50490  Biso   1.000  C
  H74      1.0000 0.47630  0.38310  0.46470  Biso   1.000  H
  C115     1.0000 0.70260  0.08360  0.99610  Biso   1.000  C
  H75      1.0000 0.68060  0.08750  0.95600  Biso   1.000  H
  C116     1.0000 0.96710  0.31100  0.08990  Biso   1.000  C
  H76      1.0000 0.94550  0.28980  0.11120  Biso   1.000  H
  C117     1.0000 0.79000  0.22620  0.91360  Biso   1.000  C
  C118     1.0000 0.55590  0.34420  0.53640  Biso   1.000  C
  H77      1.0000 0.57590  0.31620  0.51630  Biso   1.000  H
  C119     1.0000 0.27990  0.65300  0.60880  Biso   1.000  C
  H78      1.0000 0.29960  0.65810  0.64890  Biso   1.000  H
  C120     1.0000 0.31990  0.50230  0.41330  Biso   1.000  C
  C121     1.0000 0.32110  0.45590  0.32020  Biso   1.000  C
  H79      1.0000 0.36510  0.43810  0.34040  Biso   1.000  H
  C122     1.0000 0.75690  0.23640  0.84980  Biso   1.000  C
  C123     1.0000 0.46670  0.42750  0.53450  Biso   1.000  C
  C124     1.0000 0.76440  0.06480  0.11220  Biso   1.000  C
  H80      1.0000 0.78570  0.05850  0.15220  Biso   1.000  H
  C125     1.0000 0.76450  0.12090  0.02670  Biso   1.000  C
  C126     1.0000 0.97440  0.33510  0.00200  Biso   1.000  C
  H81      1.0000 0.95710  0.33080  0.96190  Biso   1.000  H
  C127     1.0000 0.28530  0.60130  0.52340  Biso   1.000  C
  C128     1.0000 0.79610  0.10950  0.08600  Biso   1.000  C
  H82      1.0000 0.83820  0.13180  0.10770  Biso   1.000  H
  C129     1.0000 0.28770  0.49180  0.34900  Biso   1.000  C
  C130     1.0000 0.31400  0.61030  0.58280  Biso   1.000  C
  H83      1.0000 0.35580  0.58780  0.60530  Biso   1.000  H
  C131     1.0000 0.79500  0.17230  0.99640  Biso   1.000  C
  C132     1.0000 0.02670  0.35280  0.11720  Biso   1.000  C
  H84      1.0000 0.04410  0.36030  0.15700  Biso   1.000  H
  C133     1.0000 0.03300  0.37440  0.03210  Biso   1.000  C
  H85      1.0000 0.05520  0.39680  0.01160  Biso   1.000  H
  C134     1.0000 0.67470  0.04100  0.02660  Biso   1.000  C
  H86      1.0000 0.63240  0.01840  0.00610  Biso   1.000  H
  C135     1.0000 0.19260  0.68070  0.52170  Biso   1.000  C
  H87      1.0000 0.15130  0.70540  0.50070  Biso   1.000  H
  C136     1.0000 0.49800  0.42800  0.59430  Biso   1.000  C
  H88      1.0000 0.48030  0.45770  0.61540  Biso   1.000  H
  C137     1.0000 0.19320  0.50500  0.25840  Biso   1.000  C
  H89      1.0000 0.14890  0.52160  0.23740  Biso   1.000  H
  C138     1.0000 0.78550  0.28800  0.82330  Biso   1.000  C
  H90      1.0000 0.82420  0.31720  0.84500  Biso   1.000  H
  C139     1.0000 0.55590  0.38370  0.62190  Biso   1.000  C
  H91      1.0000 0.57520  0.38170  0.66210  Biso   1.000  H
  C140     1.0000 0.28860  0.44660  0.26100  Biso   1.000  C
  H92      1.0000 0.31150  0.42220  0.24190  Biso   1.000  H
  C141     1.0000 0.22220  0.51680  0.31750  Biso   1.000  C
  H93      1.0000 0.19820  0.54090  0.33570  Biso   1.000  H
  C142     1.0000 0.75450  0.29420  0.76400  Biso   1.000  C
  H94      1.0000 0.77350  0.32870  0.74640  Biso   1.000  H
  C143     1.0000 0.67190  0.20850  0.75680  Biso   1.000  C
  H95      1.0000 0.63270  0.18080  0.73410  Biso   1.000  H
  C144     1.0000 0.69790  0.19910  0.81600  Biso   1.000  C
  H96      1.0000 0.67560  0.16780  0.83250  Biso   1.000  H
  N37      1.0000 0.70460  0.03020  0.08350  Biso   1.000  N
  N38      1.0000 0.06060  0.38270  0.08900  Biso   1.000  N
  N39      1.0000 0.69950  0.25490  0.73030  Biso   1.000  N
  N40      1.0000 0.76240  0.17730  0.93850  Biso   1.000  N
  N41      1.0000 0.85210  0.21010  0.02870  Biso   1.000  N
  N42      1.0000 0.84730  0.26690  0.94180  Biso   1.000  N
  N43      1.0000 0.58630  0.34330  0.59420  Biso   1.000  N
  N44      1.0000 0.22490  0.47140  0.22970  Biso   1.000  N
  N45      1.0000 0.22020  0.68700  0.57880  Biso   1.000  N
  N46      1.0000 0.37440  0.51270  0.52820  Biso   1.000  N
  N47      1.0000 0.37730  0.46330  0.44270  Biso   1.000  N
  N48      1.0000 0.28890  0.54990  0.43650  Biso   1.000  N
  Ag9      1.0000 0.15573  0.54291  0.63275  Biso   1.000  Ag
  Ag10     1.0000 0.17779  0.24492  0.13326  Biso   1.000  Ag
  C145     1.0000 0.90220  0.02950  0.00060  Biso   1.000  C
  C146     1.0000 0.37630  0.24410  0.49880  Biso   1.000  C
  C147     1.0000 0.72280  0.86160  0.99160  Biso   1.000  C
  H97      1.0000 0.70210  0.86500  0.95150  Biso   1.000  H
  C148     1.0000 0.44040  0.19860  0.53160  Biso   1.000  C
  C149     1.0000 0.81820  0.94750  0.99450  Biso   1.000  C
  C150     1.0000 0.99620  0.11530  0.00490  Biso   1.000  C
  H98      1.0000 0.97630  0.11690  0.96470  Biso   1.000  H
  C151     1.0000 0.20260  0.41640  0.49610  Biso   1.000  C
  H99      1.0000 0.18060  0.41250  0.45600  Biso   1.000  H
  C152     1.0000 0.46710  0.18900  0.58990  Biso   1.000  C
  H100     1.0000 0.44550  0.21020  0.61120  Biso   1.000  H
  C153     1.0000 0.29000  0.27380  0.41360  Biso   1.000  C
  C154     1.0000 0.05590  0.15580  0.03640  Biso   1.000  C
  H101     1.0000 0.07590  0.18380  0.01630  Biso   1.000  H
  C155     1.0000 0.77990  0.84700  0.10880  Biso   1.000  C
  H102     1.0000 0.79960  0.84190  0.14890  Biso   1.000  H
  C156     1.0000 0.81990  0.99770  0.91330  Biso   1.000  C
  C157     1.0000 0.82110  0.04410  0.82020  Biso   1.000  C
  H103     1.0000 0.86510  0.06190  0.84040  Biso   1.000  H
  C158     1.0000 0.25690  0.26360  0.34980  Biso   1.000  C
  C159     1.0000 0.96670  0.07250  0.03450  Biso   1.000  C
  C160     1.0000 0.26440  0.43520  0.61220  Biso   1.000  C
  H104     1.0000 0.28570  0.44150  0.65220  Biso   1.000  H
  C161     1.0000 0.26450  0.37910  0.52670  Biso   1.000  C
  C162     1.0000 0.47440  0.16490  0.50200  Biso   1.000  C
  H105     1.0000 0.45710  0.16920  0.46190  Biso   1.000  H
  C163     1.0000 0.78530  0.89870  0.02340  Biso   1.000  C
  C164     1.0000 0.29610  0.39050  0.58600  Biso   1.000  C
  H106     1.0000 0.33820  0.36820  0.60770  Biso   1.000  H
  C165     1.0000 0.78770  0.00820  0.84900  Biso   1.000  C
  C166     1.0000 0.81400  0.88970  0.08280  Biso   1.000  C
  H107     1.0000 0.85580  0.91220  0.10530  Biso   1.000  H
  C167     1.0000 0.29500  0.32770  0.49640  Biso   1.000  C
  C168     1.0000 0.52670  0.14720  0.61720  Biso   1.000  C
  H108     1.0000 0.54410  0.13970  0.65700  Biso   1.000  H
  C169     1.0000 0.53300  0.12560  0.53210  Biso   1.000  C
  H109     1.0000 0.55520  0.10320  0.51160  Biso   1.000  H
  C170     1.0000 0.17470  0.45900  0.52660  Biso   1.000  C
  H110     1.0000 0.13240  0.48160  0.50610  Biso   1.000  H
  C171     1.0000 0.69260  0.81930  0.02170  Biso   1.000  C
  H111     1.0000 0.65130  0.79460  0.00070  Biso   1.000  H
  C172     1.0000 0.99800  0.07200  0.09430  Biso   1.000  C
  H112     1.0000 0.98030  0.04230  0.11540  Biso   1.000  H
  C173     1.0000 0.69320  0.99500  0.75840  Biso   1.000  C
  H113     1.0000 0.64890  0.97840  0.73740  Biso   1.000  H
  C174     1.0000 0.28550  0.21200  0.32330  Biso   1.000  C
  H114     1.0000 0.32420  0.18280  0.34500  Biso   1.000  H
  C175     1.0000 0.05590  0.11630  0.12190  Biso   1.000  C
  H115     1.0000 0.07520  0.11830  0.16210  Biso   1.000  H
  C176     1.0000 0.78860  0.05340  0.76100  Biso   1.000  C
  H116     1.0000 0.81150  0.07780  0.74190  Biso   1.000  H
  C177     1.0000 0.72220  0.98320  0.81750  Biso   1.000  C
  H117     1.0000 0.69820  0.95910  0.83570  Biso   1.000  H
  C178     1.0000 0.25450  0.20580  0.26400  Biso   1.000  C
  H118     1.0000 0.27350  0.17130  0.24640  Biso   1.000  H
  C179     1.0000 0.17190  0.29150  0.25680  Biso   1.000  C
  H119     1.0000 0.13270  0.31920  0.23410  Biso   1.000  H
  C180     1.0000 0.19790  0.30090  0.31600  Biso   1.000  C
  H120     1.0000 0.17560  0.33220  0.33250  Biso   1.000  H
  N49      1.0000 0.20460  0.46980  0.58350  Biso   1.000  N
  N50      1.0000 0.56060  0.11730  0.58900  Biso   1.000  N
  N51      1.0000 0.19950  0.24510  0.23030  Biso   1.000  N
  N52      1.0000 0.26240  0.32270  0.43850  Biso   1.000  N
  N53      1.0000 0.35210  0.28990  0.52870  Biso   1.000  N
  N54      1.0000 0.34730  0.23310  0.44180  Biso   1.000  N
  N55      1.0000 0.08630  0.15670  0.09420  Biso   1.000  N
  N56      1.0000 0.72490  0.02860  0.72970  Biso   1.000  N
  N57      1.0000 0.72020  0.81300  0.07880  Biso   1.000  N
  N58      1.0000 0.87440  0.98730  0.02820  Biso   1.000  N
  N59      1.0000 0.87730  0.03670  0.94270  Biso   1.000  N
  N60      1.0000 0.78890  0.95010  0.93650  Biso   1.000  N
  Ag11     1.0000 0.65573  0.04291  0.63275  Biso   1.000  Ag
  Ag12     1.0000 0.67779  0.74492  0.13326  Biso   1.000  Ag
  C181     1.0000 0.40220  0.52950  0.00060  Biso   1.000  C
  C182     1.0000 0.87630  0.74410  0.49880  Biso   1.000  C
  C183     1.0000 0.22280  0.36160  0.99160  Biso   1.000  C
  H121     1.0000 0.20210  0.36500  0.95150  Biso   1.000  H
  C184     1.0000 0.94040  0.69860  0.53160  Biso   1.000  C
  C185     1.0000 0.31820  0.44750  0.99450  Biso   1.000  C
  C186     1.0000 0.49620  0.61530  0.00490  Biso   1.000  C
  H122     1.0000 0.47630  0.61690  0.96470  Biso   1.000  H
  C187     1.0000 0.70260  0.91640  0.49610  Biso   1.000  C
  H123     1.0000 0.68060  0.91250  0.45600  Biso   1.000  H
  C188     1.0000 0.96710  0.68900  0.58990  Biso   1.000  C
  H124     1.0000 0.94550  0.71020  0.61120  Biso   1.000  H
  C189     1.0000 0.79000  0.77380  0.41360  Biso   1.000  C
  C190     1.0000 0.55590  0.65580  0.03640  Biso   1.000  C
  H125     1.0000 0.57590  0.68380  0.01630  Biso   1.000  H
  C191     1.0000 0.27990  0.34700  0.10880  Biso   1.000  C
  H126     1.0000 0.29960  0.34190  0.14890  Biso   1.000  H
  C192     1.0000 0.31990  0.49770  0.91330  Biso   1.000  C
  C193     1.0000 0.32110  0.54410  0.82020  Biso   1.000  C
  H127     1.0000 0.36510  0.56190  0.84040  Biso   1.000  H
  C194     1.0000 0.75690  0.76360  0.34980  Biso   1.000  C
  C195     1.0000 0.46670  0.57250  0.03450  Biso   1.000  C
  C196     1.0000 0.76440  0.93520  0.61220  Biso   1.000  C
  H128     1.0000 0.78570  0.94150  0.65220  Biso   1.000  H
  C197     1.0000 0.76450  0.87910  0.52670  Biso   1.000  C
  C198     1.0000 0.97440  0.66490  0.50200  Biso   1.000  C
  H129     1.0000 0.95710  0.66920  0.46190  Biso   1.000  H
  C199     1.0000 0.28530  0.39870  0.02340  Biso   1.000  C
  C200     1.0000 0.79610  0.89050  0.58600  Biso   1.000  C
  H130     1.0000 0.83820  0.86820  0.60770  Biso   1.000  H
  C201     1.0000 0.28770  0.50820  0.84900  Biso   1.000  C
  C202     1.0000 0.31400  0.38970  0.08280  Biso   1.000  C
  H131     1.0000 0.35580  0.41220  0.10530  Biso   1.000  H
  C203     1.0000 0.79500  0.82770  0.49640  Biso   1.000  C
  C204     1.0000 0.02670  0.64720  0.61720  Biso   1.000  C
  H132     1.0000 0.04410  0.63970  0.65700  Biso   1.000  H
  C205     1.0000 0.03300  0.62560  0.53210  Biso   1.000  C
  H133     1.0000 0.05520  0.60320  0.51160  Biso   1.000  H
  C206     1.0000 0.67470  0.95900  0.52660  Biso   1.000  C
  H134     1.0000 0.63240  0.98160  0.50610  Biso   1.000  H
  C207     1.0000 0.19260  0.31930  0.02170  Biso   1.000  C
  H135     1.0000 0.15130  0.29460  0.00070  Biso   1.000  H
  C208     1.0000 0.49800  0.57200  0.09430  Biso   1.000  C
  H136     1.0000 0.48030  0.54230  0.11540  Biso   1.000  H
  C209     1.0000 0.19320  0.49500  0.75840  Biso   1.000  C
  H137     1.0000 0.14890  0.47840  0.73740  Biso   1.000  H
  C210     1.0000 0.78550  0.71200  0.32330  Biso   1.000  C
  H138     1.0000 0.82420  0.68280  0.34500  Biso   1.000  H
  C211     1.0000 0.55590  0.61630  0.12190  Biso   1.000  C
  H139     1.0000 0.57520  0.61830  0.16210  Biso   1.000  H
  C212     1.0000 0.28860  0.55340  0.76100  Biso   1.000  C
  H140     1.0000 0.31150  0.57780  0.74190  Biso   1.000  H
  C213     1.0000 0.22220  0.48320  0.81750  Biso   1.000  C
  H141     1.0000 0.19820  0.45910  0.83570  Biso   1.000  H
  C214     1.0000 0.75450  0.70580  0.26400  Biso   1.000  C
  H142     1.0000 0.77350  0.67130  0.24640  Biso   1.000  H
  C215     1.0000 0.67190  0.79150  0.25680  Biso   1.000  C
  H143     1.0000 0.63270  0.81920  0.23410  Biso   1.000  H
  C216     1.0000 0.69790  0.80090  0.31600  Biso   1.000  C
  H144     1.0000 0.67560  0.83220  0.33250  Biso   1.000  H
  N61      1.0000 0.70460  0.96980  0.58350  Biso   1.000  N
  N62      1.0000 0.06060  0.61730  0.58900  Biso   1.000  N
  N63      1.0000 0.69950  0.74510  0.23030  Biso   1.000  N
  N64      1.0000 0.76240  0.82270  0.43850  Biso   1.000  N
  N65      1.0000 0.85210  0.78990  0.52870  Biso   1.000  N
  N66      1.0000 0.84730  0.73310  0.44180  Biso   1.000  N
  N67      1.0000 0.58630  0.65670  0.09420  Biso   1.000  N
  N68      1.0000 0.22490  0.52860  0.72970  Biso   1.000  N
  N69      1.0000 0.22020  0.31300  0.07880  Biso   1.000  N
  N70      1.0000 0.37440  0.48730  0.02820  Biso   1.000  N
  N71      1.0000 0.37730  0.53670  0.94270  Biso   1.000  N
  N72      1.0000 0.28890  0.45010  0.93650  Biso   1.000  N
  Ag13     1.0000 0.84427  0.54291  0.86725  Biso   1.000  Ag
  Ag14     1.0000 0.82221  0.24492  0.36674  Biso   1.000  Ag
  C217     1.0000 0.09780  0.02950  0.49940  Biso   1.000  C
  C218     1.0000 0.62370  0.24410  0.00120  Biso   1.000  C
  C219     1.0000 0.27720  0.86160  0.50840  Biso   1.000  C
  H145     1.0000 0.29790  0.86500  0.54850  Biso   1.000  H
  C220     1.0000 0.55960  0.19860  0.96840  Biso   1.000  C
  C221     1.0000 0.18180  0.94750  0.50550  Biso   1.000  C
  C222     1.0000 0.00380  0.11530  0.49510  Biso   1.000  C
  H146     1.0000 0.02370  0.11690  0.53530  Biso   1.000  H
  C223     1.0000 0.79740  0.41640  0.00390  Biso   1.000  C
  H147     1.0000 0.81940  0.41250  0.04400  Biso   1.000  H
  C224     1.0000 0.53290  0.18900  0.91010  Biso   1.000  C
  H148     1.0000 0.55450  0.21020  0.88880  Biso   1.000  H
  C225     1.0000 0.71000  0.27380  0.08640  Biso   1.000  C
  C226     1.0000 0.94410  0.15580  0.46360  Biso   1.000  C
  H149     1.0000 0.92410  0.18380  0.48370  Biso   1.000  H
  C227     1.0000 0.22010  0.84700  0.39120  Biso   1.000  C
  H150     1.0000 0.20040  0.84190  0.35110  Biso   1.000  H
  C228     1.0000 0.18010  0.99770  0.58670  Biso   1.000  C
  C229     1.0000 0.17890  0.04410  0.67980  Biso   1.000  C
  H151     1.0000 0.13490  0.06190  0.65960  Biso   1.000  H
  C230     1.0000 0.74310  0.26360  0.15020  Biso   1.000  C
  C231     1.0000 0.03330  0.07250  0.46550  Biso   1.000  C
  C232     1.0000 0.73560  0.43520  0.88780  Biso   1.000  C
  H152     1.0000 0.71430  0.44150  0.84780  Biso   1.000  H
  C233     1.0000 0.73550  0.37910  0.97330  Biso   1.000  C
  C234     1.0000 0.52560  0.16490  0.99800  Biso   1.000  C
  H153     1.0000 0.54290  0.16920  0.03810  Biso   1.000  H
  C235     1.0000 0.21470  0.89870  0.47660  Biso   1.000  C
  C236     1.0000 0.70390  0.39050  0.91400  Biso   1.000  C
  H154     1.0000 0.66180  0.36820  0.89230  Biso   1.000  H
  C237     1.0000 0.21230  0.00820  0.65100  Biso   1.000  C
  C238     1.0000 0.18600  0.88970  0.41720  Biso   1.000  C
  H155     1.0000 0.14420  0.91220  0.39470  Biso   1.000  H
  C239     1.0000 0.70500  0.32770  0.00360  Biso   1.000  C
  C240     1.0000 0.47330  0.14720  0.88280  Biso   1.000  C
  H156     1.0000 0.45590  0.13970  0.84300  Biso   1.000  H
  C241     1.0000 0.46700  0.12560  0.96790  Biso   1.000  C
  H157     1.0000 0.44480  0.10320  0.98840  Biso   1.000  H
  C242     1.0000 0.82530  0.45900  0.97340  Biso   1.000  C
  H158     1.0000 0.86760  0.48160  0.99390  Biso   1.000  H
  C243     1.0000 0.30740  0.81930  0.47830  Biso   1.000  C
  H159     1.0000 0.34870  0.79460  0.49930  Biso   1.000  H
  C244     1.0000 0.00200  0.07200  0.40570  Biso   1.000  C
  H160     1.0000 0.01970  0.04230  0.38460  Biso   1.000  H
  C245     1.0000 0.30680  0.99500  0.74160  Biso   1.000  C
  H161     1.0000 0.35110  0.97840  0.76260  Biso   1.000  H
  C246     1.0000 0.71450  0.21200  0.17670  Biso   1.000  C
  H162     1.0000 0.67580  0.18280  0.15500  Biso   1.000  H
  C247     1.0000 0.94410  0.11630  0.37810  Biso   1.000  C
  H163     1.0000 0.92480  0.11830  0.33790  Biso   1.000  H
  C248     1.0000 0.21140  0.05340  0.73900  Biso   1.000  C
  H164     1.0000 0.18850  0.07780  0.75810  Biso   1.000  H
  C249     1.0000 0.27780  0.98320  0.68250  Biso   1.000  C
  H165     1.0000 0.30180  0.95910  0.66430  Biso   1.000  H
  C250     1.0000 0.74550  0.20580  0.23600  Biso   1.000  C
  H166     1.0000 0.72650  0.17130  0.25360  Biso   1.000  H
  C251     1.0000 0.82810  0.29150  0.24320  Biso   1.000  C
  H167     1.0000 0.86730  0.31920  0.26590  Biso   1.000  H
  C252     1.0000 0.80210  0.30090  0.18400  Biso   1.000  C
  H168     1.0000 0.82440  0.33220  0.16750  Biso   1.000  H
  N73      1.0000 0.79540  0.46980  0.91650  Biso   1.000  N
  N74      1.0000 0.43940  0.11730  0.91100  Biso   1.000  N
  N75      1.0000 0.80050  0.24510  0.26970  Biso   1.000  N
  N76      1.0000 0.73760  0.32270  0.06150  Biso   1.000  N
  N77      1.0000 0.64790  0.28990  0.97130  Biso   1.000  N
  N78      1.0000 0.65270  0.23310  0.05820  Biso   1.000  N
  N79      1.0000 0.91370  0.15670  0.40580  Biso   1.000  N
  N80      1.0000 0.27510  0.02860  0.77030  Biso   1.000  N
  N81      1.0000 0.27980  0.81300  0.42120  Biso   1.000  N
  N82      1.0000 0.12560  0.98730  0.47180  Biso   1.000  N
  N83      1.0000 0.12270  0.03670  0.55730  Biso   1.000  N
  N84      1.0000 0.21110  0.95010  0.56350  Biso   1.000  N
  Ag15     1.0000 0.34427  0.04291  0.86725  Biso   1.000  Ag
  Ag16     1.0000 0.32221  0.74492  0.36674  Biso   1.000  Ag
  C253     1.0000 0.59780  0.52950  0.49940  Biso   1.000  C
  C254     1.0000 0.12370  0.74410  0.00120  Biso   1.000  C
  C255     1.0000 0.77720  0.36160  0.50840  Biso   1.000  C
  H169     1.0000 0.79790  0.36500  0.54850  Biso   1.000  H
  C256     1.0000 0.05960  0.69860  0.96840  Biso   1.000  C
  C257     1.0000 0.68180  0.44750  0.50550  Biso   1.000  C
  C258     1.0000 0.50380  0.61530  0.49510  Biso   1.000  C
  H170     1.0000 0.52370  0.61690  0.53530  Biso   1.000  H
  C259     1.0000 0.29740  0.91640  0.00390  Biso   1.000  C
  H171     1.0000 0.31940  0.91250  0.04400  Biso   1.000  H
  C260     1.0000 0.03290  0.68900  0.91010  Biso   1.000  C
  H172     1.0000 0.05450  0.71020  0.88880  Biso   1.000  H
  C261     1.0000 0.21000  0.77380  0.08640  Biso   1.000  C
  C262     1.0000 0.44410  0.65580  0.46360  Biso   1.000  C
  H173     1.0000 0.42410  0.68380  0.48370  Biso   1.000  H
  C263     1.0000 0.72010  0.34700  0.39120  Biso   1.000  C
  H174     1.0000 0.70040  0.34190  0.35110  Biso   1.000  H
  C264     1.0000 0.68010  0.49770  0.58670  Biso   1.000  C
  C265     1.0000 0.67890  0.54410  0.67980  Biso   1.000  C
  H175     1.0000 0.63490  0.56190  0.65960  Biso   1.000  H
  C266     1.0000 0.24310  0.76360  0.15020  Biso   1.000  C
  C267     1.0000 0.53330  0.57250  0.46550  Biso   1.000  C
  C268     1.0000 0.23560  0.93520  0.88780  Biso   1.000  C
  H176     1.0000 0.21430  0.94150  0.84780  Biso   1.000  H
  C269     1.0000 0.23550  0.87910  0.97330  Biso   1.000  C
  C270     1.0000 0.02560  0.66490  0.99800  Biso   1.000  C
  H177     1.0000 0.04290  0.66920  0.03810  Biso   1.000  H
  C271     1.0000 0.71470  0.39870  0.47660  Biso   1.000  C
  C272     1.0000 0.20390  0.89050  0.91400  Biso   1.000  C
  H178     1.0000 0.16180  0.86820  0.89230  Biso   1.000  H
  C273     1.0000 0.71230  0.50820  0.65100  Biso   1.000  C
  C274     1.0000 0.68600  0.38970  0.41720  Biso   1.000  C
  H179     1.0000 0.64420  0.41220  0.39470  Biso   1.000  H
  C275     1.0000 0.20500  0.82770  0.00360  Biso   1.000  C
  C276     1.0000 0.97330  0.64720  0.88280  Biso   1.000  C
  H180     1.0000 0.95590  0.63970  0.84300  Biso   1.000  H
  C277     1.0000 0.96700  0.62560  0.96790  Biso   1.000  C
  H181     1.0000 0.94480  0.60320  0.98840  Biso   1.000  H
  C278     1.0000 0.32530  0.95900  0.97340  Biso   1.000  C
  H182     1.0000 0.36760  0.98160  0.99390  Biso   1.000  H
  C279     1.0000 0.80740  0.31930  0.47830  Biso   1.000  C
  H183     1.0000 0.84870  0.29460  0.49930  Biso   1.000  H
  C280     1.0000 0.50200  0.57200  0.40570  Biso   1.000  C
  H184     1.0000 0.51970  0.54230  0.38460  Biso   1.000  H
  C281     1.0000 0.80680  0.49500  0.74160  Biso   1.000  C
  H185     1.0000 0.85110  0.47840  0.76260  Biso   1.000  H
  C282     1.0000 0.21450  0.71200  0.17670  Biso   1.000  C
  H186     1.0000 0.17580  0.68280  0.15500  Biso   1.000  H
  C283     1.0000 0.44410  0.61630  0.37810  Biso   1.000  C
  H187     1.0000 0.42480  0.61830  0.33790  Biso   1.000  H
  C284     1.0000 0.71140  0.55340  0.73900  Biso   1.000  C
  H188     1.0000 0.68850  0.57780  0.75810  Biso   1.000  H
  C285     1.0000 0.77780  0.48320  0.68250  Biso   1.000  C
  H189     1.0000 0.80180  0.45910  0.66430  Biso   1.000  H
  C286     1.0000 0.24550  0.70580  0.23600  Biso   1.000  C
  H190     1.0000 0.22650  0.67130  0.25360  Biso   1.000  H
  C287     1.0000 0.32810  0.79150  0.24320  Biso   1.000  C
  H191     1.0000 0.36730  0.81920  0.26590  Biso   1.000  H
  C288     1.0000 0.30210  0.80090  0.18400  Biso   1.000  C
  H192     1.0000 0.32440  0.83220  0.16750  Biso   1.000  H
  N85      1.0000 0.29540  0.96980  0.91650  Biso   1.000  N
  N86      1.0000 0.93940  0.61730  0.91100  Biso   1.000  N
  N87      1.0000 0.30050  0.74510  0.26970  Biso   1.000  N
  N88      1.0000 0.23760  0.82270  0.06150  Biso   1.000  N
  N89      1.0000 0.14790  0.78990  0.97130  Biso   1.000  N
  N90      1.0000 0.15270  0.73310  0.05820  Biso   1.000  N
  N91      1.0000 0.41370  0.65670  0.40580  Biso   1.000  N
  N92      1.0000 0.77510  0.52860  0.77030  Biso   1.000  N
  N93      1.0000 0.77980  0.31300  0.42120  Biso   1.000  N
  N94      1.0000 0.62560  0.48730  0.47180  Biso   1.000  N
  N95      1.0000 0.62270  0.53670  0.55730  Biso   1.000  N
  N96      1.0000 0.71110  0.45010  0.56350  Biso   1.000  N
