data_image0
_cell_length_a       22.0101
_cell_length_b       16.5266
_cell_length_c       25.5684
_cell_angle_alpha    90
_cell_angle_beta     115.234
_cell_angle_gamma    90

_symmetry_space_group_name_H-M    "P 1"
_symmetry_int_tables_number       1

loop_
  _symmetry_equiv_pos_as_xyz
  'x, y, z'

loop_
  _atom_site_label
  _atom_site_occupancy
  _atom_site_fract_x
  _atom_site_fract_y
  _atom_site_fract_z
  _atom_site_thermal_displace_type
  _atom_site_B_iso_or_equiv
  _atom_site_type_symbol
  Ag1      1.0000 0.34427  0.95731  0.36747  Biso   1.000  Ag
  Ag2      1.0000 0.32249  0.25433  0.86691  Biso   1.000  Ag
  C1       1.0000 0.59770  0.47100  0.99990  Biso   1.000  C
  C2       1.0000 0.77730  0.63810  0.00870  Biso   1.000  C
  H1       1.0000 0.79800  0.63480  0.04890  Biso   1.000  H
  C3       1.0000 0.29780  0.08390  0.50460  Biso   1.000  C
  H2       1.0000 0.31990  0.08780  0.54460  Biso   1.000  H
  C4       1.0000 0.12350  0.25670  0.50100  Biso   1.000  C
  C5       1.0000 0.05970  0.30160  0.46880  Biso   1.000  C
  C6       1.0000 0.50320  0.38430  0.99530  Biso   1.000  C
  H3       1.0000 0.52260  0.38330  0.03550  Biso   1.000  H
  C7       1.0000 0.44410  0.34420  0.96390  Biso   1.000  C
  H4       1.0000 0.42410  0.31640  0.98410  Biso   1.000  H
  C8       1.0000 0.20970  0.22620  0.58670  Biso   1.000  C
  C9       1.0000 0.03270  0.31130  0.41010  Biso   1.000  C
  H5       1.0000 0.05420  0.29010  0.38880  Biso   1.000  H
  C10      1.0000 0.68200  0.55260  0.00600  Biso   1.000  C
  C11      1.0000 0.53340  0.42620  0.96590  Biso   1.000  C
  C12      1.0000 0.23550  0.06430  0.38820  Biso   1.000  C
  H6       1.0000 0.21380  0.05680  0.34840  Biso   1.000  H
  C13      1.0000 0.72030  0.65290  0.89160  Biso   1.000  C
  H7       1.0000 0.70040  0.65780  0.85150  Biso   1.000  H
  C14      1.0000 0.24310  0.23710  0.65050  Biso   1.000  C
  C15      1.0000 0.67900  0.45630  0.18040  Biso   1.000  C
  H8       1.0000 0.63480  0.43910  0.16020  Biso   1.000  H
  C16      1.0000 0.68020  0.50190  0.08700  Biso   1.000  C
  C17      1.0000 0.71490  0.60120  0.97680  Biso   1.000  C
  C18      1.0000 0.23520  0.12110  0.47360  Biso   1.000  C
  C19      1.0000 0.02590  0.33510  0.49880  Biso   1.000  C
  H9       1.0000 0.04320  0.33070  0.53880  Biso   1.000  H
  C20      1.0000 0.20380  0.11000  0.41420  Biso   1.000  C
  H10      1.0000 0.16210  0.13310  0.39230  Biso   1.000  H
  C21      1.0000 0.68640  0.61000  0.91790  Biso   1.000  C
  H11      1.0000 0.64450  0.58750  0.89560  Biso   1.000  H
  C22      1.0000 0.20500  0.17200  0.50410  Biso   1.000  C
  C23      1.0000 0.71240  0.49190  0.15120  Biso   1.000  C
  C24      1.0000 0.97330  0.35300  0.38340  Biso   1.000  C
  H12      1.0000 0.95580  0.36020  0.34360  Biso   1.000  H
  C25      1.0000 0.32540  0.04130  0.47340  Biso   1.000  C
  H13      1.0000 0.36790  0.01900  0.49360  Biso   1.000  H
  C26      1.0000 0.80760  0.68020  0.97850  Biso   1.000  C
  H14      1.0000 0.84910  0.70450  0.99950  Biso   1.000  H
  C27      1.0000 0.96690  0.37480  0.46810  Biso   1.000  C
  H15      1.0000 0.94450  0.39700  0.48840  Biso   1.000  H
  C28      1.0000 0.80680  0.50520  0.24190  Biso   1.000  C
  H16      1.0000 0.85080  0.52240  0.26280  Biso   1.000  H
  C29      1.0000 0.50180  0.42790  0.90630  Biso   1.000  C
  H17      1.0000 0.51920  0.45840  0.88530  Biso   1.000  H
  C30      1.0000 0.44390  0.38330  0.87850  Biso   1.000  C
  H18      1.0000 0.42470  0.38110  0.83840  Biso   1.000  H
  C31      1.0000 0.21530  0.28840  0.67740  Biso   1.000  C
  H19      1.0000 0.17670  0.31780  0.65570  Biso   1.000  H
  C32      1.0000 0.24550  0.29490  0.73620  Biso   1.000  C
  H20      1.0000 0.22660  0.32990  0.75370  Biso   1.000  H
  C33      1.0000 0.71160  0.44660  0.23960  Biso   1.000  C
  H21      1.0000 0.68860  0.42230  0.25870  Biso   1.000  H
  C34      1.0000 0.77810  0.51670  0.18260  Biso   1.000  C
  H22      1.0000 0.80240  0.54030  0.16440  Biso   1.000  H
  C35      1.0000 0.32850  0.20810  0.74360  Biso   1.000  C
  H23      1.0000 0.36800  0.18090  0.76630  Biso   1.000  H
  C36      1.0000 0.30230  0.19850  0.68430  Biso   1.000  C
  H24      1.0000 0.32410  0.16670  0.66760  Biso   1.000  H
  N1       1.0000 0.29540  0.03020  0.41680  Biso   1.000  N
  N2       1.0000 0.93940  0.38360  0.41110  Biso   1.000  N
  N3       1.0000 0.30070  0.25400  0.77010  Biso   1.000  N
  N4       1.0000 0.23790  0.17720  0.56210  Biso   1.000  N
  N5       1.0000 0.14820  0.21050  0.47160  Biso   1.000  N
  N6       1.0000 0.15270  0.26690  0.55830  Biso   1.000  N
  N7       1.0000 0.41380  0.34270  0.90650  Biso   1.000  N
  N8       1.0000 0.77570  0.47120  0.27090  Biso   1.000  N
  N9       1.0000 0.77980  0.68690  0.92130  Biso   1.000  N
  N10      1.0000 0.62300  0.46280  0.05790  Biso   1.000  N
  N11      1.0000 0.71130  0.54960  0.06390  Biso   1.000  N
  N12      1.0000 0.62610  0.51220  0.97240  Biso   1.000  N
  Ag3      1.0000 0.84427  0.45731  0.36747  Biso   1.000  Ag
  Ag4      1.0000 0.82249  0.75433  0.86691  Biso   1.000  Ag
  C37      1.0000 0.09770  0.97100  0.99990  Biso   1.000  C
  C38      1.0000 0.27730  0.13810  0.00870  Biso   1.000  C
  H25      1.0000 0.29800  0.13480  0.04890  Biso   1.000  H
  C39      1.0000 0.79780  0.58390  0.50460  Biso   1.000  C
  H26      1.0000 0.81990  0.58780  0.54460  Biso   1.000  H
  C40      1.0000 0.62350  0.75670  0.50100  Biso   1.000  C
  C41      1.0000 0.55970  0.80160  0.46880  Biso   1.000  C
  C42      1.0000 0.00320  0.88430  0.99530  Biso   1.000  C
  H27      1.0000 0.02260  0.88330  0.03550  Biso   1.000  H
  C43      1.0000 0.94410  0.84420  0.96390  Biso   1.000  C
  H28      1.0000 0.92410  0.81640  0.98410  Biso   1.000  H
  C44      1.0000 0.70970  0.72620  0.58670  Biso   1.000  C
  C45      1.0000 0.53270  0.81130  0.41010  Biso   1.000  C
  H29      1.0000 0.55420  0.79010  0.38880  Biso   1.000  H
  C46      1.0000 0.18200  0.05260  0.00600  Biso   1.000  C
  C47      1.0000 0.03340  0.92620  0.96590  Biso   1.000  C
  C48      1.0000 0.73550  0.56430  0.38820  Biso   1.000  C
  H30      1.0000 0.71380  0.55680  0.34840  Biso   1.000  H
  C49      1.0000 0.22030  0.15290  0.89160  Biso   1.000  C
  H31      1.0000 0.20040  0.15780  0.85150  Biso   1.000  H
  C50      1.0000 0.74310  0.73710  0.65050  Biso   1.000  C
  C51      1.0000 0.17900  0.95630  0.18040  Biso   1.000  C
  H32      1.0000 0.13480  0.93910  0.16020  Biso   1.000  H
  C52      1.0000 0.18020  0.00190  0.08700  Biso   1.000  C
  C53      1.0000 0.21490  0.10120  0.97680  Biso   1.000  C
  C54      1.0000 0.73520  0.62110  0.47360  Biso   1.000  C
  C55      1.0000 0.52590  0.83510  0.49880  Biso   1.000  C
  H33      1.0000 0.54320  0.83070  0.53880  Biso   1.000  H
  C56      1.0000 0.70380  0.61000  0.41420  Biso   1.000  C
  H34      1.0000 0.66210  0.63310  0.39230  Biso   1.000  H
  C57      1.0000 0.18640  0.11000  0.91790  Biso   1.000  C
  H35      1.0000 0.14450  0.08750  0.89560  Biso   1.000  H
  C58      1.0000 0.70500  0.67200  0.50410  Biso   1.000  C
  C59      1.0000 0.21240  0.99190  0.15120  Biso   1.000  C
  C60      1.0000 0.47330  0.85300  0.38340  Biso   1.000  C
  H36      1.0000 0.45580  0.86020  0.34360  Biso   1.000  H
  C61      1.0000 0.82540  0.54130  0.47340  Biso   1.000  C
  H37      1.0000 0.86790  0.51900  0.49360  Biso   1.000  H
  C62      1.0000 0.30760  0.18020  0.97850  Biso   1.000  C
  H38      1.0000 0.34910  0.20450  0.99950  Biso   1.000  H
  C63      1.0000 0.46690  0.87480  0.46810  Biso   1.000  C
  H39      1.0000 0.44450  0.89700  0.48840  Biso   1.000  H
  C64      1.0000 0.30680  0.00520  0.24190  Biso   1.000  C
  H40      1.0000 0.35080  0.02240  0.26280  Biso   1.000  H
  C65      1.0000 0.00180  0.92790  0.90630  Biso   1.000  C
  H41      1.0000 0.01920  0.95840  0.88530  Biso   1.000  H
  C66      1.0000 0.94390  0.88330  0.87850  Biso   1.000  C
  H42      1.0000 0.92470  0.88110  0.83840  Biso   1.000  H
  C67      1.0000 0.71530  0.78840  0.67740  Biso   1.000  C
  H43      1.0000 0.67670  0.81780  0.65570  Biso   1.000  H
  C68      1.0000 0.74550  0.79490  0.73620  Biso   1.000  C
  H44      1.0000 0.72660  0.82990  0.75370  Biso   1.000  H
  C69      1.0000 0.21160  0.94660  0.23960  Biso   1.000  C
  H45      1.0000 0.18860  0.92230  0.25870  Biso   1.000  H
  C70      1.0000 0.27810  0.01670  0.18260  Biso   1.000  C
  H46      1.0000 0.30240  0.04030  0.16440  Biso   1.000  H
  C71      1.0000 0.82850  0.70810  0.74360  Biso   1.000  C
  H47      1.0000 0.86800  0.68090  0.76630  Biso   1.000  H
  C72      1.0000 0.80230  0.69850  0.68430  Biso   1.000  C
  H48      1.0000 0.82410  0.66670  0.66760  Biso   1.000  H
  N13      1.0000 0.79540  0.53020  0.41680  Biso   1.000  N
  N14      1.0000 0.43940  0.88360  0.41110  Biso   1.000  N
  N15      1.0000 0.80070  0.75400  0.77010  Biso   1.000  N
  N16      1.0000 0.73790  0.67720  0.56210  Biso   1.000  N
  N17      1.0000 0.64820  0.71050  0.47160  Biso   1.000  N
  N18      1.0000 0.65270  0.76690  0.55830  Biso   1.000  N
  N19      1.0000 0.91380  0.84270  0.90650  Biso   1.000  N
  N20      1.0000 0.27570  0.97120  0.27090  Biso   1.000  N
  N21      1.0000 0.27980  0.18690  0.92130  Biso   1.000  N
  N22      1.0000 0.12300  0.96280  0.05790  Biso   1.000  N
  N23      1.0000 0.21130  0.04960  0.06390  Biso   1.000  N
  N24      1.0000 0.12610  0.01220  0.97240  Biso   1.000  N
  Ag5      1.0000 0.65573  0.95731  0.13253  Biso   1.000  Ag
  Ag6      1.0000 0.67751  0.25433  0.63309  Biso   1.000  Ag
  C73      1.0000 0.40230  0.47100  0.50010  Biso   1.000  C
  C74      1.0000 0.22270  0.63810  0.49130  Biso   1.000  C
  H49      1.0000 0.20200  0.63480  0.45110  Biso   1.000  H
  C75      1.0000 0.70220  0.08390  0.99540  Biso   1.000  C
  H50      1.0000 0.68010  0.08780  0.95540  Biso   1.000  H
  C76      1.0000 0.87650  0.25670  0.99900  Biso   1.000  C
  C77      1.0000 0.94030  0.30160  0.03120  Biso   1.000  C
  C78      1.0000 0.49680  0.38430  0.50470  Biso   1.000  C
  H51      1.0000 0.47740  0.38330  0.46450  Biso   1.000  H
  C79      1.0000 0.55590  0.34420  0.53610  Biso   1.000  C
  H52      1.0000 0.57590  0.31640  0.51590  Biso   1.000  H
  C80      1.0000 0.79030  0.22620  0.91330  Biso   1.000  C
  C81      1.0000 0.96730  0.31130  0.08990  Biso   1.000  C
  H53      1.0000 0.94580  0.29010  0.11120  Biso   1.000  H
  C82      1.0000 0.31800  0.55260  0.49400  Biso   1.000  C
  C83      1.0000 0.46660  0.42620  0.53410  Biso   1.000  C
  C84      1.0000 0.76450  0.06430  0.11180  Biso   1.000  C
  H54      1.0000 0.78620  0.05680  0.15160  Biso   1.000  H
  C85      1.0000 0.27970  0.65290  0.60840  Biso   1.000  C
  H55      1.0000 0.29960  0.65780  0.64850  Biso   1.000  H
  C86      1.0000 0.75690  0.23710  0.84950  Biso   1.000  C
  C87      1.0000 0.32100  0.45630  0.31960  Biso   1.000  C
  H56      1.0000 0.36520  0.43910  0.33980  Biso   1.000  H
  C88      1.0000 0.31980  0.50190  0.41300  Biso   1.000  C
  C89      1.0000 0.28510  0.60120  0.52320  Biso   1.000  C
  C90      1.0000 0.76480  0.12110  0.02640  Biso   1.000  C
  C91      1.0000 0.97410  0.33510  0.00120  Biso   1.000  C
  H57      1.0000 0.95680  0.33070  0.96120  Biso   1.000  H
  C92      1.0000 0.79620  0.11000  0.08580  Biso   1.000  C
  H58      1.0000 0.83790  0.13310  0.10770  Biso   1.000  H
  C93      1.0000 0.31360  0.61000  0.58210  Biso   1.000  C
  H59      1.0000 0.35550  0.58750  0.60440  Biso   1.000  H
  C94      1.0000 0.79500  0.17200  0.99590  Biso   1.000  C
  C95      1.0000 0.28760  0.49190  0.34880  Biso   1.000  C
  C96      1.0000 0.02670  0.35300  0.11660  Biso   1.000  C
  H60      1.0000 0.04420  0.36020  0.15640  Biso   1.000  H
  C97      1.0000 0.67460  0.04130  0.02660  Biso   1.000  C
  H61      1.0000 0.63210  0.01900  0.00640  Biso   1.000  H
  C98      1.0000 0.19240  0.68020  0.52150  Biso   1.000  C
  H62      1.0000 0.15090  0.70450  0.50050  Biso   1.000  H
  C99      1.0000 0.03310  0.37480  0.03190  Biso   1.000  C
  H63      1.0000 0.05550  0.39700  0.01160  Biso   1.000  H
  C100     1.0000 0.19320  0.50520  0.25810  Biso   1.000  C
  H64      1.0000 0.14920  0.52240  0.23720  Biso   1.000  H
  C101     1.0000 0.49820  0.42790  0.59370  Biso   1.000  C
  H65      1.0000 0.48080  0.45840  0.61470  Biso   1.000  H
  C102     1.0000 0.55610  0.38330  0.62150  Biso   1.000  C
  H66      1.0000 0.57530  0.38110  0.66160  Biso   1.000  H
  C103     1.0000 0.78470  0.28840  0.82260  Biso   1.000  C
  H67      1.0000 0.82330  0.31780  0.84430  Biso   1.000  H
  C104     1.0000 0.75450  0.29490  0.76380  Biso   1.000  C
  H68      1.0000 0.77340  0.32990  0.74630  Biso   1.000  H
  C105     1.0000 0.28840  0.44660  0.26040  Biso   1.000  C
  H69      1.0000 0.31140  0.42230  0.24130  Biso   1.000  H
  C106     1.0000 0.22190  0.51670  0.31740  Biso   1.000  C
  H70      1.0000 0.19760  0.54030  0.33560  Biso   1.000  H
  C107     1.0000 0.67150  0.20810  0.75640  Biso   1.000  C
  H71      1.0000 0.63200  0.18090  0.73370  Biso   1.000  H
  C108     1.0000 0.69770  0.19850  0.81570  Biso   1.000  C
  H72      1.0000 0.67590  0.16670  0.83240  Biso   1.000  H
  N25      1.0000 0.70460  0.03020  0.08320  Biso   1.000  N
  N26      1.0000 0.06060  0.38360  0.08890  Biso   1.000  N
  N27      1.0000 0.69930  0.25400  0.72990  Biso   1.000  N
  N28      1.0000 0.76210  0.17720  0.93790  Biso   1.000  N
  N29      1.0000 0.85180  0.21050  0.02840  Biso   1.000  N
  N30      1.0000 0.84730  0.26690  0.94170  Biso   1.000  N
  N31      1.0000 0.58620  0.34270  0.59350  Biso   1.000  N
  N32      1.0000 0.22430  0.47120  0.22910  Biso   1.000  N
  N33      1.0000 0.22020  0.68690  0.57870  Biso   1.000  N
  N34      1.0000 0.37700  0.46280  0.44210  Biso   1.000  N
  N35      1.0000 0.28870  0.54960  0.43610  Biso   1.000  N
  N36      1.0000 0.37390  0.51220  0.52760  Biso   1.000  N
  Ag7      1.0000 0.15573  0.45731  0.13253  Biso   1.000  Ag
  Ag8      1.0000 0.17751  0.75433  0.63309  Biso   1.000  Ag
  C109     1.0000 0.90230  0.97100  0.50010  Biso   1.000  C
  C110     1.0000 0.72270  0.13810  0.49130  Biso   1.000  C
  H73      1.0000 0.70200  0.13480  0.45110  Biso   1.000  H
  C111     1.0000 0.20220  0.58390  0.99540  Biso   1.000  C
  H74      1.0000 0.18010  0.58780  0.95540  Biso   1.000  H
  C112     1.0000 0.37650  0.75670  0.99900  Biso   1.000  C
  C113     1.0000 0.44030  0.80160  0.03120  Biso   1.000  C
  C114     1.0000 0.99680  0.88430  0.50470  Biso   1.000  C
  H75      1.0000 0.97740  0.88330  0.46450  Biso   1.000  H
  C115     1.0000 0.05590  0.84420  0.53610  Biso   1.000  C
  H76      1.0000 0.07590  0.81640  0.51590  Biso   1.000  H
  C116     1.0000 0.29030  0.72620  0.91330  Biso   1.000  C
  C117     1.0000 0.46730  0.81130  0.08990  Biso   1.000  C
  H77      1.0000 0.44580  0.79010  0.11120  Biso   1.000  H
  C118     1.0000 0.81800  0.05260  0.49400  Biso   1.000  C
  C119     1.0000 0.96660  0.92620  0.53410  Biso   1.000  C
  C120     1.0000 0.26450  0.56430  0.11180  Biso   1.000  C
  H78      1.0000 0.28620  0.55680  0.15160  Biso   1.000  H
  C121     1.0000 0.77970  0.15290  0.60840  Biso   1.000  C
  H79      1.0000 0.79960  0.15780  0.64850  Biso   1.000  H
  C122     1.0000 0.25690  0.73710  0.84950  Biso   1.000  C
  C123     1.0000 0.82100  0.95630  0.31960  Biso   1.000  C
  H80      1.0000 0.86520  0.93910  0.33980  Biso   1.000  H
  C124     1.0000 0.81980  0.00190  0.41300  Biso   1.000  C
  C125     1.0000 0.78510  0.10120  0.52320  Biso   1.000  C
  C126     1.0000 0.26480  0.62110  0.02640  Biso   1.000  C
  C127     1.0000 0.47410  0.83510  0.00120  Biso   1.000  C
  H81      1.0000 0.45680  0.83070  0.96120  Biso   1.000  H
  C128     1.0000 0.29620  0.61000  0.08580  Biso   1.000  C
  H82      1.0000 0.33790  0.63310  0.10770  Biso   1.000  H
  C129     1.0000 0.81360  0.11000  0.58210  Biso   1.000  C
  H83      1.0000 0.85550  0.08750  0.60440  Biso   1.000  H
  C130     1.0000 0.29500  0.67200  0.99590  Biso   1.000  C
  C131     1.0000 0.78760  0.99190  0.34880  Biso   1.000  C
  C132     1.0000 0.52670  0.85300  0.11660  Biso   1.000  C
  H84      1.0000 0.54420  0.86020  0.15640  Biso   1.000  H
  C133     1.0000 0.17460  0.54130  0.02660  Biso   1.000  C
  H85      1.0000 0.13210  0.51900  0.00640  Biso   1.000  H
  C134     1.0000 0.69240  0.18020  0.52150  Biso   1.000  C
  H86      1.0000 0.65090  0.20450  0.50050  Biso   1.000  H
  C135     1.0000 0.53310  0.87480  0.03190  Biso   1.000  C
  H87      1.0000 0.55550  0.89700  0.01160  Biso   1.000  H
  C136     1.0000 0.69320  0.00520  0.25810  Biso   1.000  C
  H88      1.0000 0.64920  0.02240  0.23720  Biso   1.000  H
  C137     1.0000 0.99820  0.92790  0.59370  Biso   1.000  C
  H89      1.0000 0.98080  0.95840  0.61470  Biso   1.000  H
  C138     1.0000 0.05610  0.88330  0.62150  Biso   1.000  C
  H90      1.0000 0.07530  0.88110  0.66160  Biso   1.000  H
  C139     1.0000 0.28470  0.78840  0.82260  Biso   1.000  C
  H91      1.0000 0.32330  0.81780  0.84430  Biso   1.000  H
  C140     1.0000 0.25450  0.79490  0.76380  Biso   1.000  C
  H92      1.0000 0.27340  0.82990  0.74630  Biso   1.000  H
  C141     1.0000 0.78840  0.94660  0.26040  Biso   1.000  C
  H93      1.0000 0.81140  0.92230  0.24130  Biso   1.000  H
  C142     1.0000 0.72190  0.01670  0.31740  Biso   1.000  C
  H94      1.0000 0.69760  0.04030  0.33560  Biso   1.000  H
  C143     1.0000 0.17150  0.70810  0.75640  Biso   1.000  C
  H95      1.0000 0.13200  0.68090  0.73370  Biso   1.000  H
  C144     1.0000 0.19770  0.69850  0.81570  Biso   1.000  C
  H96      1.0000 0.17590  0.66670  0.83240  Biso   1.000  H
  N37      1.0000 0.20460  0.53020  0.08320  Biso   1.000  N
  N38      1.0000 0.56060  0.88360  0.08890  Biso   1.000  N
  N39      1.0000 0.19930  0.75400  0.72990  Biso   1.000  N
  N40      1.0000 0.26210  0.67720  0.93790  Biso   1.000  N
  N41      1.0000 0.35180  0.71050  0.02840  Biso   1.000  N
  N42      1.0000 0.34730  0.76690  0.94170  Biso   1.000  N
  N43      1.0000 0.08620  0.84270  0.59350  Biso   1.000  N
  N44      1.0000 0.72430  0.97120  0.22910  Biso   1.000  N
  N45      1.0000 0.72020  0.18690  0.57870  Biso   1.000  N
  N46      1.0000 0.87700  0.96280  0.44210  Biso   1.000  N
  N47      1.0000 0.78870  0.04960  0.43610  Biso   1.000  N
  N48      1.0000 0.87390  0.01220  0.52760  Biso   1.000  N
  Ag9      1.0000 0.65573  0.04269  0.63253  Biso   1.000  Ag
  Ag10     1.0000 0.67751  0.74567  0.13309  Biso   1.000  Ag
  C145     1.0000 0.40230  0.52900  0.00010  Biso   1.000  C
  C146     1.0000 0.22270  0.36190  0.99130  Biso   1.000  C
  H97      1.0000 0.20200  0.36520  0.95110  Biso   1.000  H
  C147     1.0000 0.70220  0.91610  0.49540  Biso   1.000  C
  H98      1.0000 0.68010  0.91220  0.45540  Biso   1.000  H
  C148     1.0000 0.87650  0.74330  0.49900  Biso   1.000  C
  C149     1.0000 0.94030  0.69840  0.53120  Biso   1.000  C
  C150     1.0000 0.49680  0.61570  0.00470  Biso   1.000  C
  H99      1.0000 0.47740  0.61670  0.96450  Biso   1.000  H
  C151     1.0000 0.55590  0.65580  0.03610  Biso   1.000  C
  H100     1.0000 0.57590  0.68360  0.01590  Biso   1.000  H
  C152     1.0000 0.79030  0.77380  0.41330  Biso   1.000  C
  C153     1.0000 0.96730  0.68870  0.58990  Biso   1.000  C
  H101     1.0000 0.94580  0.70990  0.61120  Biso   1.000  H
  C154     1.0000 0.31800  0.44740  0.99400  Biso   1.000  C
  C155     1.0000 0.46660  0.57380  0.03410  Biso   1.000  C
  C156     1.0000 0.76450  0.93570  0.61180  Biso   1.000  C
  H102     1.0000 0.78620  0.94320  0.65160  Biso   1.000  H
  C157     1.0000 0.27970  0.34710  0.10840  Biso   1.000  C
  H103     1.0000 0.29960  0.34220  0.14850  Biso   1.000  H
  C158     1.0000 0.75690  0.76290  0.34950  Biso   1.000  C
  C159     1.0000 0.32100  0.54370  0.81960  Biso   1.000  C
  H104     1.0000 0.36520  0.56090  0.83980  Biso   1.000  H
  C160     1.0000 0.31980  0.49810  0.91300  Biso   1.000  C
  C161     1.0000 0.28510  0.39880  0.02320  Biso   1.000  C
  C162     1.0000 0.76480  0.87890  0.52640  Biso   1.000  C
  C163     1.0000 0.97410  0.66490  0.50120  Biso   1.000  C
  H105     1.0000 0.95680  0.66930  0.46120  Biso   1.000  H
  C164     1.0000 0.79620  0.89000  0.58580  Biso   1.000  C
  H106     1.0000 0.83790  0.86690  0.60770  Biso   1.000  H
  C165     1.0000 0.31360  0.39000  0.08210  Biso   1.000  C
  H107     1.0000 0.35550  0.41250  0.10440  Biso   1.000  H
  C166     1.0000 0.79500  0.82800  0.49590  Biso   1.000  C
  C167     1.0000 0.28760  0.50810  0.84880  Biso   1.000  C
  C168     1.0000 0.02670  0.64700  0.61660  Biso   1.000  C
  H108     1.0000 0.04420  0.63980  0.65640  Biso   1.000  H
  C169     1.0000 0.67460  0.95870  0.52660  Biso   1.000  C
  H109     1.0000 0.63210  0.98100  0.50640  Biso   1.000  H
  C170     1.0000 0.19240  0.31980  0.02150  Biso   1.000  C
  H110     1.0000 0.15090  0.29550  0.00050  Biso   1.000  H
  C171     1.0000 0.03310  0.62520  0.53190  Biso   1.000  C
  H111     1.0000 0.05550  0.60300  0.51160  Biso   1.000  H
  C172     1.0000 0.19320  0.49480  0.75810  Biso   1.000  C
  H112     1.0000 0.14920  0.47760  0.73720  Biso   1.000  H
  C173     1.0000 0.49820  0.57210  0.09370  Biso   1.000  C
  H113     1.0000 0.48080  0.54160  0.11470  Biso   1.000  H
  C174     1.0000 0.55610  0.61670  0.12150  Biso   1.000  C
  H114     1.0000 0.57530  0.61890  0.16160  Biso   1.000  H
  C175     1.0000 0.78470  0.71160  0.32260  Biso   1.000  C
  H115     1.0000 0.82330  0.68220  0.34430  Biso   1.000  H
  C176     1.0000 0.75450  0.70510  0.26380  Biso   1.000  C
  H116     1.0000 0.77340  0.67010  0.24630  Biso   1.000  H
  C177     1.0000 0.28840  0.55340  0.76040  Biso   1.000  C
  H117     1.0000 0.31140  0.57770  0.74130  Biso   1.000  H
  C178     1.0000 0.22190  0.48330  0.81740  Biso   1.000  C
  H118     1.0000 0.19760  0.45970  0.83560  Biso   1.000  H
  C179     1.0000 0.67150  0.79190  0.25640  Biso   1.000  C
  H119     1.0000 0.63200  0.81910  0.23370  Biso   1.000  H
  C180     1.0000 0.69770  0.80150  0.31570  Biso   1.000  C
  H120     1.0000 0.67590  0.83330  0.33240  Biso   1.000  H
  N49      1.0000 0.70460  0.96980  0.58320  Biso   1.000  N
  N50      1.0000 0.06060  0.61640  0.58890  Biso   1.000  N
  N51      1.0000 0.69930  0.74600  0.22990  Biso   1.000  N
  N52      1.0000 0.76210  0.82280  0.43790  Biso   1.000  N
  N53      1.0000 0.85180  0.78950  0.52840  Biso   1.000  N
  N54      1.0000 0.84730  0.73310  0.44170  Biso   1.000  N
  N55      1.0000 0.58620  0.65730  0.09350  Biso   1.000  N
  N56      1.0000 0.22430  0.52880  0.72910  Biso   1.000  N
  N57      1.0000 0.22020  0.31310  0.07870  Biso   1.000  N
  N58      1.0000 0.37700  0.53720  0.94210  Biso   1.000  N
  N59      1.0000 0.28870  0.45040  0.93610  Biso   1.000  N
  N60      1.0000 0.37390  0.48780  0.02760  Biso   1.000  N
  Ag11     1.0000 0.15573  0.54269  0.63253  Biso   1.000  Ag
  Ag12     1.0000 0.17751  0.24567  0.13309  Biso   1.000  Ag
  C181     1.0000 0.90230  0.02900  0.00010  Biso   1.000  C
  C182     1.0000 0.72270  0.86190  0.99130  Biso   1.000  C
  H121     1.0000 0.70200  0.86520  0.95110  Biso   1.000  H
  C183     1.0000 0.20220  0.41610  0.49540  Biso   1.000  C
  H122     1.0000 0.18010  0.41220  0.45540  Biso   1.000  H
  C184     1.0000 0.37650  0.24330  0.49900  Biso   1.000  C
  C185     1.0000 0.44030  0.19840  0.53120  Biso   1.000  C
  C186     1.0000 0.99680  0.11570  0.00470  Biso   1.000  C
  H123     1.0000 0.97740  0.11670  0.96450  Biso   1.000  H
  C187     1.0000 0.05590  0.15580  0.03610  Biso   1.000  C
  H124     1.0000 0.07590  0.18360  0.01590  Biso   1.000  H
  C188     1.0000 0.29030  0.27380  0.41330  Biso   1.000  C
  C189     1.0000 0.46730  0.18870  0.58990  Biso   1.000  C
  H125     1.0000 0.44580  0.20990  0.61120  Biso   1.000  H
  C190     1.0000 0.81800  0.94740  0.99400  Biso   1.000  C
  C191     1.0000 0.96660  0.07380  0.03410  Biso   1.000  C
  C192     1.0000 0.26450  0.43570  0.61180  Biso   1.000  C
  H126     1.0000 0.28620  0.44320  0.65160  Biso   1.000  H
  C193     1.0000 0.77970  0.84710  0.10840  Biso   1.000  C
  H127     1.0000 0.79960  0.84220  0.14850  Biso   1.000  H
  C194     1.0000 0.25690  0.26290  0.34950  Biso   1.000  C
  C195     1.0000 0.82100  0.04370  0.81960  Biso   1.000  C
  H128     1.0000 0.86520  0.06090  0.83980  Biso   1.000  H
  C196     1.0000 0.81980  0.99810  0.91300  Biso   1.000  C
  C197     1.0000 0.78510  0.89880  0.02320  Biso   1.000  C
  C198     1.0000 0.26480  0.37890  0.52640  Biso   1.000  C
  C199     1.0000 0.47410  0.16490  0.50120  Biso   1.000  C
  H129     1.0000 0.45680  0.16930  0.46120  Biso   1.000  H
  C200     1.0000 0.29620  0.39000  0.58580  Biso   1.000  C
  H130     1.0000 0.33790  0.36690  0.60770  Biso   1.000  H
  C201     1.0000 0.81360  0.89000  0.08210  Biso   1.000  C
  H131     1.0000 0.85550  0.91250  0.10440  Biso   1.000  H
  C202     1.0000 0.29500  0.32800  0.49590  Biso   1.000  C
  C203     1.0000 0.78760  0.00810  0.84880  Biso   1.000  C
  C204     1.0000 0.52670  0.14700  0.61660  Biso   1.000  C
  H132     1.0000 0.54420  0.13980  0.65640  Biso   1.000  H
  C205     1.0000 0.17460  0.45870  0.52660  Biso   1.000  C
  H133     1.0000 0.13210  0.48100  0.50640  Biso   1.000  H
  C206     1.0000 0.69240  0.81980  0.02150  Biso   1.000  C
  H134     1.0000 0.65090  0.79550  0.00050  Biso   1.000  H
  C207     1.0000 0.53310  0.12520  0.53190  Biso   1.000  C
  H135     1.0000 0.55550  0.10300  0.51160  Biso   1.000  H
  C208     1.0000 0.69320  0.99480  0.75810  Biso   1.000  C
  H136     1.0000 0.64920  0.97760  0.73720  Biso   1.000  H
  C209     1.0000 0.99820  0.07210  0.09370  Biso   1.000  C
  H137     1.0000 0.98080  0.04160  0.11470  Biso   1.000  H
  C210     1.0000 0.05610  0.11670  0.12150  Biso   1.000  C
  H138     1.0000 0.07530  0.11890  0.16160  Biso   1.000  H
  C211     1.0000 0.28470  0.21160  0.32260  Biso   1.000  C
  H139     1.0000 0.32330  0.18220  0.34430  Biso   1.000  H
  C212     1.0000 0.25450  0.20510  0.26380  Biso   1.000  C
  H140     1.0000 0.27340  0.17010  0.24630  Biso   1.000  H
  C213     1.0000 0.78840  0.05340  0.76040  Biso   1.000  C
  H141     1.0000 0.81140  0.07770  0.74130  Biso   1.000  H
  C214     1.0000 0.72190  0.98330  0.81740  Biso   1.000  C
  H142     1.0000 0.69760  0.95970  0.83560  Biso   1.000  H
  C215     1.0000 0.17150  0.29190  0.25640  Biso   1.000  C
  H143     1.0000 0.13200  0.31910  0.23370  Biso   1.000  H
  C216     1.0000 0.19770  0.30150  0.31570  Biso   1.000  C
  H144     1.0000 0.17590  0.33330  0.33240  Biso   1.000  H
  N61      1.0000 0.20460  0.46980  0.58320  Biso   1.000  N
  N62      1.0000 0.56060  0.11640  0.58890  Biso   1.000  N
  N63      1.0000 0.19930  0.24600  0.22990  Biso   1.000  N
  N64      1.0000 0.26210  0.32280  0.43790  Biso   1.000  N
  N65      1.0000 0.35180  0.28950  0.52840  Biso   1.000  N
  N66      1.0000 0.34730  0.23310  0.44170  Biso   1.000  N
  N67      1.0000 0.08620  0.15730  0.09350  Biso   1.000  N
  N68      1.0000 0.72430  0.02880  0.72910  Biso   1.000  N
  N69      1.0000 0.72020  0.81310  0.07870  Biso   1.000  N
  N70      1.0000 0.87700  0.03720  0.94210  Biso   1.000  N
  N71      1.0000 0.78870  0.95040  0.93610  Biso   1.000  N
  N72      1.0000 0.87390  0.98780  0.02760  Biso   1.000  N
  Ag13     1.0000 0.34427  0.04269  0.86747  Biso   1.000  Ag
  Ag14     1.0000 0.32249  0.74567  0.36691  Biso   1.000  Ag
  C217     1.0000 0.59770  0.52900  0.49990  Biso   1.000  C
  C218     1.0000 0.77730  0.36190  0.50870  Biso   1.000  C
  H145     1.0000 0.79800  0.36520  0.54890  Biso   1.000  H
  C219     1.0000 0.29780  0.91610  0.00460  Biso   1.000  C
  H146     1.0000 0.31990  0.91220  0.04460  Biso   1.000  H
  C220     1.0000 0.12350  0.74330  0.00100  Biso   1.000  C
  C221     1.0000 0.05970  0.69840  0.96880  Biso   1.000  C
  C222     1.0000 0.50320  0.61570  0.49530  Biso   1.000  C
  H147     1.0000 0.52260  0.61670  0.53550  Biso   1.000  H
  C223     1.0000 0.44410  0.65580  0.46390  Biso   1.000  C
  H148     1.0000 0.42410  0.68360  0.48410  Biso   1.000  H
  C224     1.0000 0.20970  0.77380  0.08670  Biso   1.000  C
  C225     1.0000 0.03270  0.68870  0.91010  Biso   1.000  C
  H149     1.0000 0.05420  0.70990  0.88880  Biso   1.000  H
  C226     1.0000 0.68200  0.44740  0.50600  Biso   1.000  C
  C227     1.0000 0.53340  0.57380  0.46590  Biso   1.000  C
  C228     1.0000 0.23550  0.93570  0.88820  Biso   1.000  C
  H150     1.0000 0.21380  0.94320  0.84840  Biso   1.000  H
  C229     1.0000 0.72030  0.34710  0.39160  Biso   1.000  C
  H151     1.0000 0.70040  0.34220  0.35150  Biso   1.000  H
  C230     1.0000 0.24310  0.76290  0.15050  Biso   1.000  C
  C231     1.0000 0.67900  0.54370  0.68040  Biso   1.000  C
  H152     1.0000 0.63480  0.56090  0.66020  Biso   1.000  H
  C232     1.0000 0.68020  0.49810  0.58700  Biso   1.000  C
  C233     1.0000 0.71490  0.39880  0.47680  Biso   1.000  C
  C234     1.0000 0.23520  0.87890  0.97360  Biso   1.000  C
  C235     1.0000 0.02590  0.66490  0.99880  Biso   1.000  C
  H153     1.0000 0.04320  0.66930  0.03880  Biso   1.000  H
  C236     1.0000 0.20380  0.89000  0.91420  Biso   1.000  C
  H154     1.0000 0.16210  0.86690  0.89230  Biso   1.000  H
  C237     1.0000 0.68640  0.39000  0.41790  Biso   1.000  C
  H155     1.0000 0.64450  0.41250  0.39560  Biso   1.000  H
  C238     1.0000 0.20500  0.82800  0.00410  Biso   1.000  C
  C239     1.0000 0.71240  0.50810  0.65120  Biso   1.000  C
  C240     1.0000 0.97330  0.64700  0.88340  Biso   1.000  C
  H156     1.0000 0.95580  0.63980  0.84360  Biso   1.000  H
  C241     1.0000 0.32540  0.95870  0.97340  Biso   1.000  C
  H157     1.0000 0.36790  0.98100  0.99360  Biso   1.000  H
  C242     1.0000 0.80760  0.31980  0.47850  Biso   1.000  C
  H158     1.0000 0.84910  0.29550  0.49950  Biso   1.000  H
  C243     1.0000 0.96690  0.62520  0.96810  Biso   1.000  C
  H159     1.0000 0.94450  0.60300  0.98840  Biso   1.000  H
  C244     1.0000 0.80680  0.49480  0.74190  Biso   1.000  C
  H160     1.0000 0.85080  0.47760  0.76280  Biso   1.000  H
  C245     1.0000 0.50180  0.57210  0.40630  Biso   1.000  C
  H161     1.0000 0.51920  0.54160  0.38530  Biso   1.000  H
  C246     1.0000 0.44390  0.61670  0.37850  Biso   1.000  C
  H162     1.0000 0.42470  0.61890  0.33840  Biso   1.000  H
  C247     1.0000 0.21530  0.71160  0.17740  Biso   1.000  C
  H163     1.0000 0.17670  0.68220  0.15570  Biso   1.000  H
  C248     1.0000 0.24550  0.70510  0.23620  Biso   1.000  C
  H164     1.0000 0.22660  0.67010  0.25370  Biso   1.000  H
  C249     1.0000 0.71160  0.55340  0.73960  Biso   1.000  C
  H165     1.0000 0.68860  0.57770  0.75870  Biso   1.000  H
  C250     1.0000 0.77810  0.48330  0.68260  Biso   1.000  C
  H166     1.0000 0.80240  0.45970  0.66440  Biso   1.000  H
  C251     1.0000 0.32850  0.79190  0.24360  Biso   1.000  C
  H167     1.0000 0.36800  0.81910  0.26630  Biso   1.000  H
  C252     1.0000 0.30230  0.80150  0.18430  Biso   1.000  C
  H168     1.0000 0.32410  0.83330  0.16760  Biso   1.000  H
  N73      1.0000 0.29540  0.96980  0.91680  Biso   1.000  N
  N74      1.0000 0.93940  0.61640  0.91110  Biso   1.000  N
  N75      1.0000 0.30070  0.74600  0.27010  Biso   1.000  N
  N76      1.0000 0.23790  0.82280  0.06210  Biso   1.000  N
  N77      1.0000 0.14820  0.78950  0.97160  Biso   1.000  N
  N78      1.0000 0.15270  0.73310  0.05830  Biso   1.000  N
  N79      1.0000 0.41380  0.65730  0.40650  Biso   1.000  N
  N80      1.0000 0.77570  0.52880  0.77090  Biso   1.000  N
  N81      1.0000 0.77980  0.31310  0.42130  Biso   1.000  N
  N82      1.0000 0.62300  0.53720  0.55790  Biso   1.000  N
  N83      1.0000 0.71130  0.45040  0.56390  Biso   1.000  N
  N84      1.0000 0.62610  0.48780  0.47240  Biso   1.000  N
  Ag15     1.0000 0.84427  0.54269  0.86747  Biso   1.000  Ag
  Ag16     1.0000 0.82249  0.24567  0.36691  Biso   1.000  Ag
  C253     1.0000 0.09770  0.02900  0.49990  Biso   1.000  C
  C254     1.0000 0.27730  0.86190  0.50870  Biso   1.000  C
  H169     1.0000 0.29800  0.86520  0.54890  Biso   1.000  H
  C255     1.0000 0.79780  0.41610  0.00460  Biso   1.000  C
  H170     1.0000 0.81990  0.41220  0.04460  Biso   1.000  H
  C256     1.0000 0.62350  0.24330  0.00100  Biso   1.000  C
  C257     1.0000 0.55970  0.19840  0.96880  Biso   1.000  C
  C258     1.0000 0.00320  0.11570  0.49530  Biso   1.000  C
  H171     1.0000 0.02260  0.11670  0.53550  Biso   1.000  H
  C259     1.0000 0.94410  0.15580  0.46390  Biso   1.000  C
  H172     1.0000 0.92410  0.18360  0.48410  Biso   1.000  H
  C260     1.0000 0.70970  0.27380  0.08670  Biso   1.000  C
  C261     1.0000 0.53270  0.18870  0.91010  Biso   1.000  C
  H173     1.0000 0.55420  0.20990  0.88880  Biso   1.000  H
  C262     1.0000 0.18200  0.94740  0.50600  Biso   1.000  C
  C263     1.0000 0.03340  0.07380  0.46590  Biso   1.000  C
  C264     1.0000 0.73550  0.43570  0.88820  Biso   1.000  C
  H174     1.0000 0.71380  0.44320  0.84840  Biso   1.000  H
  C265     1.0000 0.22030  0.84710  0.39160  Biso   1.000  C
  H175     1.0000 0.20040  0.84220  0.35150  Biso   1.000  H
  C266     1.0000 0.74310  0.26290  0.15050  Biso   1.000  C
  C267     1.0000 0.17900  0.04370  0.68040  Biso   1.000  C
  H176     1.0000 0.13480  0.06090  0.66020  Biso   1.000  H
  C268     1.0000 0.18020  0.99810  0.58700  Biso   1.000  C
  C269     1.0000 0.21490  0.89880  0.47680  Biso   1.000  C
  C270     1.0000 0.73520  0.37890  0.97360  Biso   1.000  C
  C271     1.0000 0.52590  0.16490  0.99880  Biso   1.000  C
  H177     1.0000 0.54320  0.16930  0.03880  Biso   1.000  H
  C272     1.0000 0.70380  0.39000  0.91420  Biso   1.000  C
  H178     1.0000 0.66210  0.36690  0.89230  Biso   1.000  H
  C273     1.0000 0.18640  0.89000  0.41790  Biso   1.000  C
  H179     1.0000 0.14450  0.91250  0.39560  Biso   1.000  H
  C274     1.0000 0.70500  0.32800  0.00410  Biso   1.000  C
  C275     1.0000 0.21240  0.00810  0.65120  Biso   1.000  C
  C276     1.0000 0.47330  0.14700  0.88340  Biso   1.000  C
  H180     1.0000 0.45580  0.13980  0.84360  Biso   1.000  H
  C277     1.0000 0.82540  0.45870  0.97340  Biso   1.000  C
  H181     1.0000 0.86790  0.48100  0.99360  Biso   1.000  H
  C278     1.0000 0.30760  0.81980  0.47850  Biso   1.000  C
  H182     1.0000 0.34910  0.79550  0.49950  Biso   1.000  H
  C279     1.0000 0.46690  0.12520  0.96810  Biso   1.000  C
  H183     1.0000 0.44450  0.10300  0.98840  Biso   1.000  H
  C280     1.0000 0.30680  0.99480  0.74190  Biso   1.000  C
  H184     1.0000 0.35080  0.97760  0.76280  Biso   1.000  H
  C281     1.0000 0.00180  0.07210  0.40630  Biso   1.000  C
  H185     1.0000 0.01920  0.04160  0.38530  Biso   1.000  H
  C282     1.0000 0.94390  0.11670  0.37850  Biso   1.000  C
  H186     1.0000 0.92470  0.11890  0.33840  Biso   1.000  H
  C283     1.0000 0.71530  0.21160  0.17740  Biso   1.000  C
  H187     1.0000 0.67670  0.18220  0.15570  Biso   1.000  H
  C284     1.0000 0.74550  0.20510  0.23620  Biso   1.000  C
  H188     1.0000 0.72660  0.17010  0.25370  Biso   1.000  H
  C285     1.0000 0.21160  0.05340  0.73960  Biso   1.000  C
  H189     1.0000 0.18860  0.07770  0.75870  Biso   1.000  H
  C286     1.0000 0.27810  0.98330  0.68260  Biso   1.000  C
  H190     1.0000 0.30240  0.95970  0.66440  Biso   1.000  H
  C287     1.0000 0.82850  0.29190  0.24360  Biso   1.000  C
  H191     1.0000 0.86800  0.31910  0.26630  Biso   1.000  H
  C288     1.0000 0.80230  0.30150  0.18430  Biso   1.000  C
  H192     1.0000 0.82410  0.33330  0.16760  Biso   1.000  H
  N85      1.0000 0.79540  0.46980  0.91680  Biso   1.000  N
  N86      1.0000 0.43940  0.11640  0.91110  Biso   1.000  N
  N87      1.0000 0.80070  0.24600  0.27010  Biso   1.000  N
  N88      1.0000 0.73790  0.32280  0.06210  Biso   1.000  N
  N89      1.0000 0.64820  0.28950  0.97160  Biso   1.000  N
  N90      1.0000 0.65270  0.23310  0.05830  Biso   1.000  N
  N91      1.0000 0.91380  0.15730  0.40650  Biso   1.000  N
  N92      1.0000 0.27570  0.02880  0.77090  Biso   1.000  N
  N93      1.0000 0.27980  0.81310  0.42130  Biso   1.000  N
  N94      1.0000 0.12300  0.03720  0.55790  Biso   1.000  N
  N95      1.0000 0.21130  0.95040  0.56390  Biso   1.000  N
  N96      1.0000 0.12610  0.98780  0.47240  Biso   1.000  N
