data_image0
_cell_length_a       21.966
_cell_length_b       16.6288
_cell_length_c       25.5315
_cell_angle_alpha    90
_cell_angle_beta     115.158
_cell_angle_gamma    90

_symmetry_space_group_name_H-M    "P 1"
_symmetry_int_tables_number       1

loop_
  _symmetry_equiv_pos_as_xyz
  'x, y, z'

loop_
  _atom_site_label
  _atom_site_occupancy
  _atom_site_fract_x
  _atom_site_fract_y
  _atom_site_fract_z
  _atom_site_thermal_displace_type
  _atom_site_B_iso_or_equiv
  _atom_site_type_symbol
  Ag1      1.0000 0.34423  0.95693  0.36706  Biso   1.000  Ag
  Ag2      1.0000 0.32195  0.25558  0.86659  Biso   1.000  Ag
  C1       1.0000 0.59760  0.47100  0.99930  Biso   1.000  C
  C2       1.0000 0.77710  0.63820  0.00850  Biso   1.000  C
  H1       1.0000 0.79800  0.63460  0.04860  Biso   1.000  H
  C3       1.0000 0.29740  0.08420  0.50400  Biso   1.000  C
  H2       1.0000 0.31960  0.08840  0.54400  Biso   1.000  H
  C4       1.0000 0.12330  0.25650  0.50070  Biso   1.000  C
  C5       1.0000 0.50340  0.38480  0.99480  Biso   1.000  C
  H3       1.0000 0.52290  0.38350  0.03500  Biso   1.000  H
  C6       1.0000 0.03280  0.31030  0.40960  Biso   1.000  C
  H4       1.0000 0.05400  0.28860  0.38820  Biso   1.000  H
  C7       1.0000 0.05960  0.30140  0.46820  Biso   1.000  C
  C8       1.0000 0.68160  0.55240  0.00560  Biso   1.000  C
  C9       1.0000 0.20940  0.22600  0.58600  Biso   1.000  C
  C10      1.0000 0.44420  0.34440  0.96320  Biso   1.000  C
  H5       1.0000 0.42460  0.31580  0.98340  Biso   1.000  H
  C11      1.0000 0.53330  0.42720  0.96540  Biso   1.000  C
  C12      1.0000 0.24260  0.23660  0.64970  Biso   1.000  C
  C13      1.0000 0.71990  0.65320  0.89070  Biso   1.000  C
  H6       1.0000 0.70000  0.65830  0.85070  Biso   1.000  H
  C14      1.0000 0.67930  0.45650  0.17980  Biso   1.000  C
  H7       1.0000 0.63500  0.43950  0.15970  Biso   1.000  H
  C15      1.0000 0.23550  0.12130  0.47370  Biso   1.000  C
  C16      1.0000 0.23550  0.06440  0.38750  Biso   1.000  C
  H8       1.0000 0.21420  0.05750  0.34750  Biso   1.000  H
  C17      1.0000 0.71450  0.60110  0.97640  Biso   1.000  C
  C18      1.0000 0.02560  0.33500  0.49800  Biso   1.000  C
  H9       1.0000 0.04280  0.33080  0.53810  Biso   1.000  H
  C19      1.0000 0.20480  0.17240  0.50330  Biso   1.000  C
  C20      1.0000 0.67970  0.50210  0.08620  Biso   1.000  C
  C21      1.0000 0.71220  0.49180  0.15060  Biso   1.000  C
  C22      1.0000 0.20390  0.10950  0.41380  Biso   1.000  C
  H10      1.0000 0.16180  0.13200  0.39200  Biso   1.000  H
  C23      1.0000 0.68610  0.61000  0.91720  Biso   1.000  C
  H11      1.0000 0.64440  0.58720  0.89480  Biso   1.000  H
  C24      1.0000 0.32520  0.04120  0.47330  Biso   1.000  C
  H12      1.0000 0.36750  0.01870  0.49380  Biso   1.000  H
  C25      1.0000 0.97310  0.35260  0.38280  Biso   1.000  C
  H13      1.0000 0.95590  0.36050  0.34300  Biso   1.000  H
  C26      1.0000 0.96720  0.37380  0.46770  Biso   1.000  C
  H14      1.0000 0.94500  0.39610  0.48810  Biso   1.000  H
  C27      1.0000 0.80610  0.50480  0.24100  Biso   1.000  C
  H15      1.0000 0.85030  0.52160  0.26190  Biso   1.000  H
  C28      1.0000 0.80660  0.68060  0.97810  Biso   1.000  C
  H16      1.0000 0.84770  0.70560  0.99920  Biso   1.000  H
  C29      1.0000 0.50220  0.42800  0.90570  Biso   1.000  C
  H17      1.0000 0.51990  0.45770  0.88460  Biso   1.000  H
  C30      1.0000 0.77790  0.51610  0.18200  Biso   1.000  C
  H18      1.0000 0.80230  0.53950  0.16390  Biso   1.000  H
  C31      1.0000 0.44430  0.38350  0.87820  Biso   1.000  C
  H19      1.0000 0.42540  0.38080  0.83800  Biso   1.000  H
  C32      1.0000 0.71180  0.44620  0.23880  Biso   1.000  C
  H20      1.0000 0.68910  0.42080  0.25770  Biso   1.000  H
  C33      1.0000 0.24500  0.29440  0.73560  Biso   1.000  C
  H21      1.0000 0.22570  0.32890  0.75300  Biso   1.000  H
  C34      1.0000 0.30210  0.19900  0.68320  Biso   1.000  C
  H22      1.0000 0.32460  0.16790  0.66670  Biso   1.000  H
  C35      1.0000 0.21460  0.28710  0.67650  Biso   1.000  C
  H23      1.0000 0.17570  0.31580  0.65470  Biso   1.000  H
  C36      1.0000 0.32740  0.20920  0.74250  Biso   1.000  C
  H24      1.0000 0.36660  0.18160  0.76530  Biso   1.000  H
  N1       1.0000 0.29550  0.03000  0.41660  Biso   1.000  N
  N2       1.0000 0.93940  0.38230  0.41070  Biso   1.000  N
  N3       1.0000 0.30050  0.25470  0.76930  Biso   1.000  N
  N4       1.0000 0.23750  0.17700  0.56130  Biso   1.000  N
  N5       1.0000 0.14780  0.21030  0.47110  Biso   1.000  N
  N6       1.0000 0.15250  0.26640  0.55780  Biso   1.000  N
  N7       1.0000 0.41340  0.34390  0.90580  Biso   1.000  N
  N8       1.0000 0.77530  0.47180  0.27010  Biso   1.000  N
  N9       1.0000 0.77960  0.68730  0.92070  Biso   1.000  N
  N10      1.0000 0.62540  0.51280  0.97160  Biso   1.000  N
  N11      1.0000 0.62260  0.46310  0.05730  Biso   1.000  N
  N12      1.0000 0.71110  0.54950  0.06340  Biso   1.000  N
  Ag3      1.0000 0.84423  0.45693  0.36706  Biso   1.000  Ag
  Ag4      1.0000 0.82195  0.75558  0.86659  Biso   1.000  Ag
  C37      1.0000 0.09760  0.97100  0.99930  Biso   1.000  C
  C38      1.0000 0.27710  0.13820  0.00850  Biso   1.000  C
  H25      1.0000 0.29800  0.13460  0.04860  Biso   1.000  H
  C39      1.0000 0.79740  0.58420  0.50400  Biso   1.000  C
  H26      1.0000 0.81960  0.58840  0.54400  Biso   1.000  H
  C40      1.0000 0.62330  0.75650  0.50070  Biso   1.000  C
  C41      1.0000 0.00340  0.88480  0.99480  Biso   1.000  C
  H27      1.0000 0.02290  0.88350  0.03500  Biso   1.000  H
  C42      1.0000 0.53280  0.81030  0.40960  Biso   1.000  C
  H28      1.0000 0.55400  0.78860  0.38820  Biso   1.000  H
  C43      1.0000 0.55960  0.80140  0.46820  Biso   1.000  C
  C44      1.0000 0.18160  0.05240  0.00560  Biso   1.000  C
  C45      1.0000 0.70940  0.72600  0.58600  Biso   1.000  C
  C46      1.0000 0.94420  0.84440  0.96320  Biso   1.000  C
  H29      1.0000 0.92460  0.81580  0.98340  Biso   1.000  H
  C47      1.0000 0.03330  0.92720  0.96540  Biso   1.000  C
  C48      1.0000 0.74260  0.73660  0.64970  Biso   1.000  C
  C49      1.0000 0.21990  0.15320  0.89070  Biso   1.000  C
  H30      1.0000 0.20000  0.15830  0.85070  Biso   1.000  H
  C50      1.0000 0.17930  0.95650  0.17980  Biso   1.000  C
  H31      1.0000 0.13500  0.93950  0.15970  Biso   1.000  H
  C51      1.0000 0.73550  0.62130  0.47370  Biso   1.000  C
  C52      1.0000 0.73550  0.56440  0.38750  Biso   1.000  C
  H32      1.0000 0.71420  0.55750  0.34750  Biso   1.000  H
  C53      1.0000 0.21450  0.10110  0.97640  Biso   1.000  C
  C54      1.0000 0.52560  0.83500  0.49800  Biso   1.000  C
  H33      1.0000 0.54280  0.83080  0.53810  Biso   1.000  H
  C55      1.0000 0.70480  0.67240  0.50330  Biso   1.000  C
  C56      1.0000 0.17970  0.00210  0.08620  Biso   1.000  C
  C57      1.0000 0.21220  0.99180  0.15060  Biso   1.000  C
  C58      1.0000 0.70390  0.60950  0.41380  Biso   1.000  C
  H34      1.0000 0.66180  0.63200  0.39200  Biso   1.000  H
  C59      1.0000 0.18610  0.11000  0.91720  Biso   1.000  C
  H35      1.0000 0.14440  0.08720  0.89480  Biso   1.000  H
  C60      1.0000 0.82520  0.54120  0.47330  Biso   1.000  C
  H36      1.0000 0.86750  0.51870  0.49380  Biso   1.000  H
  C61      1.0000 0.47310  0.85260  0.38280  Biso   1.000  C
  H37      1.0000 0.45590  0.86050  0.34300  Biso   1.000  H
  C62      1.0000 0.46720  0.87380  0.46770  Biso   1.000  C
  H38      1.0000 0.44500  0.89610  0.48810  Biso   1.000  H
  C63      1.0000 0.30610  0.00480  0.24100  Biso   1.000  C
  H39      1.0000 0.35030  0.02160  0.26190  Biso   1.000  H
  C64      1.0000 0.30660  0.18060  0.97810  Biso   1.000  C
  H40      1.0000 0.34770  0.20560  0.99920  Biso   1.000  H
  C65      1.0000 0.00220  0.92800  0.90570  Biso   1.000  C
  H41      1.0000 0.01990  0.95770  0.88460  Biso   1.000  H
  C66      1.0000 0.27790  0.01610  0.18200  Biso   1.000  C
  H42      1.0000 0.30230  0.03950  0.16390  Biso   1.000  H
  C67      1.0000 0.94430  0.88350  0.87820  Biso   1.000  C
  H43      1.0000 0.92540  0.88080  0.83800  Biso   1.000  H
  C68      1.0000 0.21180  0.94620  0.23880  Biso   1.000  C
  H44      1.0000 0.18910  0.92080  0.25770  Biso   1.000  H
  C69      1.0000 0.74500  0.79440  0.73560  Biso   1.000  C
  H45      1.0000 0.72570  0.82890  0.75300  Biso   1.000  H
  C70      1.0000 0.80210  0.69900  0.68320  Biso   1.000  C
  H46      1.0000 0.82460  0.66790  0.66670  Biso   1.000  H
  C71      1.0000 0.71460  0.78710  0.67650  Biso   1.000  C
  H47      1.0000 0.67570  0.81580  0.65470  Biso   1.000  H
  C72      1.0000 0.82740  0.70920  0.74250  Biso   1.000  C
  H48      1.0000 0.86660  0.68160  0.76530  Biso   1.000  H
  N13      1.0000 0.79550  0.53000  0.41660  Biso   1.000  N
  N14      1.0000 0.43940  0.88230  0.41070  Biso   1.000  N
  N15      1.0000 0.80050  0.75470  0.76930  Biso   1.000  N
  N16      1.0000 0.73750  0.67700  0.56130  Biso   1.000  N
  N17      1.0000 0.64780  0.71030  0.47110  Biso   1.000  N
  N18      1.0000 0.65250  0.76640  0.55780  Biso   1.000  N
  N19      1.0000 0.91340  0.84390  0.90580  Biso   1.000  N
  N20      1.0000 0.27530  0.97180  0.27010  Biso   1.000  N
  N21      1.0000 0.27960  0.18730  0.92070  Biso   1.000  N
  N22      1.0000 0.12540  0.01280  0.97160  Biso   1.000  N
  N23      1.0000 0.12260  0.96310  0.05730  Biso   1.000  N
  N24      1.0000 0.21110  0.04950  0.06340  Biso   1.000  N
  Ag5      1.0000 0.65577  0.95693  0.13294  Biso   1.000  Ag
  Ag6      1.0000 0.67805  0.25558  0.63341  Biso   1.000  Ag
  C73      1.0000 0.40240  0.47100  0.50070  Biso   1.000  C
  C74      1.0000 0.22290  0.63820  0.49150  Biso   1.000  C
  H49      1.0000 0.20200  0.63460  0.45140  Biso   1.000  H
  C75      1.0000 0.70260  0.08420  0.99600  Biso   1.000  C
  H50      1.0000 0.68040  0.08840  0.95600  Biso   1.000  H
  C76      1.0000 0.87670  0.25650  0.99930  Biso   1.000  C
  C77      1.0000 0.49660  0.38480  0.50520  Biso   1.000  C
  H51      1.0000 0.47710  0.38350  0.46500  Biso   1.000  H
  C78      1.0000 0.96720  0.31030  0.09040  Biso   1.000  C
  H52      1.0000 0.94600  0.28860  0.11180  Biso   1.000  H
  C79      1.0000 0.94040  0.30140  0.03180  Biso   1.000  C
  C80      1.0000 0.31840  0.55240  0.49440  Biso   1.000  C
  C81      1.0000 0.79060  0.22600  0.91400  Biso   1.000  C
  C82      1.0000 0.55580  0.34440  0.53680  Biso   1.000  C
  H53      1.0000 0.57540  0.31580  0.51660  Biso   1.000  H
  C83      1.0000 0.46670  0.42720  0.53460  Biso   1.000  C
  C84      1.0000 0.75740  0.23660  0.85030  Biso   1.000  C
  C85      1.0000 0.28010  0.65320  0.60930  Biso   1.000  C
  H54      1.0000 0.30000  0.65830  0.64930  Biso   1.000  H
  C86      1.0000 0.32070  0.45650  0.32020  Biso   1.000  C
  H55      1.0000 0.36500  0.43950  0.34030  Biso   1.000  H
  C87      1.0000 0.76450  0.12130  0.02630  Biso   1.000  C
  C88      1.0000 0.76450  0.06440  0.11250  Biso   1.000  C
  H56      1.0000 0.78580  0.05750  0.15250  Biso   1.000  H
  C89      1.0000 0.28550  0.60110  0.52360  Biso   1.000  C
  C90      1.0000 0.97440  0.33500  0.00200  Biso   1.000  C
  H57      1.0000 0.95720  0.33080  0.96190  Biso   1.000  H
  C91      1.0000 0.79520  0.17240  0.99670  Biso   1.000  C
  C92      1.0000 0.32030  0.50210  0.41380  Biso   1.000  C
  C93      1.0000 0.28780  0.49180  0.34940  Biso   1.000  C
  C94      1.0000 0.79610  0.10950  0.08620  Biso   1.000  C
  H58      1.0000 0.83820  0.13200  0.10800  Biso   1.000  H
  C95      1.0000 0.31390  0.61000  0.58280  Biso   1.000  C
  H59      1.0000 0.35560  0.58720  0.60520  Biso   1.000  H
  C96      1.0000 0.67480  0.04120  0.02670  Biso   1.000  C
  H60      1.0000 0.63250  0.01870  0.00620  Biso   1.000  H
  C97      1.0000 0.02690  0.35260  0.11720  Biso   1.000  C
  H61      1.0000 0.04410  0.36050  0.15700  Biso   1.000  H
  C98      1.0000 0.03280  0.37380  0.03230  Biso   1.000  C
  H62      1.0000 0.05500  0.39610  0.01190  Biso   1.000  H
  C99      1.0000 0.19390  0.50480  0.25900  Biso   1.000  C
  H63      1.0000 0.14970  0.52160  0.23810  Biso   1.000  H
  C100     1.0000 0.19340  0.68060  0.52190  Biso   1.000  C
  H64      1.0000 0.15230  0.70560  0.50080  Biso   1.000  H
  C101     1.0000 0.49780  0.42800  0.59430  Biso   1.000  C
  H65      1.0000 0.48010  0.45770  0.61540  Biso   1.000  H
  C102     1.0000 0.22210  0.51610  0.31800  Biso   1.000  C
  H66      1.0000 0.19770  0.53950  0.33610  Biso   1.000  H
  C103     1.0000 0.55570  0.38350  0.62180  Biso   1.000  C
  H67      1.0000 0.57460  0.38080  0.66200  Biso   1.000  H
  C104     1.0000 0.28820  0.44620  0.26120  Biso   1.000  C
  H68      1.0000 0.31090  0.42080  0.24230  Biso   1.000  H
  C105     1.0000 0.75500  0.29440  0.76440  Biso   1.000  C
  H69      1.0000 0.77430  0.32890  0.74700  Biso   1.000  H
  C106     1.0000 0.69790  0.19900  0.81680  Biso   1.000  C
  H70      1.0000 0.67540  0.16790  0.83330  Biso   1.000  H
  C107     1.0000 0.78540  0.28710  0.82350  Biso   1.000  C
  H71      1.0000 0.82430  0.31580  0.84530  Biso   1.000  H
  C108     1.0000 0.67260  0.20920  0.75750  Biso   1.000  C
  H72      1.0000 0.63340  0.18160  0.73470  Biso   1.000  H
  N25      1.0000 0.70450  0.03000  0.08340  Biso   1.000  N
  N26      1.0000 0.06060  0.38230  0.08930  Biso   1.000  N
  N27      1.0000 0.69950  0.25470  0.73070  Biso   1.000  N
  N28      1.0000 0.76250  0.17700  0.93870  Biso   1.000  N
  N29      1.0000 0.85220  0.21030  0.02890  Biso   1.000  N
  N30      1.0000 0.84750  0.26640  0.94220  Biso   1.000  N
  N31      1.0000 0.58660  0.34390  0.59420  Biso   1.000  N
  N32      1.0000 0.22470  0.47180  0.22990  Biso   1.000  N
  N33      1.0000 0.22040  0.68730  0.57930  Biso   1.000  N
  N34      1.0000 0.37460  0.51280  0.52840  Biso   1.000  N
  N35      1.0000 0.37740  0.46310  0.44270  Biso   1.000  N
  N36      1.0000 0.28890  0.54950  0.43660  Biso   1.000  N
  Ag7      1.0000 0.15577  0.45693  0.13294  Biso   1.000  Ag
  Ag8      1.0000 0.17805  0.75558  0.63341  Biso   1.000  Ag
  C109     1.0000 0.90240  0.97100  0.50070  Biso   1.000  C
  C110     1.0000 0.72290  0.13820  0.49150  Biso   1.000  C
  H73      1.0000 0.70200  0.13460  0.45140  Biso   1.000  H
  C111     1.0000 0.20260  0.58420  0.99600  Biso   1.000  C
  H74      1.0000 0.18040  0.58840  0.95600  Biso   1.000  H
  C112     1.0000 0.37670  0.75650  0.99930  Biso   1.000  C
  C113     1.0000 0.99660  0.88480  0.50520  Biso   1.000  C
  H75      1.0000 0.97710  0.88350  0.46500  Biso   1.000  H
  C114     1.0000 0.46720  0.81030  0.09040  Biso   1.000  C
  H76      1.0000 0.44600  0.78860  0.11180  Biso   1.000  H
  C115     1.0000 0.44040  0.80140  0.03180  Biso   1.000  C
  C116     1.0000 0.81840  0.05240  0.49440  Biso   1.000  C
  C117     1.0000 0.29060  0.72600  0.91400  Biso   1.000  C
  C118     1.0000 0.05580  0.84440  0.53680  Biso   1.000  C
  H77      1.0000 0.07540  0.81580  0.51660  Biso   1.000  H
  C119     1.0000 0.96670  0.92720  0.53460  Biso   1.000  C
  C120     1.0000 0.25740  0.73660  0.85030  Biso   1.000  C
  C121     1.0000 0.78010  0.15320  0.60930  Biso   1.000  C
  H78      1.0000 0.80000  0.15830  0.64930  Biso   1.000  H
  C122     1.0000 0.82070  0.95650  0.32020  Biso   1.000  C
  H79      1.0000 0.86500  0.93950  0.34030  Biso   1.000  H
  C123     1.0000 0.26450  0.62130  0.02630  Biso   1.000  C
  C124     1.0000 0.26450  0.56440  0.11250  Biso   1.000  C
  H80      1.0000 0.28580  0.55750  0.15250  Biso   1.000  H
  C125     1.0000 0.78550  0.10110  0.52360  Biso   1.000  C
  C126     1.0000 0.47440  0.83500  0.00200  Biso   1.000  C
  H81      1.0000 0.45720  0.83080  0.96190  Biso   1.000  H
  C127     1.0000 0.29520  0.67240  0.99670  Biso   1.000  C
  C128     1.0000 0.82030  0.00210  0.41380  Biso   1.000  C
  C129     1.0000 0.78780  0.99180  0.34940  Biso   1.000  C
  C130     1.0000 0.29610  0.60950  0.08620  Biso   1.000  C
  H82      1.0000 0.33820  0.63200  0.10800  Biso   1.000  H
  C131     1.0000 0.81390  0.11000  0.58280  Biso   1.000  C
  H83      1.0000 0.85560  0.08720  0.60520  Biso   1.000  H
  C132     1.0000 0.17480  0.54120  0.02670  Biso   1.000  C
  H84      1.0000 0.13250  0.51870  0.00620  Biso   1.000  H
  C133     1.0000 0.52690  0.85260  0.11720  Biso   1.000  C
  H85      1.0000 0.54410  0.86050  0.15700  Biso   1.000  H
  C134     1.0000 0.53280  0.87380  0.03230  Biso   1.000  C
  H86      1.0000 0.55500  0.89610  0.01190  Biso   1.000  H
  C135     1.0000 0.69390  0.00480  0.25900  Biso   1.000  C
  H87      1.0000 0.64970  0.02160  0.23810  Biso   1.000  H
  C136     1.0000 0.69340  0.18060  0.52190  Biso   1.000  C
  H88      1.0000 0.65230  0.20560  0.50080  Biso   1.000  H
  C137     1.0000 0.99780  0.92800  0.59430  Biso   1.000  C
  H89      1.0000 0.98010  0.95770  0.61540  Biso   1.000  H
  C138     1.0000 0.72210  0.01610  0.31800  Biso   1.000  C
  H90      1.0000 0.69770  0.03950  0.33610  Biso   1.000  H
  C139     1.0000 0.05570  0.88350  0.62180  Biso   1.000  C
  H91      1.0000 0.07460  0.88080  0.66200  Biso   1.000  H
  C140     1.0000 0.78820  0.94620  0.26120  Biso   1.000  C
  H92      1.0000 0.81090  0.92080  0.24230  Biso   1.000  H
  C141     1.0000 0.25500  0.79440  0.76440  Biso   1.000  C
  H93      1.0000 0.27430  0.82890  0.74700  Biso   1.000  H
  C142     1.0000 0.19790  0.69900  0.81680  Biso   1.000  C
  H94      1.0000 0.17540  0.66790  0.83330  Biso   1.000  H
  C143     1.0000 0.28540  0.78710  0.82350  Biso   1.000  C
  H95      1.0000 0.32430  0.81580  0.84530  Biso   1.000  H
  C144     1.0000 0.17260  0.70920  0.75750  Biso   1.000  C
  H96      1.0000 0.13340  0.68160  0.73470  Biso   1.000  H
  N37      1.0000 0.20450  0.53000  0.08340  Biso   1.000  N
  N38      1.0000 0.56060  0.88230  0.08930  Biso   1.000  N
  N39      1.0000 0.19950  0.75470  0.73070  Biso   1.000  N
  N40      1.0000 0.26250  0.67700  0.93870  Biso   1.000  N
  N41      1.0000 0.35220  0.71030  0.02890  Biso   1.000  N
  N42      1.0000 0.34750  0.76640  0.94220  Biso   1.000  N
  N43      1.0000 0.08660  0.84390  0.59420  Biso   1.000  N
  N44      1.0000 0.72470  0.97180  0.22990  Biso   1.000  N
  N45      1.0000 0.72040  0.18730  0.57930  Biso   1.000  N
  N46      1.0000 0.87460  0.01280  0.52840  Biso   1.000  N
  N47      1.0000 0.87740  0.96310  0.44270  Biso   1.000  N
  N48      1.0000 0.78890  0.04950  0.43660  Biso   1.000  N
  Ag9      1.0000 0.65577  0.04307  0.63294  Biso   1.000  Ag
  Ag10     1.0000 0.67805  0.74442  0.13341  Biso   1.000  Ag
  C145     1.0000 0.40240  0.52900  0.00070  Biso   1.000  C
  C146     1.0000 0.22290  0.36180  0.99150  Biso   1.000  C
  H97      1.0000 0.20200  0.36540  0.95140  Biso   1.000  H
  C147     1.0000 0.70260  0.91580  0.49600  Biso   1.000  C
  H98      1.0000 0.68040  0.91160  0.45600  Biso   1.000  H
  C148     1.0000 0.87670  0.74350  0.49930  Biso   1.000  C
  C149     1.0000 0.49660  0.61520  0.00520  Biso   1.000  C
  H99      1.0000 0.47710  0.61650  0.96500  Biso   1.000  H
  C150     1.0000 0.96720  0.68970  0.59040  Biso   1.000  C
  H100     1.0000 0.94600  0.71140  0.61180  Biso   1.000  H
  C151     1.0000 0.94040  0.69860  0.53180  Biso   1.000  C
  C152     1.0000 0.31840  0.44760  0.99440  Biso   1.000  C
  C153     1.0000 0.79060  0.77400  0.41400  Biso   1.000  C
  C154     1.0000 0.55580  0.65560  0.03680  Biso   1.000  C
  H101     1.0000 0.57540  0.68420  0.01660  Biso   1.000  H
  C155     1.0000 0.46670  0.57280  0.03460  Biso   1.000  C
  C156     1.0000 0.75740  0.76340  0.35030  Biso   1.000  C
  C157     1.0000 0.28010  0.34680  0.10930  Biso   1.000  C
  H102     1.0000 0.30000  0.34170  0.14930  Biso   1.000  H
  C158     1.0000 0.32070  0.54350  0.82020  Biso   1.000  C
  H103     1.0000 0.36500  0.56050  0.84030  Biso   1.000  H
  C159     1.0000 0.76450  0.87870  0.52630  Biso   1.000  C
  C160     1.0000 0.76450  0.93560  0.61250  Biso   1.000  C
  H104     1.0000 0.78580  0.94250  0.65250  Biso   1.000  H
  C161     1.0000 0.28550  0.39890  0.02360  Biso   1.000  C
  C162     1.0000 0.97440  0.66500  0.50200  Biso   1.000  C
  H105     1.0000 0.95720  0.66920  0.46190  Biso   1.000  H
  C163     1.0000 0.79520  0.82760  0.49670  Biso   1.000  C
  C164     1.0000 0.32030  0.49790  0.91380  Biso   1.000  C
  C165     1.0000 0.28780  0.50820  0.84940  Biso   1.000  C
  C166     1.0000 0.79610  0.89050  0.58620  Biso   1.000  C
  H106     1.0000 0.83820  0.86800  0.60800  Biso   1.000  H
  C167     1.0000 0.31390  0.39000  0.08280  Biso   1.000  C
  H107     1.0000 0.35560  0.41280  0.10520  Biso   1.000  H
  C168     1.0000 0.67480  0.95880  0.52670  Biso   1.000  C
  H108     1.0000 0.63250  0.98130  0.50620  Biso   1.000  H
  C169     1.0000 0.02690  0.64740  0.61720  Biso   1.000  C
  H109     1.0000 0.04410  0.63950  0.65700  Biso   1.000  H
  C170     1.0000 0.03280  0.62620  0.53230  Biso   1.000  C
  H110     1.0000 0.05500  0.60390  0.51190  Biso   1.000  H
  C171     1.0000 0.19390  0.49520  0.75900  Biso   1.000  C
  H111     1.0000 0.14970  0.47840  0.73810  Biso   1.000  H
  C172     1.0000 0.19340  0.31940  0.02190  Biso   1.000  C
  H112     1.0000 0.15230  0.29440  0.00080  Biso   1.000  H
  C173     1.0000 0.49780  0.57200  0.09430  Biso   1.000  C
  H113     1.0000 0.48010  0.54230  0.11540  Biso   1.000  H
  C174     1.0000 0.22210  0.48390  0.81800  Biso   1.000  C
  H114     1.0000 0.19770  0.46050  0.83610  Biso   1.000  H
  C175     1.0000 0.55570  0.61650  0.12180  Biso   1.000  C
  H115     1.0000 0.57460  0.61920  0.16200  Biso   1.000  H
  C176     1.0000 0.28820  0.55380  0.76120  Biso   1.000  C
  H116     1.0000 0.31090  0.57920  0.74230  Biso   1.000  H
  C177     1.0000 0.75500  0.70560  0.26440  Biso   1.000  C
  H117     1.0000 0.77430  0.67110  0.24700  Biso   1.000  H
  C178     1.0000 0.69790  0.80100  0.31680  Biso   1.000  C
  H118     1.0000 0.67540  0.83210  0.33330  Biso   1.000  H
  C179     1.0000 0.78540  0.71290  0.32350  Biso   1.000  C
  H119     1.0000 0.82430  0.68420  0.34530  Biso   1.000  H
  C180     1.0000 0.67260  0.79080  0.25750  Biso   1.000  C
  H120     1.0000 0.63340  0.81840  0.23470  Biso   1.000  H
  N49      1.0000 0.70450  0.97000  0.58340  Biso   1.000  N
  N50      1.0000 0.06060  0.61770  0.58930  Biso   1.000  N
  N51      1.0000 0.69950  0.74530  0.23070  Biso   1.000  N
  N52      1.0000 0.76250  0.82300  0.43870  Biso   1.000  N
  N53      1.0000 0.85220  0.78970  0.52890  Biso   1.000  N
  N54      1.0000 0.84750  0.73360  0.44220  Biso   1.000  N
  N55      1.0000 0.58660  0.65610  0.09420  Biso   1.000  N
  N56      1.0000 0.22470  0.52820  0.72990  Biso   1.000  N
  N57      1.0000 0.22040  0.31270  0.07930  Biso   1.000  N
  N58      1.0000 0.37460  0.48720  0.02840  Biso   1.000  N
  N59      1.0000 0.37740  0.53690  0.94270  Biso   1.000  N
  N60      1.0000 0.28890  0.45050  0.93660  Biso   1.000  N
  Ag11     1.0000 0.15577  0.54307  0.63294  Biso   1.000  Ag
  Ag12     1.0000 0.17805  0.24442  0.13341  Biso   1.000  Ag
  C181     1.0000 0.90240  0.02900  0.00070  Biso   1.000  C
  C182     1.0000 0.72290  0.86180  0.99150  Biso   1.000  C
  H121     1.0000 0.70200  0.86540  0.95140  Biso   1.000  H
  C183     1.0000 0.20260  0.41580  0.49600  Biso   1.000  C
  H122     1.0000 0.18040  0.41160  0.45600  Biso   1.000  H
  C184     1.0000 0.37670  0.24350  0.49930  Biso   1.000  C
  C185     1.0000 0.99660  0.11520  0.00520  Biso   1.000  C
  H123     1.0000 0.97710  0.11650  0.96500  Biso   1.000  H
  C186     1.0000 0.46720  0.18970  0.59040  Biso   1.000  C
  H124     1.0000 0.44600  0.21140  0.61180  Biso   1.000  H
  C187     1.0000 0.44040  0.19860  0.53180  Biso   1.000  C
  C188     1.0000 0.81840  0.94760  0.99440  Biso   1.000  C
  C189     1.0000 0.29060  0.27400  0.41400  Biso   1.000  C
  C190     1.0000 0.05580  0.15560  0.03680  Biso   1.000  C
  H125     1.0000 0.07540  0.18420  0.01660  Biso   1.000  H
  C191     1.0000 0.96670  0.07280  0.03460  Biso   1.000  C
  C192     1.0000 0.25740  0.26340  0.35030  Biso   1.000  C
  C193     1.0000 0.78010  0.84680  0.10930  Biso   1.000  C
  H126     1.0000 0.80000  0.84170  0.14930  Biso   1.000  H
  C194     1.0000 0.82070  0.04350  0.82020  Biso   1.000  C
  H127     1.0000 0.86500  0.06050  0.84030  Biso   1.000  H
  C195     1.0000 0.26450  0.37870  0.52630  Biso   1.000  C
  C196     1.0000 0.26450  0.43560  0.61250  Biso   1.000  C
  H128     1.0000 0.28580  0.44250  0.65250  Biso   1.000  H
  C197     1.0000 0.78550  0.89890  0.02360  Biso   1.000  C
  C198     1.0000 0.47440  0.16500  0.50200  Biso   1.000  C
  H129     1.0000 0.45720  0.16920  0.46190  Biso   1.000  H
  C199     1.0000 0.29520  0.32760  0.49670  Biso   1.000  C
  C200     1.0000 0.82030  0.99790  0.91380  Biso   1.000  C
  C201     1.0000 0.78780  0.00820  0.84940  Biso   1.000  C
  C202     1.0000 0.29610  0.39050  0.58620  Biso   1.000  C
  H130     1.0000 0.33820  0.36800  0.60800  Biso   1.000  H
  C203     1.0000 0.81390  0.89000  0.08280  Biso   1.000  C
  H131     1.0000 0.85560  0.91280  0.10520  Biso   1.000  H
  C204     1.0000 0.17480  0.45880  0.52670  Biso   1.000  C
  H132     1.0000 0.13250  0.48130  0.50620  Biso   1.000  H
  C205     1.0000 0.52690  0.14740  0.61720  Biso   1.000  C
  H133     1.0000 0.54410  0.13950  0.65700  Biso   1.000  H
  C206     1.0000 0.53280  0.12620  0.53230  Biso   1.000  C
  H134     1.0000 0.55500  0.10390  0.51190  Biso   1.000  H
  C207     1.0000 0.69390  0.99520  0.75900  Biso   1.000  C
  H135     1.0000 0.64970  0.97840  0.73810  Biso   1.000  H
  C208     1.0000 0.69340  0.81940  0.02190  Biso   1.000  C
  H136     1.0000 0.65230  0.79440  0.00080  Biso   1.000  H
  C209     1.0000 0.99780  0.07200  0.09430  Biso   1.000  C
  H137     1.0000 0.98010  0.04230  0.11540  Biso   1.000  H
  C210     1.0000 0.72210  0.98390  0.81800  Biso   1.000  C
  H138     1.0000 0.69770  0.96050  0.83610  Biso   1.000  H
  C211     1.0000 0.05570  0.11650  0.12180  Biso   1.000  C
  H139     1.0000 0.07460  0.11920  0.16200  Biso   1.000  H
  C212     1.0000 0.78820  0.05380  0.76120  Biso   1.000  C
  H140     1.0000 0.81090  0.07920  0.74230  Biso   1.000  H
  C213     1.0000 0.25500  0.20560  0.26440  Biso   1.000  C
  H141     1.0000 0.27430  0.17110  0.24700  Biso   1.000  H
  C214     1.0000 0.19790  0.30100  0.31680  Biso   1.000  C
  H142     1.0000 0.17540  0.33210  0.33330  Biso   1.000  H
  C215     1.0000 0.28540  0.21290  0.32350  Biso   1.000  C
  H143     1.0000 0.32430  0.18420  0.34530  Biso   1.000  H
  C216     1.0000 0.17260  0.29080  0.25750  Biso   1.000  C
  H144     1.0000 0.13340  0.31840  0.23470  Biso   1.000  H
  N61      1.0000 0.20450  0.47000  0.58340  Biso   1.000  N
  N62      1.0000 0.56060  0.11770  0.58930  Biso   1.000  N
  N63      1.0000 0.19950  0.24530  0.23070  Biso   1.000  N
  N64      1.0000 0.26250  0.32300  0.43870  Biso   1.000  N
  N65      1.0000 0.35220  0.28970  0.52890  Biso   1.000  N
  N66      1.0000 0.34750  0.23360  0.44220  Biso   1.000  N
  N67      1.0000 0.08660  0.15610  0.09420  Biso   1.000  N
  N68      1.0000 0.72470  0.02820  0.72990  Biso   1.000  N
  N69      1.0000 0.72040  0.81270  0.07930  Biso   1.000  N
  N70      1.0000 0.87460  0.98720  0.02840  Biso   1.000  N
  N71      1.0000 0.87740  0.03690  0.94270  Biso   1.000  N
  N72      1.0000 0.78890  0.95050  0.93660  Biso   1.000  N
  Ag13     1.0000 0.34423  0.04307  0.86706  Biso   1.000  Ag
  Ag14     1.0000 0.32195  0.74442  0.36659  Biso   1.000  Ag
  C217     1.0000 0.59760  0.52900  0.49930  Biso   1.000  C
  C218     1.0000 0.77710  0.36180  0.50850  Biso   1.000  C
  H145     1.0000 0.79800  0.36540  0.54860  Biso   1.000  H
  C219     1.0000 0.29740  0.91580  0.00400  Biso   1.000  C
  H146     1.0000 0.31960  0.91160  0.04400  Biso   1.000  H
  C220     1.0000 0.12330  0.74350  0.00070  Biso   1.000  C
  C221     1.0000 0.50340  0.61520  0.49480  Biso   1.000  C
  H147     1.0000 0.52290  0.61650  0.53500  Biso   1.000  H
  C222     1.0000 0.03280  0.68970  0.90960  Biso   1.000  C
  H148     1.0000 0.05400  0.71140  0.88820  Biso   1.000  H
  C223     1.0000 0.05960  0.69860  0.96820  Biso   1.000  C
  C224     1.0000 0.68160  0.44760  0.50560  Biso   1.000  C
  C225     1.0000 0.20940  0.77400  0.08600  Biso   1.000  C
  C226     1.0000 0.44420  0.65560  0.46320  Biso   1.000  C
  H149     1.0000 0.42460  0.68420  0.48340  Biso   1.000  H
  C227     1.0000 0.53330  0.57280  0.46540  Biso   1.000  C
  C228     1.0000 0.24260  0.76340  0.14970  Biso   1.000  C
  C229     1.0000 0.71990  0.34680  0.39070  Biso   1.000  C
  H150     1.0000 0.70000  0.34170  0.35070  Biso   1.000  H
  C230     1.0000 0.67930  0.54350  0.67980  Biso   1.000  C
  H151     1.0000 0.63500  0.56050  0.65970  Biso   1.000  H
  C231     1.0000 0.23550  0.87870  0.97370  Biso   1.000  C
  C232     1.0000 0.23550  0.93560  0.88750  Biso   1.000  C
  H152     1.0000 0.21420  0.94250  0.84750  Biso   1.000  H
  C233     1.0000 0.71450  0.39890  0.47640  Biso   1.000  C
  C234     1.0000 0.02560  0.66500  0.99800  Biso   1.000  C
  H153     1.0000 0.04280  0.66920  0.03810  Biso   1.000  H
  C235     1.0000 0.20480  0.82760  0.00330  Biso   1.000  C
  C236     1.0000 0.67970  0.49790  0.58620  Biso   1.000  C
  C237     1.0000 0.71220  0.50820  0.65060  Biso   1.000  C
  C238     1.0000 0.20390  0.89050  0.91380  Biso   1.000  C
  H154     1.0000 0.16180  0.86800  0.89200  Biso   1.000  H
  C239     1.0000 0.68610  0.39000  0.41720  Biso   1.000  C
  H155     1.0000 0.64440  0.41280  0.39480  Biso   1.000  H
  C240     1.0000 0.32520  0.95880  0.97330  Biso   1.000  C
  H156     1.0000 0.36750  0.98130  0.99380  Biso   1.000  H
  C241     1.0000 0.97310  0.64740  0.88280  Biso   1.000  C
  H157     1.0000 0.95590  0.63950  0.84300  Biso   1.000  H
  C242     1.0000 0.96720  0.62620  0.96770  Biso   1.000  C
  H158     1.0000 0.94500  0.60390  0.98810  Biso   1.000  H
  C243     1.0000 0.80610  0.49520  0.74100  Biso   1.000  C
  H159     1.0000 0.85030  0.47840  0.76190  Biso   1.000  H
  C244     1.0000 0.80660  0.31940  0.47810  Biso   1.000  C
  H160     1.0000 0.84770  0.29440  0.49920  Biso   1.000  H
  C245     1.0000 0.50220  0.57200  0.40570  Biso   1.000  C
  H161     1.0000 0.51990  0.54230  0.38460  Biso   1.000  H
  C246     1.0000 0.77790  0.48390  0.68200  Biso   1.000  C
  H162     1.0000 0.80230  0.46050  0.66390  Biso   1.000  H
  C247     1.0000 0.44430  0.61650  0.37820  Biso   1.000  C
  H163     1.0000 0.42540  0.61920  0.33800  Biso   1.000  H
  C248     1.0000 0.71180  0.55380  0.73880  Biso   1.000  C
  H164     1.0000 0.68910  0.57920  0.75770  Biso   1.000  H
  C249     1.0000 0.24500  0.70560  0.23560  Biso   1.000  C
  H165     1.0000 0.22570  0.67110  0.25300  Biso   1.000  H
  C250     1.0000 0.30210  0.80100  0.18320  Biso   1.000  C
  H166     1.0000 0.32460  0.83210  0.16670  Biso   1.000  H
  C251     1.0000 0.21460  0.71290  0.17650  Biso   1.000  C
  H167     1.0000 0.17570  0.68420  0.15470  Biso   1.000  H
  C252     1.0000 0.32740  0.79080  0.24250  Biso   1.000  C
  H168     1.0000 0.36660  0.81840  0.26530  Biso   1.000  H
  N73      1.0000 0.29550  0.97000  0.91660  Biso   1.000  N
  N74      1.0000 0.93940  0.61770  0.91070  Biso   1.000  N
  N75      1.0000 0.30050  0.74530  0.26930  Biso   1.000  N
  N76      1.0000 0.23750  0.82300  0.06130  Biso   1.000  N
  N77      1.0000 0.14780  0.78970  0.97110  Biso   1.000  N
  N78      1.0000 0.15250  0.73360  0.05780  Biso   1.000  N
  N79      1.0000 0.41340  0.65610  0.40580  Biso   1.000  N
  N80      1.0000 0.77530  0.52820  0.77010  Biso   1.000  N
  N81      1.0000 0.77960  0.31270  0.42070  Biso   1.000  N
  N82      1.0000 0.62540  0.48720  0.47160  Biso   1.000  N
  N83      1.0000 0.62260  0.53690  0.55730  Biso   1.000  N
  N84      1.0000 0.71110  0.45050  0.56340  Biso   1.000  N
  Ag15     1.0000 0.84423  0.54307  0.86706  Biso   1.000  Ag
  Ag16     1.0000 0.82195  0.24442  0.36659  Biso   1.000  Ag
  C253     1.0000 0.09760  0.02900  0.49930  Biso   1.000  C
  C254     1.0000 0.27710  0.86180  0.50850  Biso   1.000  C
  H169     1.0000 0.29800  0.86540  0.54860  Biso   1.000  H
  C255     1.0000 0.79740  0.41580  0.00400  Biso   1.000  C
  H170     1.0000 0.81960  0.41160  0.04400  Biso   1.000  H
  C256     1.0000 0.62330  0.24350  0.00070  Biso   1.000  C
  C257     1.0000 0.00340  0.11520  0.49480  Biso   1.000  C
  H171     1.0000 0.02290  0.11650  0.53500  Biso   1.000  H
  C258     1.0000 0.53280  0.18970  0.90960  Biso   1.000  C
  H172     1.0000 0.55400  0.21140  0.88820  Biso   1.000  H
  C259     1.0000 0.55960  0.19860  0.96820  Biso   1.000  C
  C260     1.0000 0.18160  0.94760  0.50560  Biso   1.000  C
  C261     1.0000 0.70940  0.27400  0.08600  Biso   1.000  C
  C262     1.0000 0.94420  0.15560  0.46320  Biso   1.000  C
  H173     1.0000 0.92460  0.18420  0.48340  Biso   1.000  H
  C263     1.0000 0.03330  0.07280  0.46540  Biso   1.000  C
  C264     1.0000 0.74260  0.26340  0.14970  Biso   1.000  C
  C265     1.0000 0.21990  0.84680  0.39070  Biso   1.000  C
  H174     1.0000 0.20000  0.84170  0.35070  Biso   1.000  H
  C266     1.0000 0.17930  0.04350  0.67980  Biso   1.000  C
  H175     1.0000 0.13500  0.06050  0.65970  Biso   1.000  H
  C267     1.0000 0.73550  0.37870  0.97370  Biso   1.000  C
  C268     1.0000 0.73550  0.43560  0.88750  Biso   1.000  C
  H176     1.0000 0.71420  0.44250  0.84750  Biso   1.000  H
  C269     1.0000 0.21450  0.89890  0.47640  Biso   1.000  C
  C270     1.0000 0.52560  0.16500  0.99800  Biso   1.000  C
  H177     1.0000 0.54280  0.16920  0.03810  Biso   1.000  H
  C271     1.0000 0.70480  0.32760  0.00330  Biso   1.000  C
  C272     1.0000 0.17970  0.99790  0.58620  Biso   1.000  C
  C273     1.0000 0.21220  0.00820  0.65060  Biso   1.000  C
  C274     1.0000 0.70390  0.39050  0.91380  Biso   1.000  C
  H178     1.0000 0.66180  0.36800  0.89200  Biso   1.000  H
  C275     1.0000 0.18610  0.89000  0.41720  Biso   1.000  C
  H179     1.0000 0.14440  0.91280  0.39480  Biso   1.000  H
  C276     1.0000 0.82520  0.45880  0.97330  Biso   1.000  C
  H180     1.0000 0.86750  0.48130  0.99380  Biso   1.000  H
  C277     1.0000 0.47310  0.14740  0.88280  Biso   1.000  C
  H181     1.0000 0.45590  0.13950  0.84300  Biso   1.000  H
  C278     1.0000 0.46720  0.12620  0.96770  Biso   1.000  C
  H182     1.0000 0.44500  0.10390  0.98810  Biso   1.000  H
  C279     1.0000 0.30610  0.99520  0.74100  Biso   1.000  C
  H183     1.0000 0.35030  0.97840  0.76190  Biso   1.000  H
  C280     1.0000 0.30660  0.81940  0.47810  Biso   1.000  C
  H184     1.0000 0.34770  0.79440  0.49920  Biso   1.000  H
  C281     1.0000 0.00220  0.07200  0.40570  Biso   1.000  C
  H185     1.0000 0.01990  0.04230  0.38460  Biso   1.000  H
  C282     1.0000 0.27790  0.98390  0.68200  Biso   1.000  C
  H186     1.0000 0.30230  0.96050  0.66390  Biso   1.000  H
  C283     1.0000 0.94430  0.11650  0.37820  Biso   1.000  C
  H187     1.0000 0.92540  0.11920  0.33800  Biso   1.000  H
  C284     1.0000 0.21180  0.05380  0.73880  Biso   1.000  C
  H188     1.0000 0.18910  0.07920  0.75770  Biso   1.000  H
  C285     1.0000 0.74500  0.20560  0.23560  Biso   1.000  C
  H189     1.0000 0.72570  0.17110  0.25300  Biso   1.000  H
  C286     1.0000 0.80210  0.30100  0.18320  Biso   1.000  C
  H190     1.0000 0.82460  0.33210  0.16670  Biso   1.000  H
  C287     1.0000 0.71460  0.21290  0.17650  Biso   1.000  C
  H191     1.0000 0.67570  0.18420  0.15470  Biso   1.000  H
  C288     1.0000 0.82740  0.29080  0.24250  Biso   1.000  C
  H192     1.0000 0.86660  0.31840  0.26530  Biso   1.000  H
  N85      1.0000 0.79550  0.47000  0.91660  Biso   1.000  N
  N86      1.0000 0.43940  0.11770  0.91070  Biso   1.000  N
  N87      1.0000 0.80050  0.24530  0.26930  Biso   1.000  N
  N88      1.0000 0.73750  0.32300  0.06130  Biso   1.000  N
  N89      1.0000 0.64780  0.28970  0.97110  Biso   1.000  N
  N90      1.0000 0.65250  0.23360  0.05780  Biso   1.000  N
  N91      1.0000 0.91340  0.15610  0.40580  Biso   1.000  N
  N92      1.0000 0.27530  0.02820  0.77010  Biso   1.000  N
  N93      1.0000 0.27960  0.81270  0.42070  Biso   1.000  N
  N94      1.0000 0.12540  0.98720  0.47160  Biso   1.000  N
  N95      1.0000 0.12260  0.03690  0.55730  Biso   1.000  N
  N96      1.0000 0.21110  0.95050  0.56340  Biso   1.000  N
