data_QOFKUT_clean
_audit_creation_date              2015-10-16
_audit_creation_method            'Materials Studio'
_symmetry_space_group_name_H-M    'P1'
_symmetry_Int_Tables_number       1
_symmetry_cell_setting            triclinic
loop_
_symmetry_equiv_pos_as_xyz
  x,y,z
_cell_length_a                    14.3319
_cell_length_b                    14.3319
_cell_length_c                    14.3319
_cell_angle_alpha                 108.9540
_cell_angle_beta                  108.9540
_cell_angle_gamma                 110.5100
loop_
_atom_site_label
_atom_site_type_symbol
_atom_site_fract_x
_atom_site_fract_y
_atom_site_fract_z
_atom_site_U_iso_or_equiv
_atom_site_adp_type
_atom_site_occupancy
Cu1    Cu    0.04851   0.56480   0.41197   0.01267  Uiso   1.00
Cu2    Cu    0.86346   0.45149   0.01629   0.01267  Uiso   1.00
Cu3    Cu    0.13654   0.54851   0.98371   0.01267  Uiso   1.00
Cu4    Cu    0.93520   0.84717   0.48371   0.01267  Uiso   1.00
Cu5    Cu    0.34717   0.36346   0.91197   0.01267  Uiso   1.00
Cu6    Cu    0.95149   0.43520   0.58803   0.01267  Uiso   1.00
Cu7    Cu    0.06480   0.15283   0.51629   0.01267  Uiso   1.00
Cu8    Cu    0.65283   0.63654   0.08803   0.01267  Uiso   1.00
H1     H     0.73260   0.79820   0.55200   0.01267  Uiso   1.00
H2     H     0.13520   0.03680   0.11860   0.01267  Uiso   1.00
H3     H     0.68060   0.23260   0.43440   0.01267  Uiso   1.00
H4     H     0.53680   0.91820   0.90160   0.01267  Uiso   1.00
H5     H     0.74620   0.18060   0.94800   0.01267  Uiso   1.00
H6     H     0.70030   0.12440   0.59970   0.01267  Uiso   1.00
H7     H     0.70180   0.75380   0.93440   0.01267  Uiso   1.00
H8     H     0.97530   0.89940   0.09970   0.01267  Uiso   1.00
H9     H     0.02470   0.10060   0.90030   0.01267  Uiso   1.00
H10    H     0.39940   0.79970   0.92410   0.01267  Uiso   1.00
H11    H     0.48340   0.36480   0.40160   0.01267  Uiso   1.00
H12    H     0.27330   0.99630   0.09640   0.01267  Uiso   1.00
H13    H     0.86480   0.96320   0.88140   0.01267  Uiso   1.00
H14    H     0.62440   0.52470   0.42410   0.01267  Uiso   1.00
H15    H     0.39990   0.17690   0.40360   0.01267  Uiso   1.00
H16    H     0.46320   0.08180   0.09840   0.01267  Uiso   1.00
H17    H     0.29970   0.87560   0.40030   0.01267  Uiso   1.00
H18    H     0.41820   0.01660   0.38140   0.01267  Uiso   1.00
H19    H     0.32310   0.22670   0.22300   0.01267  Uiso   1.00
H20    H     0.29820   0.24620   0.06560   0.01267  Uiso   1.00
H21    H     0.51660   0.63520   0.59840   0.01267  Uiso   1.00
H22    H     0.26740   0.20180   0.44800   0.01267  Uiso   1.00
H23    H     0.60060   0.20030   0.07590   0.01267  Uiso   1.00
H24    H     0.72670   0.00370   0.90360   0.01267  Uiso   1.00
H25    H     0.67690   0.77330   0.77700   0.01267  Uiso   1.00
H26    H     0.49630   0.89990   0.72300   0.01267  Uiso   1.00
H27    H     0.37560   0.47530   0.57590   0.01267  Uiso   1.00
H28    H     0.31940   0.76740   0.56560   0.01267  Uiso   1.00
H29    H     0.60010   0.82310   0.59640   0.01267  Uiso   1.00
H30    H     0.50370   0.10010   0.27700   0.01267  Uiso   1.00
H31    H     0.25380   0.81940   0.05200   0.01267  Uiso   1.00
H32    H     0.58180   0.98340   0.61860   0.01267  Uiso   1.00
C1     C     0.86430   0.42110   0.19620   0.01267  Uiso   1.00
C2     C     0.47650   0.37500   0.33930   0.01267  Uiso   1.00
C3     C     0.62150   0.70880   0.76970   0.01267  Uiso   1.00
C4     C     0.92110   0.22490   0.55680   0.01267  Uiso   1.00
C5     C     0.13570   0.57890   0.80380   0.01267  Uiso   1.00
C6     C     0.27310   0.70970   0.75680   0.01267  Uiso   1.00
C7     C     0.46430   0.86280   0.83930   0.01267  Uiso   1.00
C8     C     0.54710   0.48370   0.25680   0.01267  Uiso   1.00
C9     C     0.09950   0.74910   0.04780   0.01267  Uiso   1.00
C10    C     0.37850   0.29120   0.23030   0.01267  Uiso   1.00
C11    C     0.38790   0.43640   0.76470   0.01267  Uiso   1.00
C12    C     0.72690   0.29030   0.24320   0.01267  Uiso   1.00
C13    C     0.03000   0.88310   0.09010   0.01267  Uiso   1.00
C14    C     0.06360   0.32830   0.95150   0.01267  Uiso   1.00
C15    C     0.01630   0.77310   0.06340   0.01267  Uiso   1.00
C16    C     0.61210   0.56360   0.23530   0.01267  Uiso   1.00
C17    C     0.56090   0.14820   0.26970   0.01267  Uiso   1.00
C18    C     0.93640   0.67170   0.04850   0.01267  Uiso   1.00
C19    C     0.87500   0.03570   0.89850   0.01267  Uiso   1.00
C20    C     0.45290   0.51630   0.74320   0.01267  Uiso   1.00
C21    C     0.72670   0.86290   0.56100   0.01267  Uiso   1.00
C22    C     0.55170   0.59950   0.85040   0.01267  Uiso   1.00
C23    C     0.79120   0.06090   0.91270   0.01267  Uiso   1.00
C24    C     0.12500   0.96430   0.10150   0.01267  Uiso   1.00
C25    C     0.83190   0.63570   0.05680   0.01267  Uiso   1.00
C26    C     0.16810   0.36430   0.94320   0.01267  Uiso   1.00
C27    C     0.20880   0.93910   0.08730   0.01267  Uiso   1.00
C28    C     0.75090   0.29870   0.35040   0.01267  Uiso   1.00
C29    C     0.63720   0.97650   0.60150   0.01267  Uiso   1.00
C30    C     0.66570   0.22670   0.36380   0.01267  Uiso   1.00
C31    C     0.29300   0.93990   0.40990   0.01267  Uiso   1.00
C32    C     0.36290   0.30190   0.13620   0.01267  Uiso   1.00
C33    C     0.43990   0.53000   0.64690   0.01267  Uiso   1.00
C34    C     0.27510   0.33190   0.69620   0.01267  Uiso   1.00
C35    C     0.79870   0.94830   0.54780   0.01267  Uiso   1.00
C36    C     0.52350   0.62500   0.66070   0.01267  Uiso   1.00
C37    C     0.35180   0.12150   0.41270   0.01267  Uiso   1.00
C38    C     0.98370   0.22690   0.93660   0.01267  Uiso   1.00
C39    C     0.33430   0.77330   0.63620   0.01267  Uiso   1.00
C40    C     0.07890   0.77510   0.44320   0.01267  Uiso   1.00
C41    C     0.27330   0.13710   0.43900   0.01267  Uiso   1.00
C42    C     0.19810   0.83430   0.06100   0.01267  Uiso   1.00
C43    C     0.36280   0.02350   0.39850   0.01267  Uiso   1.00
C44    C     0.63710   0.69810   0.86380   0.01267  Uiso   1.00
C45    C     0.64820   0.87850   0.58730   0.01267  Uiso   1.00
C46    C     0.20970   0.95290   0.43660   0.01267  Uiso   1.00
C47    C     0.72490   0.66810   0.30380   0.01267  Uiso   1.00
C48    C     0.53570   0.13720   0.16070   0.01267  Uiso   1.00
C49    C     0.82830   0.37680   0.26470   0.01267  Uiso   1.00
C50    C     0.24910   0.70130   0.64960   0.01267  Uiso   1.00
C51    C     0.56010   0.47000   0.35310   0.01267  Uiso   1.00
C52    C     0.80190   0.16570   0.93900   0.01267  Uiso   1.00
C53    C     0.79030   0.04710   0.56340   0.01267  Uiso   1.00
C54    C     0.87680   0.11210   0.54850   0.01267  Uiso   1.00
C55    C     0.61690   0.20700   0.14690   0.01267  Uiso   1.00
C56    C     0.20130   0.05170   0.45220   0.01267  Uiso   1.00
C57    C     0.17170   0.62320   0.73530   0.01267  Uiso   1.00
C58    C     0.44830   0.40050   0.14960   0.01267  Uiso   1.00
C59    C     0.70700   0.06010   0.59010   0.01267  Uiso   1.00
C60    C     0.38310   0.79300   0.85310   0.01267  Uiso   1.00
C61    C     0.97000   0.11690   0.90990   0.01267  Uiso   1.00
C62    C     0.90050   0.25090   0.95220   0.01267  Uiso   1.00
C63    C     0.43910   0.85180   0.73030   0.01267  Uiso   1.00
C64    C     0.12320   0.88790   0.45150   0.01267  Uiso   1.00
N1     N     0.93010   0.05660   0.52350   0.01267  Uiso   1.00
N2     N     0.55660   0.53310   0.12650   0.01267  Uiso   1.00
N3     N     0.06990   0.94340   0.47650   0.01267  Uiso   1.00
N4     N     0.13800   0.61570   0.57070   0.01267  Uiso   1.00
N5     N     0.93270   0.36200   0.97770   0.01267  Uiso   1.00
N6     N     0.96690   0.59340   0.02350   0.01267  Uiso   1.00
N7     N     0.09340   0.56990   0.62650   0.01267  Uiso   1.00
N8     N     0.11570   0.04500   0.47770   0.01267  Uiso   1.00
N9     N     0.06730   0.63800   0.02230   0.01267  Uiso   1.00
N10    N     0.88430   0.95500   0.52230   0.01267  Uiso   1.00
N11    N     0.86200   0.38430   0.42930   0.01267  Uiso   1.00
N12    N     0.45500   0.43270   0.07070   0.01267  Uiso   1.00
N13    N     0.54500   0.56730   0.92930   0.01267  Uiso   1.00
N14    N     0.03310   0.40660   0.97650   0.01267  Uiso   1.00
N15    N     0.44340   0.46690   0.87350   0.01267  Uiso   1.00
N16    N     0.90660   0.43010   0.37350   0.01267  Uiso   1.00
O1     O     0.12962   0.72067   0.42867   0.01267  Uiso   1.00
O2     O     0.87038   0.27933   0.57133   0.01267  Uiso   1.00
O3     O     0.99059   0.73862   0.45283   0.01267  Uiso   1.00
O4     O     0.23862   0.28579   0.74803   0.01267  Uiso   1.00
O5     O     0.77933   0.70800   0.40895   0.01267  Uiso   1.00
O6     O     0.79200   0.70095   0.07133   0.01267  Uiso   1.00
O7     O     0.20800   0.29905   0.92867   0.01267  Uiso   1.00
O8     O     0.78579   0.53776   0.04717   0.01267  Uiso   1.00
O9     O     0.20095   0.62962   0.90895   0.01267  Uiso   1.00
O10    O     0.22067   0.29200   0.59105   0.01267  Uiso   1.00
O11    O     0.76138   0.71421   0.25197   0.01267  Uiso   1.00
O12    O     0.00941   0.26138   0.54717   0.01267  Uiso   1.00
O13    O     0.03776   0.49059   0.75197   0.01267  Uiso   1.00
O14    O     0.79905   0.37038   0.09105   0.01267  Uiso   1.00
O15    O     0.21421   0.46224   0.95283   0.01267  Uiso   1.00
O16    O     0.96224   0.50941   0.24803   0.01267  Uiso   1.00
