data_image0
_cell_length_a       9.5152
_cell_length_b       33.144
_cell_length_c       9.6569
_cell_angle_alpha    90
_cell_angle_beta     93.211
_cell_angle_gamma    90

_symmetry_space_group_name_H-M    "P 1"
_symmetry_int_tables_number       1

loop_
  _symmetry_equiv_pos_as_xyz
  'x, y, z'

loop_
  _atom_site_label
  _atom_site_occupancy
  _atom_site_fract_x
  _atom_site_fract_y
  _atom_site_fract_z
  _atom_site_thermal_displace_type
  _atom_site_B_iso_or_equiv
  _atom_site_type_symbol
  U1       1.0000 0.08050  0.24021  0.66336  Biso   1.000  U
  U2       1.0000 0.18149  0.24060  0.26670  Biso   1.000  U
  U3       1.0000 0.54940  0.00736  0.79980  Biso   1.000  U
  U4       1.0000 0.94924  0.00763  0.69537  Biso   1.000  U
  U5       1.0000 0.64402  0.13048  0.44288  Biso   1.000  U
  P1       1.0000 0.71160  0.02024  0.45870  Biso   1.000  P
  P2       1.0000 0.42820  0.22173  0.49490  Biso   1.000  P
  P3       1.0000 0.78500  0.02118  0.03870  Biso   1.000  P
  P4       1.0000 0.83190  0.23074  0.43290  Biso   1.000  P
  O1       1.0000 0.75900  0.25920  0.33130  Biso   1.000  O
  O2       1.0000 0.61610  0.98980  0.38440  Biso   1.000  O
  O3       1.0000 0.69910  0.01780  0.61790  Biso   1.000  O
  O4       1.0000 0.88300  0.99480  0.12660  Biso   1.000  O
  O5       1.0000 0.43580  0.23690  0.34490  Biso   1.000  O
  O6       1.0000 0.80200  0.01690  0.88280  Biso   1.000  O
  O7       1.0000 0.82810  0.24700  0.58390  Biso   1.000  O
  O8       1.0000 0.99440  0.23030  0.41500  Biso   1.000  O
  O9       1.0000 0.50310  0.25100  0.59390  Biso   1.000  O
  O10      1.0000 0.26540  0.22380  0.51260  Biso   1.000  O
  O11      1.0000 0.86810  0.00750  0.44840  Biso   1.000  O
  O12      1.0000 0.48030  0.17960  0.51210  Biso   1.000  O
  O13      1.0000 0.63170  0.00880  0.05200  Biso   1.000  O
  O14      1.0000 0.68540  0.06140  0.40500  Biso   1.000  O
  O15      1.0000 0.80800  0.06590  0.08040  Biso   1.000  O
  O16      1.0000 0.77080  0.18940  0.42120  Biso   1.000  O
  U6       1.0000 0.41950  0.74021  0.83664  Biso   1.000  U
  U7       1.0000 0.31851  0.74060  0.23330  Biso   1.000  U
  U8       1.0000 0.95060  0.50736  0.70020  Biso   1.000  U
  U9       1.0000 0.55076  0.50763  0.80463  Biso   1.000  U
  U10      1.0000 0.85598  0.63048  0.05712  Biso   1.000  U
  P5       1.0000 0.78840  0.52024  0.04130  Biso   1.000  P
  P6       1.0000 0.07180  0.72173  0.00510  Biso   1.000  P
  P7       1.0000 0.71500  0.52118  0.46130  Biso   1.000  P
  P8       1.0000 0.66810  0.73074  0.06710  Biso   1.000  P
  O17      1.0000 0.74100  0.75920  0.16870  Biso   1.000  O
  O18      1.0000 0.88390  0.48980  0.11560  Biso   1.000  O
  O19      1.0000 0.80090  0.51780  0.88210  Biso   1.000  O
  O20      1.0000 0.61700  0.49480  0.37340  Biso   1.000  O
  O21      1.0000 0.06420  0.73690  0.15510  Biso   1.000  O
  O22      1.0000 0.69800  0.51690  0.61720  Biso   1.000  O
  O23      1.0000 0.67190  0.74700  0.91610  Biso   1.000  O
  O24      1.0000 0.50560  0.73030  0.08500  Biso   1.000  O
  O25      1.0000 0.99690  0.75100  0.90610  Biso   1.000  O
  O26      1.0000 0.23460  0.72380  0.98740  Biso   1.000  O
  O27      1.0000 0.63190  0.50750  0.05160  Biso   1.000  O
  O28      1.0000 0.01970  0.67960  0.98790  Biso   1.000  O
  O29      1.0000 0.86830  0.50880  0.44800  Biso   1.000  O
  O30      1.0000 0.81460  0.56140  0.09500  Biso   1.000  O
  O31      1.0000 0.69200  0.56590  0.41960  Biso   1.000  O
  O32      1.0000 0.72920  0.68940  0.07880  Biso   1.000  O
  U11      1.0000 0.91950  0.75979  0.33664  Biso   1.000  U
  U12      1.0000 0.81851  0.75940  0.73330  Biso   1.000  U
  U13      1.0000 0.45060  0.99264  0.20020  Biso   1.000  U
  U14      1.0000 0.05076  0.99237  0.30463  Biso   1.000  U
  U15      1.0000 0.35598  0.86952  0.55712  Biso   1.000  U
  P9       1.0000 0.28840  0.97976  0.54130  Biso   1.000  P
  P10      1.0000 0.57180  0.77827  0.50510  Biso   1.000  P
  P11      1.0000 0.21500  0.97882  0.96130  Biso   1.000  P
  P12      1.0000 0.16810  0.76926  0.56710  Biso   1.000  P
  O33      1.0000 0.24100  0.74080  0.66870  Biso   1.000  O
  O34      1.0000 0.38390  0.01020  0.61560  Biso   1.000  O
  O35      1.0000 0.30090  0.98220  0.38210  Biso   1.000  O
  O36      1.0000 0.11700  0.00520  0.87340  Biso   1.000  O
  O37      1.0000 0.56420  0.76310  0.65510  Biso   1.000  O
  O38      1.0000 0.19800  0.98310  0.11720  Biso   1.000  O
  O39      1.0000 0.17190  0.75300  0.41610  Biso   1.000  O
  O40      1.0000 0.00560  0.76970  0.58500  Biso   1.000  O
  O41      1.0000 0.49690  0.74900  0.40610  Biso   1.000  O
  O42      1.0000 0.73460  0.77620  0.48740  Biso   1.000  O
  O43      1.0000 0.13190  0.99250  0.55160  Biso   1.000  O
  O44      1.0000 0.51970  0.82040  0.48790  Biso   1.000  O
  O45      1.0000 0.36830  0.99120  0.94800  Biso   1.000  O
  O46      1.0000 0.31460  0.93860  0.59500  Biso   1.000  O
  O47      1.0000 0.19200  0.93410  0.91960  Biso   1.000  O
  O48      1.0000 0.22920  0.81060  0.57880  Biso   1.000  O
  U16      1.0000 0.58050  0.25979  0.16336  Biso   1.000  U
  U17      1.0000 0.68149  0.25940  0.76670  Biso   1.000  U
  U18      1.0000 0.04940  0.49264  0.29980  Biso   1.000  U
  U19      1.0000 0.44924  0.49237  0.19537  Biso   1.000  U
  U20      1.0000 0.14402  0.36952  0.94288  Biso   1.000  U
  P13      1.0000 0.21160  0.47976  0.95870  Biso   1.000  P
  P14      1.0000 0.92820  0.27827  0.99490  Biso   1.000  P
  P15      1.0000 0.28500  0.47882  0.53870  Biso   1.000  P
  P16      1.0000 0.33190  0.26926  0.93290  Biso   1.000  P
  O49      1.0000 0.25900  0.24080  0.83130  Biso   1.000  O
  O50      1.0000 0.11610  0.51020  0.88440  Biso   1.000  O
  O51      1.0000 0.19910  0.48220  0.11790  Biso   1.000  O
  O52      1.0000 0.38300  0.50520  0.62660  Biso   1.000  O
  O53      1.0000 0.93580  0.26310  0.84490  Biso   1.000  O
  O54      1.0000 0.30200  0.48310  0.38280  Biso   1.000  O
  O55      1.0000 0.32810  0.25300  0.08390  Biso   1.000  O
  O56      1.0000 0.49440  0.26970  0.91500  Biso   1.000  O
  O57      1.0000 0.00310  0.24900  0.09390  Biso   1.000  O
  O58      1.0000 0.76540  0.27620  0.01260  Biso   1.000  O
  O59      1.0000 0.36810  0.49250  0.94840  Biso   1.000  O
  O60      1.0000 0.98030  0.32040  0.01210  Biso   1.000  O
  O61      1.0000 0.13170  0.49120  0.55200  Biso   1.000  O
  O62      1.0000 0.18540  0.43860  0.90500  Biso   1.000  O
  O63      1.0000 0.30800  0.43410  0.58040  Biso   1.000  O
  O64      1.0000 0.27080  0.31060  0.92120  Biso   1.000  O
