data_image0
_cell_length_a       13.35
_cell_length_b       13.35
_cell_length_c       17.843
_cell_angle_alpha    90
_cell_angle_beta     90
_cell_angle_gamma    120

_symmetry_space_group_name_H-M    "P 1"
_symmetry_int_tables_number       1

loop_
  _symmetry_equiv_pos_as_xyz
  'x, y, z'

loop_
  _atom_site_label
  _atom_site_occupancy
  _atom_site_fract_x
  _atom_site_fract_y
  _atom_site_fract_z
  _atom_site_thermal_displace_type
  _atom_site_B_iso_or_equiv
  _atom_site_type_symbol
  Ga1      1.0000 0.85886  0.29249  0.03983  Biso   1.000  Ga
  P1       1.0000 0.63163  0.12718  0.94623  Biso   1.000  P
  H1       1.0000 0.68800  0.18000  0.88430  Biso   1.000  H
  P2       1.0000 0.97445  0.16139  0.12923  Biso   1.000  P
  H2       1.0000 0.05400  0.25800  0.16000  Biso   1.000  H
  O1       1.0000 0.57140  0.99950  0.92690  Biso   1.000  O
  O2       1.0000 0.02800  0.13520  0.06080  Biso   1.000  O
  O3       1.0000 0.71900  0.15230  0.00820  Biso   1.000  O
  O4       1.0000 0.88190  0.19050  0.10760  Biso   1.000  O
  O5       1.0000 0.92560  0.06680  0.18810  Biso   1.000  O
  O6       1.0000 0.54840  0.17030  0.96380  Biso   1.000  O
  O7       1.0000 0.77460  0.32460  0.11730  Biso   1.000  O
  Ga2      1.0000 0.70751  0.56637  0.03983  Biso   1.000  Ga
  P3       1.0000 0.87282  0.50445  0.94623  Biso   1.000  P
  H3       1.0000 0.82000  0.50800  0.88430  Biso   1.000  H
  P4       1.0000 0.83861  0.81306  0.12923  Biso   1.000  P
  H4       1.0000 0.74200  0.79600  0.16000  Biso   1.000  H
  O8       1.0000 0.00050  0.57190  0.92690  Biso   1.000  O
  O9       1.0000 0.86480  0.89280  0.06080  Biso   1.000  O
  O10      1.0000 0.84770  0.56670  0.00820  Biso   1.000  O
  O11      1.0000 0.80950  0.69140  0.10760  Biso   1.000  O
  O12      1.0000 0.93320  0.85880  0.18810  Biso   1.000  O
  O13      1.0000 0.82970  0.37810  0.96380  Biso   1.000  O
  O14      1.0000 0.67540  0.45000  0.11730  Biso   1.000  O
  Ga3      1.0000 0.43363  0.14114  0.03983  Biso   1.000  Ga
  P5       1.0000 0.49555  0.36837  0.94623  Biso   1.000  P
  H5       1.0000 0.49200  0.31200  0.88430  Biso   1.000  H
  P6       1.0000 0.18694  0.02555  0.12923  Biso   1.000  P
  H6       1.0000 0.20400  0.94600  0.16000  Biso   1.000  H
  O15      1.0000 0.42810  0.42860  0.92690  Biso   1.000  O
  O16      1.0000 0.10720  0.97200  0.06080  Biso   1.000  O
  O17      1.0000 0.43330  0.28100  0.00820  Biso   1.000  O
  O18      1.0000 0.30860  0.11810  0.10760  Biso   1.000  O
  O19      1.0000 0.14120  0.07440  0.18810  Biso   1.000  O
  O20      1.0000 0.62190  0.45160  0.96380  Biso   1.000  O
  O21      1.0000 0.55000  0.22540  0.11730  Biso   1.000  O
  Ga4      1.0000 0.29249  0.85886  0.46017  Biso   1.000  Ga
  P7       1.0000 0.12718  0.63163  0.55377  Biso   1.000  P
  H7       1.0000 0.18000  0.68800  0.61570  Biso   1.000  H
  P8       1.0000 0.16139  0.97445  0.37077  Biso   1.000  P
  H8       1.0000 0.25800  0.05400  0.34000  Biso   1.000  H
  O22      1.0000 0.99950  0.57140  0.57310  Biso   1.000  O
  O23      1.0000 0.13520  0.02800  0.43920  Biso   1.000  O
  O24      1.0000 0.15230  0.71900  0.49180  Biso   1.000  O
  O25      1.0000 0.19050  0.88190  0.39240  Biso   1.000  O
  O26      1.0000 0.06680  0.92560  0.31190  Biso   1.000  O
  O27      1.0000 0.17030  0.54840  0.53620  Biso   1.000  O
  O28      1.0000 0.32460  0.77460  0.38270  Biso   1.000  O
  Ga5      1.0000 0.56637  0.70751  0.46017  Biso   1.000  Ga
  P9       1.0000 0.50445  0.87282  0.55377  Biso   1.000  P
  H9       1.0000 0.50800  0.82000  0.61570  Biso   1.000  H
  P10      1.0000 0.81306  0.83861  0.37077  Biso   1.000  P
  H10      1.0000 0.79600  0.74200  0.34000  Biso   1.000  H
  O29      1.0000 0.57190  0.00050  0.57310  Biso   1.000  O
  O30      1.0000 0.89280  0.86480  0.43920  Biso   1.000  O
  O31      1.0000 0.56670  0.84770  0.49180  Biso   1.000  O
  O32      1.0000 0.69140  0.80950  0.39240  Biso   1.000  O
  O33      1.0000 0.85880  0.93320  0.31190  Biso   1.000  O
  O34      1.0000 0.37810  0.82970  0.53620  Biso   1.000  O
  O35      1.0000 0.45000  0.67540  0.38270  Biso   1.000  O
  Ga6      1.0000 0.14114  0.43363  0.46017  Biso   1.000  Ga
  P11      1.0000 0.36837  0.49555  0.55377  Biso   1.000  P
  H11      1.0000 0.31200  0.49200  0.61570  Biso   1.000  H
  P12      1.0000 0.02555  0.18694  0.37077  Biso   1.000  P
  H12      1.0000 0.94600  0.20400  0.34000  Biso   1.000  H
  O36      1.0000 0.42860  0.42810  0.57310  Biso   1.000  O
  O37      1.0000 0.97200  0.10720  0.43920  Biso   1.000  O
  O38      1.0000 0.28100  0.43330  0.49180  Biso   1.000  O
  O39      1.0000 0.11810  0.30860  0.39240  Biso   1.000  O
  O40      1.0000 0.07440  0.14120  0.31190  Biso   1.000  O
  O41      1.0000 0.45160  0.62190  0.53620  Biso   1.000  O
  O42      1.0000 0.22540  0.55000  0.38270  Biso   1.000  O
  Ga7      1.0000 0.14114  0.70751  0.96017  Biso   1.000  Ga
  P13      1.0000 0.36837  0.87282  0.05377  Biso   1.000  P
  H13      1.0000 0.31200  0.82000  0.11570  Biso   1.000  H
  P14      1.0000 0.02555  0.83861  0.87077  Biso   1.000  P
  H14      1.0000 0.94600  0.74200  0.84000  Biso   1.000  H
  O43      1.0000 0.42860  0.00050  0.07310  Biso   1.000  O
  O44      1.0000 0.97200  0.86480  0.93920  Biso   1.000  O
  O45      1.0000 0.28100  0.84770  0.99180  Biso   1.000  O
  O46      1.0000 0.11810  0.80950  0.89240  Biso   1.000  O
  O47      1.0000 0.07440  0.93320  0.81190  Biso   1.000  O
  O48      1.0000 0.45160  0.82970  0.03620  Biso   1.000  O
  O49      1.0000 0.22540  0.67540  0.88270  Biso   1.000  O
  Ga8      1.0000 0.29249  0.43363  0.96017  Biso   1.000  Ga
  P15      1.0000 0.12718  0.49555  0.05377  Biso   1.000  P
  H15      1.0000 0.18000  0.49200  0.11570  Biso   1.000  H
  P16      1.0000 0.16139  0.18694  0.87077  Biso   1.000  P
  H16      1.0000 0.25800  0.20400  0.84000  Biso   1.000  H
  O50      1.0000 0.99950  0.42810  0.07310  Biso   1.000  O
  O51      1.0000 0.13520  0.10720  0.93920  Biso   1.000  O
  O52      1.0000 0.15230  0.43330  0.99180  Biso   1.000  O
  O53      1.0000 0.19050  0.30860  0.89240  Biso   1.000  O
  O54      1.0000 0.06680  0.14120  0.81190  Biso   1.000  O
  O55      1.0000 0.17030  0.62190  0.03620  Biso   1.000  O
  O56      1.0000 0.32460  0.55000  0.88270  Biso   1.000  O
  Ga9      1.0000 0.56637  0.85886  0.96017  Biso   1.000  Ga
  P17      1.0000 0.50445  0.63163  0.05377  Biso   1.000  P
  H17      1.0000 0.50800  0.68800  0.11570  Biso   1.000  H
  P18      1.0000 0.81306  0.97445  0.87077  Biso   1.000  P
  H18      1.0000 0.79600  0.05400  0.84000  Biso   1.000  H
  O57      1.0000 0.57190  0.57140  0.07310  Biso   1.000  O
  O58      1.0000 0.89280  0.02800  0.93920  Biso   1.000  O
  O59      1.0000 0.56670  0.71900  0.99180  Biso   1.000  O
  O60      1.0000 0.69140  0.88190  0.89240  Biso   1.000  O
  O61      1.0000 0.85880  0.92560  0.81190  Biso   1.000  O
  O62      1.0000 0.37810  0.54840  0.03620  Biso   1.000  O
  O63      1.0000 0.45000  0.77460  0.88270  Biso   1.000  O
  Ga10     1.0000 0.70751  0.14114  0.53983  Biso   1.000  Ga
  P19      1.0000 0.87282  0.36837  0.44623  Biso   1.000  P
  H19      1.0000 0.82000  0.31200  0.38430  Biso   1.000  H
  P20      1.0000 0.83861  0.02555  0.62923  Biso   1.000  P
  H20      1.0000 0.74200  0.94600  0.66000  Biso   1.000  H
  O64      1.0000 0.00050  0.42860  0.42690  Biso   1.000  O
  O65      1.0000 0.86480  0.97200  0.56080  Biso   1.000  O
  O66      1.0000 0.84770  0.28100  0.50820  Biso   1.000  O
  O67      1.0000 0.80950  0.11810  0.60760  Biso   1.000  O
  O68      1.0000 0.93320  0.07440  0.68810  Biso   1.000  O
  O69      1.0000 0.82970  0.45160  0.46380  Biso   1.000  O
  O70      1.0000 0.67540  0.22540  0.61730  Biso   1.000  O
  Ga11     1.0000 0.43363  0.29249  0.53983  Biso   1.000  Ga
  P21      1.0000 0.49555  0.12718  0.44623  Biso   1.000  P
  H21      1.0000 0.49200  0.18000  0.38430  Biso   1.000  H
  P22      1.0000 0.18694  0.16139  0.62923  Biso   1.000  P
  H22      1.0000 0.20400  0.25800  0.66000  Biso   1.000  H
  O71      1.0000 0.42810  0.99950  0.42690  Biso   1.000  O
  O72      1.0000 0.10720  0.13520  0.56080  Biso   1.000  O
  O73      1.0000 0.43330  0.15230  0.50820  Biso   1.000  O
  O74      1.0000 0.30860  0.19050  0.60760  Biso   1.000  O
  O75      1.0000 0.14120  0.06680  0.68810  Biso   1.000  O
  O76      1.0000 0.62190  0.17030  0.46380  Biso   1.000  O
  O77      1.0000 0.55000  0.32460  0.61730  Biso   1.000  O
  Ga12     1.0000 0.85886  0.56637  0.53983  Biso   1.000  Ga
  P23      1.0000 0.63163  0.50445  0.44623  Biso   1.000  P
  H23      1.0000 0.68800  0.50800  0.38430  Biso   1.000  H
  P24      1.0000 0.97445  0.81306  0.62923  Biso   1.000  P
  H24      1.0000 0.05400  0.79600  0.66000  Biso   1.000  H
  O78      1.0000 0.57140  0.57190  0.42690  Biso   1.000  O
  O79      1.0000 0.02800  0.89280  0.56080  Biso   1.000  O
  O80      1.0000 0.71900  0.56670  0.50820  Biso   1.000  O
  O81      1.0000 0.88190  0.69140  0.60760  Biso   1.000  O
  O82      1.0000 0.92560  0.85880  0.68810  Biso   1.000  O
  O83      1.0000 0.54840  0.37810  0.46380  Biso   1.000  O
  O84      1.0000 0.77460  0.45000  0.61730  Biso   1.000  O
  Ga13     1.0000 0.00000  0.00000  0.25000  Biso   1.000  Ga
  Ga14     1.0000 0.00000  0.00000  0.75000  Biso   1.000  Ga
  Ga15     1.0000 0.00000  0.00000  0.00000  Biso   1.000  Ga
  Ga16     1.0000 0.00000  0.00000  0.50000  Biso   1.000  Ga
  P25      1.0000 0.66667  0.33333  0.13770  Biso   1.000  P
  H25      1.0000 0.66667  0.33333  0.21100  Biso   1.000  H
  P26      1.0000 0.33333  0.66667  0.36230  Biso   1.000  P
  H26      1.0000 0.33333  0.66667  0.28900  Biso   1.000  H
  P27      1.0000 0.33333  0.66667  0.86230  Biso   1.000  P
  H27      1.0000 0.33333  0.66667  0.78900  Biso   1.000  H
  P28      1.0000 0.66667  0.33333  0.63770  Biso   1.000  P
  H28      1.0000 0.66667  0.33333  0.71100  Biso   1.000  H
