data_QOHTUD_clean
_audit_creation_date              2014-07-02
_audit_creation_method            'Materials Studio'
_symmetry_space_group_name_H-M    'P1'
_symmetry_Int_Tables_number       1
_symmetry_cell_setting            triclinic
loop_
_symmetry_equiv_pos_as_xyz
  x,y,z
_cell_length_a                    9.4044
_cell_length_b                    13.1257
_cell_length_c                    19.8899
_cell_angle_alpha                 109.2660
_cell_angle_beta                  102.4660
_cell_angle_gamma                 90.0000
loop_
_atom_site_label
_atom_site_type_symbol
_atom_site_fract_x
_atom_site_fract_y
_atom_site_fract_z
_atom_site_U_iso_or_equiv
_atom_site_adp_type
_atom_site_occupancy
Co1    Co    0.17572   0.14290   0.72502   0.01267  Uiso   1.00
Co2    Co    0.32428   0.41788   0.27498   0.01267  Uiso   1.00
Co3    Co    0.82428   0.85710   0.27498   0.01267  Uiso   1.00
Co4    Co    0.67572   0.58212   0.72502   0.01267  Uiso   1.00
H1     H     0.85930   0.17540   0.74240   0.01267  Uiso   1.00
H2     H     0.62350   0.13220   0.67580   0.01267  Uiso   1.00
H3     H     0.77980   0.97950   0.49780   0.01267  Uiso   1.00
H4     H     0.01030   0.02680   0.56960   0.01267  Uiso   1.00
H5     H     0.15040   0.23030   0.88700   0.01267  Uiso   1.00
H6     H     0.08760   0.17390   0.97460   0.01267  Uiso   1.00
H7     H     0.02130   0.87230   0.83180   0.01267  Uiso   1.00
H8     H     0.07860   0.93730   0.74680   0.01267  Uiso   1.00
H9     H     0.44680   0.04370   0.56180   0.01267  Uiso   1.00
H10    H     0.98090   0.89690   0.95080   0.01267  Uiso   1.00
H11    H     0.44150   0.30970   0.58160   0.01267  Uiso   1.00
H12    H     0.16060   0.21200   0.52080   0.01267  Uiso   1.00
H13    H     0.05980   0.21220   0.39460   0.01267  Uiso   1.00
H14    H     0.34590   0.29780   0.45300   0.01267  Uiso   1.00
H15    H     0.64070   0.43300   0.25760   0.01267  Uiso   1.00
H16    H     0.87650   0.45640   0.32420   0.01267  Uiso   1.00
H17    H     0.72020   0.48170   0.50220   0.01267  Uiso   1.00
H18    H     0.48970   0.45720   0.43040   0.01267  Uiso   1.00
H19    H     0.34960   0.34330   0.11300   0.01267  Uiso   1.00
H20    H     0.41240   0.19930   0.02540   0.01267  Uiso   1.00
H21    H     0.47870   0.04050   0.16820   0.01267  Uiso   1.00
H22    H     0.42140   0.19050   0.25320   0.01267  Uiso   1.00
H23    H     0.05320   0.48190   0.43820   0.01267  Uiso   1.00
H24    H     0.51910   0.94610   0.04920   0.01267  Uiso   1.00
H25    H     0.05850   0.72810   0.41840   0.01267  Uiso   1.00
H26    H     0.33940   0.69120   0.47920   0.01267  Uiso   1.00
H27    H     0.44020   0.81760   0.60540   0.01267  Uiso   1.00
H28    H     0.15410   0.84480   0.54700   0.01267  Uiso   1.00
H29    H     0.14070   0.82460   0.25760   0.01267  Uiso   1.00
H30    H     0.37650   0.86780   0.32420   0.01267  Uiso   1.00
H31    H     0.22020   0.02050   0.50220   0.01267  Uiso   1.00
H32    H     0.98970   0.97320   0.43040   0.01267  Uiso   1.00
H33    H     0.84960   0.76970   0.11300   0.01267  Uiso   1.00
H34    H     0.91240   0.82610   0.02540   0.01267  Uiso   1.00
H35    H     0.97870   0.12770   0.16820   0.01267  Uiso   1.00
H36    H     0.92140   0.06270   0.25320   0.01267  Uiso   1.00
H37    H     0.55320   0.95630   0.43820   0.01267  Uiso   1.00
H38    H     0.01910   0.10310   0.04920   0.01267  Uiso   1.00
H39    H     0.55850   0.69030   0.41840   0.01267  Uiso   1.00
H40    H     0.83940   0.78800   0.47920   0.01267  Uiso   1.00
H41    H     0.94020   0.78780   0.60540   0.01267  Uiso   1.00
H42    H     0.65410   0.70220   0.54700   0.01267  Uiso   1.00
H43    H     0.35930   0.56700   0.74240   0.01267  Uiso   1.00
H44    H     0.12350   0.54360   0.67580   0.01267  Uiso   1.00
H45    H     0.27980   0.51830   0.49780   0.01267  Uiso   1.00
H46    H     0.51030   0.54280   0.56960   0.01267  Uiso   1.00
H47    H     0.65040   0.65670   0.88700   0.01267  Uiso   1.00
H48    H     0.58760   0.80070   0.97460   0.01267  Uiso   1.00
H49    H     0.52130   0.95950   0.83180   0.01267  Uiso   1.00
H50    H     0.57860   0.80950   0.74680   0.01267  Uiso   1.00
H51    H     0.94680   0.51810   0.56180   0.01267  Uiso   1.00
H52    H     0.48090   0.05390   0.95080   0.01267  Uiso   1.00
H53    H     0.94150   0.27190   0.58160   0.01267  Uiso   1.00
H54    H     0.66060   0.30880   0.52080   0.01267  Uiso   1.00
H55    H     0.55980   0.18240   0.39460   0.01267  Uiso   1.00
H56    H     0.84590   0.15520   0.45300   0.01267  Uiso   1.00
C1     C     0.84240   0.13534   0.69228   0.01267  Uiso   1.00
C2     C     0.70080   0.10973   0.65266   0.01267  Uiso   1.00
C3     C     0.67120   0.05040   0.57814   0.01267  Uiso   1.00
C4     C     0.79310   0.01966   0.54772   0.01267  Uiso   1.00
C5     C     0.93060   0.04846   0.59112   0.01267  Uiso   1.00
C6     C     0.12260   0.15651   0.87522   0.01267  Uiso   1.00
C7     C     0.08570   0.12323   0.92826   0.01267  Uiso   1.00
C8     C     0.04590   0.01562   0.91364   0.01267  Uiso   1.00
C9     C     0.04600   0.94665   0.84450   0.01267  Uiso   1.00
C10    C     0.08190   0.98616   0.79392   0.01267  Uiso   1.00
C11    C     0.52080   0.02434   0.53588   0.01267  Uiso   1.00
C12    C     0.00410   0.97208   0.96656   0.01267  Uiso   1.00
C13    C     0.33920   0.25281   0.64806   0.01267  Uiso   1.00
C14    C     0.35380   0.27492   0.58112   0.01267  Uiso   1.00
C15    C     0.24730   0.24738   0.52052   0.01267  Uiso   1.00
C16    C     0.15650   0.28292   0.33284   0.01267  Uiso   1.00
C17    C     0.14680   0.24897   0.39614   0.01267  Uiso   1.00
C18    C     0.25620   0.26828   0.45460   0.01267  Uiso   1.00
C19    C     0.65760   0.44306   0.30772   0.01267  Uiso   1.00
C20    C     0.79920   0.45707   0.34734   0.01267  Uiso   1.00
C21    C     0.82880   0.47226   0.42186   0.01267  Uiso   1.00
C22    C     0.70690   0.47194   0.45228   0.01267  Uiso   1.00
C23    C     0.56940   0.45734   0.40888   0.01267  Uiso   1.00
C24    C     0.37740   0.28129   0.12478   0.01267  Uiso   1.00
C25    C     0.41430   0.19497   0.07174   0.01267  Uiso   1.00
C26    C     0.45410   0.10198   0.08636   0.01267  Uiso   1.00
C27    C     0.45400   0.10215   0.15550   0.01267  Uiso   1.00
C28    C     0.41810   0.19224   0.20608   0.01267  Uiso   1.00
C29    C     0.97920   0.48846   0.46412   0.01267  Uiso   1.00
C30    C     0.49590   0.00552   0.03344   0.01267  Uiso   1.00
C31    C     0.16080   0.60475   0.35194   0.01267  Uiso   1.00
C32    C     0.14620   0.69380   0.41888   0.01267  Uiso   1.00
C33    C     0.25270   0.72686   0.47948   0.01267  Uiso   1.00
C34    C     0.34350   0.95008   0.66716   0.01267  Uiso   1.00
C35    C     0.35320   0.85283   0.60386   0.01267  Uiso   1.00
C36    C     0.24380   0.81368   0.54540   0.01267  Uiso   1.00
C37    C     0.15760   0.86466   0.30772   0.01267  Uiso   1.00
C38    C     0.29920   0.89027   0.34734   0.01267  Uiso   1.00
C39    C     0.32880   0.94960   0.42186   0.01267  Uiso   1.00
C40    C     0.20690   0.98034   0.45228   0.01267  Uiso   1.00
C41    C     0.06940   0.95154   0.40888   0.01267  Uiso   1.00
C42    C     0.87740   0.84349   0.12478   0.01267  Uiso   1.00
C43    C     0.91430   0.87677   0.07174   0.01267  Uiso   1.00
C44    C     0.95410   0.98438   0.08636   0.01267  Uiso   1.00
C45    C     0.95400   0.05335   0.15550   0.01267  Uiso   1.00
C46    C     0.91810   0.01384   0.20608   0.01267  Uiso   1.00
C47    C     0.47920   0.97566   0.46412   0.01267  Uiso   1.00
C48    C     0.99590   0.02792   0.03344   0.01267  Uiso   1.00
C49    C     0.66080   0.74719   0.35194   0.01267  Uiso   1.00
C50    C     0.64620   0.72508   0.41888   0.01267  Uiso   1.00
C51    C     0.75270   0.75262   0.47948   0.01267  Uiso   1.00
C52    C     0.84350   0.71708   0.66716   0.01267  Uiso   1.00
C53    C     0.85320   0.75103   0.60386   0.01267  Uiso   1.00
C54    C     0.74380   0.73172   0.54540   0.01267  Uiso   1.00
C55    C     0.34240   0.55694   0.69228   0.01267  Uiso   1.00
C56    C     0.20080   0.54293   0.65266   0.01267  Uiso   1.00
C57    C     0.17120   0.52774   0.57814   0.01267  Uiso   1.00
C58    C     0.29310   0.52806   0.54772   0.01267  Uiso   1.00
C59    C     0.43060   0.54266   0.59112   0.01267  Uiso   1.00
C60    C     0.62260   0.71871   0.87522   0.01267  Uiso   1.00
C61    C     0.58570   0.80503   0.92826   0.01267  Uiso   1.00
C62    C     0.54590   0.89802   0.91364   0.01267  Uiso   1.00
C63    C     0.54600   0.89785   0.84450   0.01267  Uiso   1.00
C64    C     0.58190   0.80776   0.79392   0.01267  Uiso   1.00
C65    C     0.02080   0.51154   0.53588   0.01267  Uiso   1.00
C66    C     0.50410   0.99448   0.96656   0.01267  Uiso   1.00
C67    C     0.83920   0.39525   0.64806   0.01267  Uiso   1.00
C68    C     0.85380   0.30620   0.58112   0.01267  Uiso   1.00
C69    C     0.74730   0.27314   0.52052   0.01267  Uiso   1.00
C70    C     0.65650   0.04992   0.33284   0.01267  Uiso   1.00
C71    C     0.64680   0.14717   0.39614   0.01267  Uiso   1.00
C72    C     0.75620   0.18632   0.45460   0.01267  Uiso   1.00
N1     N     0.95820   0.10592   0.66276   0.01267  Uiso   1.00
N2     N     0.12110   0.09006   0.80810   0.01267  Uiso   1.00
N3     N     0.54180   0.44316   0.33724   0.01267  Uiso   1.00
N4     N     0.37890   0.28196   0.19190   0.01267  Uiso   1.00
N5     N     0.04180   0.89408   0.33724   0.01267  Uiso   1.00
N6     N     0.87890   0.90994   0.19190   0.01267  Uiso   1.00
N7     N     0.45820   0.55684   0.66276   0.01267  Uiso   1.00
N8     N     0.62110   0.71804   0.80810   0.01267  Uiso   1.00
O1     O     0.23120   0.19241   0.64374   0.01267  Uiso   1.00
O2     O     0.43850   0.29466   0.70520   0.01267  Uiso   1.00
O3     O     0.27940   0.32141   0.33264   0.01267  Uiso   1.00
O4     O     0.04020   0.27510   0.28526   0.01267  Uiso   1.00
O5     O     0.26880   0.54867   0.35626   0.01267  Uiso   1.00
O6     O     0.06150   0.58946   0.29480   0.01267  Uiso   1.00
O7     O     0.22060   0.98877   0.66736   0.01267  Uiso   1.00
O8     O     0.45980   0.98984   0.71474   0.01267  Uiso   1.00
O9     O     0.76880   0.80759   0.35626   0.01267  Uiso   1.00
O10    O     0.56150   0.70534   0.29480   0.01267  Uiso   1.00
O11    O     0.72060   0.67859   0.66736   0.01267  Uiso   1.00
O12    O     0.95980   0.72490   0.71474   0.01267  Uiso   1.00
O13    O     0.73120   0.45133   0.64374   0.01267  Uiso   1.00
O14    O     0.93850   0.41054   0.70520   0.01267  Uiso   1.00
O15    O     0.77940   0.01123   0.33264   0.01267  Uiso   1.00
O16    O     0.54020   0.01016   0.28526   0.01267  Uiso   1.00
