data_image0
_cell_length_a       12.4818
_cell_length_b       21.763
_cell_length_c       16.509
_cell_angle_alpha    90
_cell_angle_beta     103.577
_cell_angle_gamma    90

_symmetry_space_group_name_H-M    "P 1"
_symmetry_int_tables_number       1

loop_
  _symmetry_equiv_pos_as_xyz
  'x, y, z'

loop_
  _atom_site_label
  _atom_site_occupancy
  _atom_site_fract_x
  _atom_site_fract_y
  _atom_site_fract_z
  _atom_site_thermal_displace_type
  _atom_site_B_iso_or_equiv
  _atom_site_type_symbol
  Ce1      1.0000 0.97106  0.95262  0.09979  Biso   1.000  Ce
  O1       1.0000 0.82180  0.94160  0.97700  Biso   1.000  O
  O2       1.0000 0.86930  0.97660  0.86250  Biso   1.000  O
  O3       1.0000 0.84310  0.04450  0.10890  Biso   1.000  O
  O4       1.0000 0.92550  0.06210  0.00820  Biso   1.000  O
  O5       1.0000 0.84670  0.91210  0.17530  Biso   1.000  O
  O6       1.0000 0.87910  0.89340  0.31030  Biso   1.000  O
  H1       1.0000 0.94250  0.02620  0.23420  Biso   1.000  H
  C1       1.0000 0.79980  0.95670  0.90190  Biso   1.000  C
  C2       1.0000 0.68090  0.95350  0.85490  Biso   1.000  C
  C3       1.0000 0.59860  0.95150  0.90070  Biso   1.000  C
  H2       1.0000 0.61820  0.95070  0.95860  Biso   1.000  H
  C4       1.0000 0.48980  0.95080  0.85930  Biso   1.000  C
  H3       1.0000 0.43580  0.95000  0.88960  Biso   1.000  H
  C5       1.0000 0.45870  0.95120  0.77270  Biso   1.000  C
  C6       1.0000 0.65330  0.95260  0.77170  Biso   1.000  C
  H4       1.0000 0.70850  0.95280  0.74230  Biso   1.000  H
  C7       1.0000 0.86370  0.07900  0.05560  Biso   1.000  C
  C8       1.0000 0.81380  0.14250  0.04350  Biso   1.000  C
  C9       1.0000 0.82440  0.17980  0.97990  Biso   1.000  C
  H5       1.0000 0.86320  0.16570  0.94190  Biso   1.000  H
  C10      1.0000 0.77880  0.23870  0.97010  Biso   1.000  C
  C11      1.0000 0.70930  0.22100  0.09430  Biso   1.000  C
  H6       1.0000 0.66960  0.23410  0.13230  Biso   1.000  H
  C12      1.0000 0.75430  0.16310  0.10260  Biso   1.000  C
  H7       1.0000 0.74620  0.13770  0.14600  Biso   1.000  H
  C13      1.0000 0.81610  0.90060  0.24080  Biso   1.000  C
  C14      1.0000 0.64940  0.89300  0.29780  Biso   1.000  C
  H8       1.0000 0.69570  0.89200  0.35090  Biso   1.000  H
  C15      1.0000 0.69380  0.89490  0.23110  Biso   1.000  C
  C16      1.0000 0.62430  0.89560  0.15150  Biso   1.000  C
  H9       1.0000 0.65390  0.89800  0.10500  Biso   1.000  H
  C17      1.0000 0.51310  0.89270  0.14190  Biso   1.000  C
  H10      1.0000 0.46760  0.89090  0.08860  Biso   1.000  H
  C18      1.0000 0.46590  0.89250  0.21060  Biso   1.000  C
  Ce2      1.0000 0.47106  0.45262  0.09979  Biso   1.000  Ce
  O7       1.0000 0.32180  0.44160  0.97700  Biso   1.000  O
  O8       1.0000 0.36930  0.47660  0.86250  Biso   1.000  O
  O9       1.0000 0.34310  0.54450  0.10890  Biso   1.000  O
  O10      1.0000 0.42550  0.56210  0.00820  Biso   1.000  O
  O11      1.0000 0.34670  0.41210  0.17530  Biso   1.000  O
  O12      1.0000 0.37910  0.39340  0.31030  Biso   1.000  O
  H11      1.0000 0.44250  0.52620  0.23420  Biso   1.000  H
  C19      1.0000 0.29980  0.45670  0.90190  Biso   1.000  C
  C20      1.0000 0.18090  0.45350  0.85490  Biso   1.000  C
  C21      1.0000 0.09860  0.45150  0.90070  Biso   1.000  C
  H12      1.0000 0.11820  0.45070  0.95860  Biso   1.000  H
  C22      1.0000 0.98980  0.45080  0.85930  Biso   1.000  C
  H13      1.0000 0.93580  0.45000  0.88960  Biso   1.000  H
  C23      1.0000 0.95870  0.45120  0.77270  Biso   1.000  C
  C24      1.0000 0.15330  0.45260  0.77170  Biso   1.000  C
  H14      1.0000 0.20850  0.45280  0.74230  Biso   1.000  H
  C25      1.0000 0.36370  0.57900  0.05560  Biso   1.000  C
  C26      1.0000 0.31380  0.64250  0.04350  Biso   1.000  C
  C27      1.0000 0.32440  0.67980  0.97990  Biso   1.000  C
  H15      1.0000 0.36320  0.66570  0.94190  Biso   1.000  H
  C28      1.0000 0.27880  0.73870  0.97010  Biso   1.000  C
  C29      1.0000 0.20930  0.72100  0.09430  Biso   1.000  C
  H16      1.0000 0.16960  0.73410  0.13230  Biso   1.000  H
  C30      1.0000 0.25430  0.66310  0.10260  Biso   1.000  C
  H17      1.0000 0.24620  0.63770  0.14600  Biso   1.000  H
  C31      1.0000 0.31610  0.40060  0.24080  Biso   1.000  C
  C32      1.0000 0.14940  0.39300  0.29780  Biso   1.000  C
  H18      1.0000 0.19570  0.39200  0.35090  Biso   1.000  H
  C33      1.0000 0.19380  0.39490  0.23110  Biso   1.000  C
  C34      1.0000 0.12430  0.39560  0.15150  Biso   1.000  C
  H19      1.0000 0.15390  0.39800  0.10500  Biso   1.000  H
  C35      1.0000 0.01310  0.39270  0.14190  Biso   1.000  C
  H20      1.0000 0.96760  0.39090  0.08860  Biso   1.000  H
  C36      1.0000 0.96590  0.39250  0.21060  Biso   1.000  C
  Ce3      1.0000 0.02894  0.95262  0.40021  Biso   1.000  Ce
  O13      1.0000 0.17820  0.94160  0.52300  Biso   1.000  O
  O14      1.0000 0.13070  0.97660  0.63750  Biso   1.000  O
  O15      1.0000 0.15690  0.04450  0.39110  Biso   1.000  O
  O16      1.0000 0.07450  0.06210  0.49180  Biso   1.000  O
  O17      1.0000 0.15330  0.91210  0.32470  Biso   1.000  O
  O18      1.0000 0.12090  0.89340  0.18970  Biso   1.000  O
  H21      1.0000 0.05750  0.02620  0.26580  Biso   1.000  H
  C37      1.0000 0.20020  0.95670  0.59810  Biso   1.000  C
  C38      1.0000 0.31910  0.95350  0.64510  Biso   1.000  C
  C39      1.0000 0.40140  0.95150  0.59930  Biso   1.000  C
  H22      1.0000 0.38180  0.95070  0.54140  Biso   1.000  H
  C40      1.0000 0.51020  0.95080  0.64070  Biso   1.000  C
  H23      1.0000 0.56420  0.95000  0.61040  Biso   1.000  H
  C41      1.0000 0.54130  0.95120  0.72730  Biso   1.000  C
  C42      1.0000 0.34670  0.95260  0.72830  Biso   1.000  C
  H24      1.0000 0.29150  0.95280  0.75770  Biso   1.000  H
  C43      1.0000 0.13630  0.07900  0.44440  Biso   1.000  C
  C44      1.0000 0.18620  0.14250  0.45650  Biso   1.000  C
  C45      1.0000 0.17560  0.17980  0.52010  Biso   1.000  C
  H25      1.0000 0.13680  0.16570  0.55810  Biso   1.000  H
  C46      1.0000 0.22120  0.23870  0.52990  Biso   1.000  C
  C47      1.0000 0.29070  0.22100  0.40570  Biso   1.000  C
  H26      1.0000 0.33040  0.23410  0.36770  Biso   1.000  H
  C48      1.0000 0.24570  0.16310  0.39740  Biso   1.000  C
  H27      1.0000 0.25380  0.13770  0.35400  Biso   1.000  H
  C49      1.0000 0.18390  0.90060  0.25920  Biso   1.000  C
  C50      1.0000 0.35060  0.89300  0.20220  Biso   1.000  C
  H28      1.0000 0.30430  0.89200  0.14910  Biso   1.000  H
  C51      1.0000 0.30620  0.89490  0.26890  Biso   1.000  C
  C52      1.0000 0.37570  0.89560  0.34850  Biso   1.000  C
  H29      1.0000 0.34610  0.89800  0.39500  Biso   1.000  H
  C53      1.0000 0.48690  0.89270  0.35810  Biso   1.000  C
  H30      1.0000 0.53240  0.89090  0.41140  Biso   1.000  H
  C54      1.0000 0.53410  0.89250  0.28940  Biso   1.000  C
  Ce4      1.0000 0.52894  0.45262  0.40021  Biso   1.000  Ce
  O19      1.0000 0.67820  0.44160  0.52300  Biso   1.000  O
  O20      1.0000 0.63070  0.47660  0.63750  Biso   1.000  O
  O21      1.0000 0.65690  0.54450  0.39110  Biso   1.000  O
  O22      1.0000 0.57450  0.56210  0.49180  Biso   1.000  O
  O23      1.0000 0.65330  0.41210  0.32470  Biso   1.000  O
  O24      1.0000 0.62090  0.39340  0.18970  Biso   1.000  O
  H31      1.0000 0.55750  0.52620  0.26580  Biso   1.000  H
  C55      1.0000 0.70020  0.45670  0.59810  Biso   1.000  C
  C56      1.0000 0.81910  0.45350  0.64510  Biso   1.000  C
  C57      1.0000 0.90140  0.45150  0.59930  Biso   1.000  C
  H32      1.0000 0.88180  0.45070  0.54140  Biso   1.000  H
  C58      1.0000 0.01020  0.45080  0.64070  Biso   1.000  C
  H33      1.0000 0.06420  0.45000  0.61040  Biso   1.000  H
  C59      1.0000 0.04130  0.45120  0.72730  Biso   1.000  C
  C60      1.0000 0.84670  0.45260  0.72830  Biso   1.000  C
  H34      1.0000 0.79150  0.45280  0.75770  Biso   1.000  H
  C61      1.0000 0.63630  0.57900  0.44440  Biso   1.000  C
  C62      1.0000 0.68620  0.64250  0.45650  Biso   1.000  C
  C63      1.0000 0.67560  0.67980  0.52010  Biso   1.000  C
  H35      1.0000 0.63680  0.66570  0.55810  Biso   1.000  H
  C64      1.0000 0.72120  0.73870  0.52990  Biso   1.000  C
  C65      1.0000 0.79070  0.72100  0.40570  Biso   1.000  C
  H36      1.0000 0.83040  0.73410  0.36770  Biso   1.000  H
  C66      1.0000 0.74570  0.66310  0.39740  Biso   1.000  C
  H37      1.0000 0.75380  0.63770  0.35400  Biso   1.000  H
  C67      1.0000 0.68390  0.40060  0.25920  Biso   1.000  C
  C68      1.0000 0.85060  0.39300  0.20220  Biso   1.000  C
  H38      1.0000 0.80430  0.39200  0.14910  Biso   1.000  H
  C69      1.0000 0.80620  0.39490  0.26890  Biso   1.000  C
  C70      1.0000 0.87570  0.39560  0.34850  Biso   1.000  C
  H39      1.0000 0.84610  0.39800  0.39500  Biso   1.000  H
  C71      1.0000 0.98690  0.39270  0.35810  Biso   1.000  C
  H40      1.0000 0.03240  0.39090  0.41140  Biso   1.000  H
  C72      1.0000 0.03410  0.39250  0.28940  Biso   1.000  C
  Ce5      1.0000 0.02894  0.04738  0.90021  Biso   1.000  Ce
  O25      1.0000 0.17820  0.05840  0.02300  Biso   1.000  O
  O26      1.0000 0.13070  0.02340  0.13750  Biso   1.000  O
  O27      1.0000 0.15690  0.95550  0.89110  Biso   1.000  O
  O28      1.0000 0.07450  0.93790  0.99180  Biso   1.000  O
  O29      1.0000 0.15330  0.08790  0.82470  Biso   1.000  O
  O30      1.0000 0.12090  0.10660  0.68970  Biso   1.000  O
  H41      1.0000 0.05750  0.97380  0.76580  Biso   1.000  H
  C73      1.0000 0.20020  0.04330  0.09810  Biso   1.000  C
  C74      1.0000 0.31910  0.04650  0.14510  Biso   1.000  C
  C75      1.0000 0.40140  0.04850  0.09930  Biso   1.000  C
  H42      1.0000 0.38180  0.04930  0.04140  Biso   1.000  H
  C76      1.0000 0.51020  0.04920  0.14070  Biso   1.000  C
  H43      1.0000 0.56420  0.05000  0.11040  Biso   1.000  H
  C77      1.0000 0.54130  0.04880  0.22730  Biso   1.000  C
  C78      1.0000 0.34670  0.04740  0.22830  Biso   1.000  C
  H44      1.0000 0.29150  0.04720  0.25770  Biso   1.000  H
  C79      1.0000 0.13630  0.92100  0.94440  Biso   1.000  C
  C80      1.0000 0.18620  0.85750  0.95650  Biso   1.000  C
  C81      1.0000 0.17560  0.82020  0.02010  Biso   1.000  C
  H45      1.0000 0.13680  0.83430  0.05810  Biso   1.000  H
  C82      1.0000 0.22120  0.76130  0.02990  Biso   1.000  C
  C83      1.0000 0.29070  0.77900  0.90570  Biso   1.000  C
  H46      1.0000 0.33040  0.76590  0.86770  Biso   1.000  H
  C84      1.0000 0.24570  0.83690  0.89740  Biso   1.000  C
  H47      1.0000 0.25380  0.86230  0.85400  Biso   1.000  H
  C85      1.0000 0.18390  0.09940  0.75920  Biso   1.000  C
  C86      1.0000 0.35060  0.10700  0.70220  Biso   1.000  C
  H48      1.0000 0.30430  0.10800  0.64910  Biso   1.000  H
  C87      1.0000 0.30620  0.10510  0.76890  Biso   1.000  C
  C88      1.0000 0.37570  0.10440  0.84850  Biso   1.000  C
  H49      1.0000 0.34610  0.10200  0.89500  Biso   1.000  H
  C89      1.0000 0.48690  0.10730  0.85810  Biso   1.000  C
  H50      1.0000 0.53240  0.10910  0.91140  Biso   1.000  H
  C90      1.0000 0.53410  0.10750  0.78940  Biso   1.000  C
  Ce6      1.0000 0.52894  0.54738  0.90021  Biso   1.000  Ce
  O31      1.0000 0.67820  0.55840  0.02300  Biso   1.000  O
  O32      1.0000 0.63070  0.52340  0.13750  Biso   1.000  O
  O33      1.0000 0.65690  0.45550  0.89110  Biso   1.000  O
  O34      1.0000 0.57450  0.43790  0.99180  Biso   1.000  O
  O35      1.0000 0.65330  0.58790  0.82470  Biso   1.000  O
  O36      1.0000 0.62090  0.60660  0.68970  Biso   1.000  O
  H51      1.0000 0.55750  0.47380  0.76580  Biso   1.000  H
  C91      1.0000 0.70020  0.54330  0.09810  Biso   1.000  C
  C92      1.0000 0.81910  0.54650  0.14510  Biso   1.000  C
  C93      1.0000 0.90140  0.54850  0.09930  Biso   1.000  C
  H52      1.0000 0.88180  0.54930  0.04140  Biso   1.000  H
  C94      1.0000 0.01020  0.54920  0.14070  Biso   1.000  C
  H53      1.0000 0.06420  0.55000  0.11040  Biso   1.000  H
  C95      1.0000 0.04130  0.54880  0.22730  Biso   1.000  C
  C96      1.0000 0.84670  0.54740  0.22830  Biso   1.000  C
  H54      1.0000 0.79150  0.54720  0.25770  Biso   1.000  H
  C97      1.0000 0.63630  0.42100  0.94440  Biso   1.000  C
  C98      1.0000 0.68620  0.35750  0.95650  Biso   1.000  C
  C99      1.0000 0.67560  0.32020  0.02010  Biso   1.000  C
  H55      1.0000 0.63680  0.33430  0.05810  Biso   1.000  H
  C100     1.0000 0.72120  0.26130  0.02990  Biso   1.000  C
  C101     1.0000 0.79070  0.27900  0.90570  Biso   1.000  C
  H56      1.0000 0.83040  0.26590  0.86770  Biso   1.000  H
  C102     1.0000 0.74570  0.33690  0.89740  Biso   1.000  C
  H57      1.0000 0.75380  0.36230  0.85400  Biso   1.000  H
  C103     1.0000 0.68390  0.59940  0.75920  Biso   1.000  C
  C104     1.0000 0.85060  0.60700  0.70220  Biso   1.000  C
  H58      1.0000 0.80430  0.60800  0.64910  Biso   1.000  H
  C105     1.0000 0.80620  0.60510  0.76890  Biso   1.000  C
  C106     1.0000 0.87570  0.60440  0.84850  Biso   1.000  C
  H59      1.0000 0.84610  0.60200  0.89500  Biso   1.000  H
  C107     1.0000 0.98690  0.60730  0.85810  Biso   1.000  C
  H60      1.0000 0.03240  0.60910  0.91140  Biso   1.000  H
  C108     1.0000 0.03410  0.60750  0.78940  Biso   1.000  C
  Ce7      1.0000 0.97106  0.04738  0.59979  Biso   1.000  Ce
  O37      1.0000 0.82180  0.05840  0.47700  Biso   1.000  O
  O38      1.0000 0.86930  0.02340  0.36250  Biso   1.000  O
  O39      1.0000 0.84310  0.95550  0.60890  Biso   1.000  O
  O40      1.0000 0.92550  0.93790  0.50820  Biso   1.000  O
  O41      1.0000 0.84670  0.08790  0.67530  Biso   1.000  O
  O42      1.0000 0.87910  0.10660  0.81030  Biso   1.000  O
  H61      1.0000 0.94250  0.97380  0.73420  Biso   1.000  H
  C109     1.0000 0.79980  0.04330  0.40190  Biso   1.000  C
  C110     1.0000 0.68090  0.04650  0.35490  Biso   1.000  C
  C111     1.0000 0.59860  0.04850  0.40070  Biso   1.000  C
  H62      1.0000 0.61820  0.04930  0.45860  Biso   1.000  H
  C112     1.0000 0.48980  0.04920  0.35930  Biso   1.000  C
  H63      1.0000 0.43580  0.05000  0.38960  Biso   1.000  H
  C113     1.0000 0.45870  0.04880  0.27270  Biso   1.000  C
  C114     1.0000 0.65330  0.04740  0.27170  Biso   1.000  C
  H64      1.0000 0.70850  0.04720  0.24230  Biso   1.000  H
  C115     1.0000 0.86370  0.92100  0.55560  Biso   1.000  C
  C116     1.0000 0.81380  0.85750  0.54350  Biso   1.000  C
  C117     1.0000 0.82440  0.82020  0.47990  Biso   1.000  C
  H65      1.0000 0.86320  0.83430  0.44190  Biso   1.000  H
  C118     1.0000 0.77880  0.76130  0.47010  Biso   1.000  C
  C119     1.0000 0.70930  0.77900  0.59430  Biso   1.000  C
  H66      1.0000 0.66960  0.76590  0.63230  Biso   1.000  H
  C120     1.0000 0.75430  0.83690  0.60260  Biso   1.000  C
  H67      1.0000 0.74620  0.86230  0.64600  Biso   1.000  H
  C121     1.0000 0.81610  0.09940  0.74080  Biso   1.000  C
  C122     1.0000 0.64940  0.10700  0.79780  Biso   1.000  C
  H68      1.0000 0.69570  0.10800  0.85090  Biso   1.000  H
  C123     1.0000 0.69380  0.10510  0.73110  Biso   1.000  C
  C124     1.0000 0.62430  0.10440  0.65150  Biso   1.000  C
  H69      1.0000 0.65390  0.10200  0.60500  Biso   1.000  H
  C125     1.0000 0.51310  0.10730  0.64190  Biso   1.000  C
  H70      1.0000 0.46760  0.10910  0.58860  Biso   1.000  H
  C126     1.0000 0.46590  0.10750  0.71060  Biso   1.000  C
  Ce8      1.0000 0.47106  0.54738  0.59979  Biso   1.000  Ce
  O43      1.0000 0.32180  0.55840  0.47700  Biso   1.000  O
  O44      1.0000 0.36930  0.52340  0.36250  Biso   1.000  O
  O45      1.0000 0.34310  0.45550  0.60890  Biso   1.000  O
  O46      1.0000 0.42550  0.43790  0.50820  Biso   1.000  O
  O47      1.0000 0.34670  0.58790  0.67530  Biso   1.000  O
  O48      1.0000 0.37910  0.60660  0.81030  Biso   1.000  O
  H71      1.0000 0.44250  0.47380  0.73420  Biso   1.000  H
  C127     1.0000 0.29980  0.54330  0.40190  Biso   1.000  C
  C128     1.0000 0.18090  0.54650  0.35490  Biso   1.000  C
  C129     1.0000 0.09860  0.54850  0.40070  Biso   1.000  C
  H72      1.0000 0.11820  0.54930  0.45860  Biso   1.000  H
  C130     1.0000 0.98980  0.54920  0.35930  Biso   1.000  C
  H73      1.0000 0.93580  0.55000  0.38960  Biso   1.000  H
  C131     1.0000 0.95870  0.54880  0.27270  Biso   1.000  C
  C132     1.0000 0.15330  0.54740  0.27170  Biso   1.000  C
  H74      1.0000 0.20850  0.54720  0.24230  Biso   1.000  H
  C133     1.0000 0.36370  0.42100  0.55560  Biso   1.000  C
  C134     1.0000 0.31380  0.35750  0.54350  Biso   1.000  C
  C135     1.0000 0.32440  0.32020  0.47990  Biso   1.000  C
  H75      1.0000 0.36320  0.33430  0.44190  Biso   1.000  H
  C136     1.0000 0.27880  0.26130  0.47010  Biso   1.000  C
  C137     1.0000 0.20930  0.27900  0.59430  Biso   1.000  C
  H76      1.0000 0.16960  0.26590  0.63230  Biso   1.000  H
  C138     1.0000 0.25430  0.33690  0.60260  Biso   1.000  C
  H77      1.0000 0.24620  0.36230  0.64600  Biso   1.000  H
  C139     1.0000 0.31610  0.59940  0.74080  Biso   1.000  C
  C140     1.0000 0.14940  0.60700  0.79780  Biso   1.000  C
  H78      1.0000 0.19570  0.60800  0.85090  Biso   1.000  H
  C141     1.0000 0.19380  0.60510  0.73110  Biso   1.000  C
  C142     1.0000 0.12430  0.60440  0.65150  Biso   1.000  C
  H79      1.0000 0.15390  0.60200  0.60500  Biso   1.000  H
  C143     1.0000 0.01310  0.60730  0.64190  Biso   1.000  C
  H80      1.0000 0.96760  0.60910  0.58860  Biso   1.000  H
  C144     1.0000 0.96590  0.60750  0.71060  Biso   1.000  C
  O49      1.0000 0.00000  0.00430  0.25000  Biso   1.000  O
  O50      1.0000 0.50000  0.50430  0.25000  Biso   1.000  O
  O51      1.0000 0.00000  0.99570  0.75000  Biso   1.000  O
  O52      1.0000 0.50000  0.49570  0.75000  Biso   1.000  O
