data_QOJVAM_clean
_audit_creation_date              2014-07-02
_audit_creation_method            'Materials Studio'
_symmetry_space_group_name_H-M    'P1'
_symmetry_Int_Tables_number       1
_symmetry_cell_setting            triclinic
loop_
_symmetry_equiv_pos_as_xyz
  x,y,z
_cell_length_a                    10.0916
_cell_length_b                    10.0916
_cell_length_c                    16.4373
_cell_angle_alpha                 95.9263
_cell_angle_beta                  95.9263
_cell_angle_gamma                 92.3616
loop_
_atom_site_label
_atom_site_type_symbol
_atom_site_fract_x
_atom_site_fract_y
_atom_site_fract_z
_atom_site_U_iso_or_equiv
_atom_site_adp_type
_atom_site_occupancy
Cu1    Cu    0.73991   0.06451   0.82788   0.01267  Uiso   1.00
Cu2    Cu    0.56085   0.23701   0.79130   0.01267  Uiso   1.00
Cu3    Cu    0.06451   0.73991   0.32788   0.01267  Uiso   1.00
Cu4    Cu    0.23701   0.56085   0.29130   0.01267  Uiso   1.00
H1     H     0.90080   0.01860   0.69120   0.01267  Uiso   1.00
H2     H     0.87640   0.62980   0.59720   0.01267  Uiso   1.00
H3     H     0.72630   0.58150   0.69070   0.01267  Uiso   1.00
H4     H     0.66340   0.75160   0.78460   0.01267  Uiso   1.00
H5     H     0.92180   0.74620   0.47510   0.01267  Uiso   1.00
H6     H     0.11220   0.00820   0.65750   0.01267  Uiso   1.00
H7     H     0.24490   0.97010   0.43220   0.01267  Uiso   1.00
H8     H     0.34280   0.07120   0.69100   0.01267  Uiso   1.00
H9     H     0.28570   0.18730   0.46170   0.01267  Uiso   1.00
H10    H     0.57060   0.37840   0.62990   0.01267  Uiso   1.00
H11    H     0.27430   0.38230   0.42930   0.01267  Uiso   1.00
H12    H     0.66180   0.43080   0.52530   0.01267  Uiso   1.00
H13    H     0.69890   0.59030   0.43520   0.01267  Uiso   1.00
H14    H     0.52370   0.64570   0.34220   0.01267  Uiso   1.00
H15    H     0.01860   0.90080   0.19120   0.01267  Uiso   1.00
H16    H     0.62980   0.87640   0.09720   0.01267  Uiso   1.00
H17    H     0.58150   0.72630   0.19070   0.01267  Uiso   1.00
H18    H     0.75160   0.66340   0.28460   0.01267  Uiso   1.00
H19    H     0.74620   0.92180   0.97510   0.01267  Uiso   1.00
H20    H     0.00820   0.11220   0.15750   0.01267  Uiso   1.00
H21    H     0.97010   0.24490   0.93220   0.01267  Uiso   1.00
H22    H     0.07120   0.34280   0.19100   0.01267  Uiso   1.00
H23    H     0.18730   0.28570   0.96170   0.01267  Uiso   1.00
H24    H     0.37840   0.57060   0.12990   0.01267  Uiso   1.00
H25    H     0.38230   0.27430   0.92930   0.01267  Uiso   1.00
H26    H     0.43080   0.66180   0.02530   0.01267  Uiso   1.00
H27    H     0.59030   0.69890   0.93520   0.01267  Uiso   1.00
H28    H     0.64570   0.52370   0.84220   0.01267  Uiso   1.00
C1     C     0.86540   0.92980   0.69110   0.01267  Uiso   1.00
C2     C     0.90270   0.82870   0.63540   0.01267  Uiso   1.00
C3     C     0.85090   0.69890   0.63530   0.01267  Uiso   1.00
C4     C     0.76170   0.67030   0.69080   0.01267  Uiso   1.00
C5     C     0.72430   0.77130   0.74660   0.01267  Uiso   1.00
C6     C     0.99130   0.81190   0.49400   0.01267  Uiso   1.00
C7     C     0.00280   0.87140   0.57480   0.01267  Uiso   1.00
C8     C     0.10440   0.96760   0.60240   0.01267  Uiso   1.00
C9     C     0.19460   0.00440   0.54930   0.01267  Uiso   1.00
C10    C     0.18320   0.94500   0.46850   0.01267  Uiso   1.00
C11    C     0.36590   0.12850   0.65170   0.01267  Uiso   1.00
C12    C     0.29820   0.11360   0.57300   0.01267  Uiso   1.00
C13    C     0.33200   0.19740   0.51550   0.01267  Uiso   1.00
C14    C     0.43350   0.29610   0.53670   0.01267  Uiso   1.00
C15    C     0.50120   0.31100   0.61540   0.01267  Uiso   1.00
C16    C     0.36050   0.42450   0.43050   0.01267  Uiso   1.00
C17    C     0.46460   0.39160   0.48570   0.01267  Uiso   1.00
C18    C     0.59070   0.45330   0.48750   0.01267  Uiso   1.00
C19    C     0.61270   0.54810   0.43400   0.01267  Uiso   1.00
C20    C     0.50860   0.58100   0.37880   0.01267  Uiso   1.00
C21    C     0.92980   0.86540   0.19110   0.01267  Uiso   1.00
C22    C     0.82870   0.90270   0.13540   0.01267  Uiso   1.00
C23    C     0.69890   0.85090   0.13530   0.01267  Uiso   1.00
C24    C     0.67030   0.76170   0.19080   0.01267  Uiso   1.00
C25    C     0.77130   0.72430   0.24660   0.01267  Uiso   1.00
C26    C     0.81190   0.99130   0.99400   0.01267  Uiso   1.00
C27    C     0.87140   0.00280   0.07480   0.01267  Uiso   1.00
C28    C     0.96760   0.10440   0.10240   0.01267  Uiso   1.00
C29    C     0.00440   0.19460   0.04930   0.01267  Uiso   1.00
C30    C     0.94500   0.18320   0.96850   0.01267  Uiso   1.00
C31    C     0.12850   0.36590   0.15170   0.01267  Uiso   1.00
C32    C     0.11360   0.29820   0.07300   0.01267  Uiso   1.00
C33    C     0.19740   0.33200   0.01550   0.01267  Uiso   1.00
C34    C     0.29610   0.43350   0.03670   0.01267  Uiso   1.00
C35    C     0.31100   0.50120   0.11540   0.01267  Uiso   1.00
C36    C     0.42450   0.36050   0.93050   0.01267  Uiso   1.00
C37    C     0.39160   0.46460   0.98570   0.01267  Uiso   1.00
C38    C     0.45330   0.59070   0.98750   0.01267  Uiso   1.00
C39    C     0.54810   0.61270   0.93400   0.01267  Uiso   1.00
C40    C     0.58100   0.50860   0.87880   0.01267  Uiso   1.00
I1     I     0.81057   0.29011   0.76420   0.01267  Uiso   1.00
I2     I     0.49095   0.01051   0.85474   0.01267  Uiso   1.00
I3     I     0.29011   0.81057   0.26420   0.01267  Uiso   1.00
I4     I     0.01051   0.49095   0.35474   0.01267  Uiso   1.00
N1     N     0.77620   0.90120   0.74670   0.01267  Uiso   1.00
N2     N     0.08150   0.84870   0.44090   0.01267  Uiso   1.00
N3     N     0.46740   0.22720   0.67290   0.01267  Uiso   1.00
N4     N     0.38260   0.51920   0.37700   0.01267  Uiso   1.00
N5     N     0.90120   0.77620   0.24670   0.01267  Uiso   1.00
N6     N     0.84870   0.08150   0.94090   0.01267  Uiso   1.00
N7     N     0.22720   0.46740   0.17290   0.01267  Uiso   1.00
N8     N     0.51920   0.38260   0.87700   0.01267  Uiso   1.00
