data_image0
_cell_length_a       7.5106
_cell_length_b       31.1959
_cell_length_c       10.5537
_cell_angle_alpha    90
_cell_angle_beta     118.658
_cell_angle_gamma    90

_symmetry_space_group_name_H-M    "P 1"
_symmetry_int_tables_number       1

loop_
  _symmetry_equiv_pos_as_xyz
  'x, y, z'

loop_
  _atom_site_label
  _atom_site_occupancy
  _atom_site_fract_x
  _atom_site_fract_y
  _atom_site_fract_z
  _atom_site_thermal_displace_type
  _atom_site_B_iso_or_equiv
  _atom_site_type_symbol
  C1       1.0000 0.95360  0.08703  0.52480  Biso   1.000  C
  C2       1.0000 0.84840  0.04976  0.49970  Biso   1.000  C
  H1       1.0000 0.73120  0.04300  0.41120  Biso   1.000  H
  C3       1.0000 0.09320  0.04461  0.71930  Biso   1.000  C
  C4       1.0000 0.23420  0.03310  0.86220  Biso   1.000  C
  H2       1.0000 0.22700  0.00590  0.89980  Biso   1.000  H
  C5       1.0000 0.37970  0.06157  0.94440  Biso   1.000  C
  H3       1.0000 0.47680  0.05410  0.04030  Biso   1.000  H
  C6       1.0000 0.38900  0.10178  0.89010  Biso   1.000  C
  H4       1.0000 0.49080  0.12150  0.95060  Biso   1.000  H
  C7       1.0000 0.25650  0.11323  0.75360  Biso   1.000  C
  H5       1.0000 0.26330  0.14080  0.71800  Biso   1.000  H
  C8       1.0000 0.32740  0.92205  0.26950  Biso   1.000  C
  C9       1.0000 0.19580  0.93404  0.12750  Biso   1.000  C
  H6       1.0000 0.20520  0.96200  0.09550  Biso   1.000  H
  C10      1.0000 0.05060  0.90556  0.03200  Biso   1.000  C
  C11      1.0000 0.03670  0.86496  0.08060  Biso   1.000  C
  H7       1.0000 0.93590  0.84560  0.01700  Biso   1.000  H
  C12      1.0000 0.16960  0.85237  0.22230  Biso   1.000  C
  C13      1.0000 0.31740  0.88064  0.31570  Biso   1.000  C
  H8       1.0000 0.41130  0.87180  0.41080  Biso   1.000  H
  C14      1.0000 0.47880  0.95327  0.37100  Biso   1.000  C
  C15      1.0000 0.15380  0.80854  0.27490  Biso   1.000  C
  C16      1.0000 0.03410  0.17914  0.32980  Biso   1.000  C
  H9       1.0000 0.14340  0.19510  0.33230  Biso   1.000  H
  C17      1.0000 0.07720  0.14618  0.42510  Biso   1.000  C
  H10      1.0000 0.21420  0.13890  0.48970  Biso   1.000  H
  C18      1.0000 0.91910  0.12316  0.42720  Biso   1.000  C
  C19      1.0000 0.71940  0.13426  0.32610  Biso   1.000  C
  H11      1.0000 0.60730  0.11920  0.32280  Biso   1.000  H
  C20      1.0000 0.68980  0.16755  0.23170  Biso   1.000  C
  H12      1.0000 0.55450  0.17490  0.16320  Biso   1.000  H
  C21      1.0000 0.90610  0.91875  0.87970  Biso   1.000  C
  N1       1.0000 0.93050  0.02327  0.61590  Biso   1.000  N
  N2       1.0000 0.11030  0.08398  0.66620  Biso   1.000  N
  N3       1.0000 0.84180  0.19006  0.23160  Biso   1.000  N
  O1       1.0000 0.62930  0.93786  0.48190  Biso   1.000  O
  O2       1.0000 0.44910  0.99294  0.34470  Biso   1.000  O
  O3       1.0000 0.96440  0.95180  0.83640  Biso   1.000  O
  O4       1.0000 0.74890  0.89870  0.80660  Biso   1.000  O
  O5       1.0000 0.28300  0.79757  0.40240  Biso   1.000  O
  O6       1.0000 0.01390  0.78353  0.19430  Biso   1.000  O
  Zn1      1.0000 0.78098  0.97494  0.65010  Biso   1.000  Zn
  Zn2      1.0000 0.19596  0.73785  0.40921  Biso   1.000  Zn
  C22      1.0000 0.04640  0.58703  0.97520  Biso   1.000  C
  C23      1.0000 0.15160  0.54976  0.00030  Biso   1.000  C
  H13      1.0000 0.26880  0.54300  0.08880  Biso   1.000  H
  C24      1.0000 0.90680  0.54461  0.78070  Biso   1.000  C
  C25      1.0000 0.76580  0.53310  0.63780  Biso   1.000  C
  H14      1.0000 0.77300  0.50590  0.60020  Biso   1.000  H
  C26      1.0000 0.62030  0.56157  0.55560  Biso   1.000  C
  H15      1.0000 0.52320  0.55410  0.45970  Biso   1.000  H
  C27      1.0000 0.61100  0.60178  0.60990  Biso   1.000  C
  H16      1.0000 0.50920  0.62150  0.54940  Biso   1.000  H
  C28      1.0000 0.74350  0.61323  0.74640  Biso   1.000  C
  H17      1.0000 0.73670  0.64080  0.78200  Biso   1.000  H
  C29      1.0000 0.67260  0.42205  0.23050  Biso   1.000  C
  C30      1.0000 0.80420  0.43404  0.37250  Biso   1.000  C
  H18      1.0000 0.79480  0.46200  0.40450  Biso   1.000  H
  C31      1.0000 0.94940  0.40556  0.46800  Biso   1.000  C
  C32      1.0000 0.96330  0.36496  0.41940  Biso   1.000  C
  H19      1.0000 0.06410  0.34560  0.48300  Biso   1.000  H
  C33      1.0000 0.83040  0.35237  0.27770  Biso   1.000  C
  C34      1.0000 0.68260  0.38064  0.18430  Biso   1.000  C
  H20      1.0000 0.58870  0.37180  0.08920  Biso   1.000  H
  C35      1.0000 0.52120  0.45327  0.12900  Biso   1.000  C
  C36      1.0000 0.84620  0.30854  0.22510  Biso   1.000  C
  C37      1.0000 0.96590  0.67914  0.17020  Biso   1.000  C
  H21      1.0000 0.85660  0.69510  0.16770  Biso   1.000  H
  C38      1.0000 0.92280  0.64618  0.07490  Biso   1.000  C
  H22      1.0000 0.78580  0.63890  0.01030  Biso   1.000  H
  C39      1.0000 0.08090  0.62316  0.07280  Biso   1.000  C
  C40      1.0000 0.28060  0.63426  0.17390  Biso   1.000  C
  H23      1.0000 0.39270  0.61920  0.17720  Biso   1.000  H
  C41      1.0000 0.31020  0.66755  0.26830  Biso   1.000  C
  H24      1.0000 0.44550  0.67490  0.33680  Biso   1.000  H
  C42      1.0000 0.09390  0.41875  0.62030  Biso   1.000  C
  N4       1.0000 0.06950  0.52327  0.88410  Biso   1.000  N
  N5       1.0000 0.88970  0.58398  0.83380  Biso   1.000  N
  N6       1.0000 0.15820  0.69006  0.26840  Biso   1.000  N
  O7       1.0000 0.37070  0.43786  0.01810  Biso   1.000  O
  O8       1.0000 0.55090  0.49294  0.15530  Biso   1.000  O
  O9       1.0000 0.03560  0.45180  0.66360  Biso   1.000  O
  O10      1.0000 0.25110  0.39870  0.69340  Biso   1.000  O
  O11      1.0000 0.71700  0.29757  0.09760  Biso   1.000  O
  O12      1.0000 0.98610  0.28353  0.30570  Biso   1.000  O
  Zn3      1.0000 0.21902  0.47494  0.84990  Biso   1.000  Zn
  Zn4      1.0000 0.80404  0.23785  0.09079  Biso   1.000  Zn
  C43      1.0000 0.04640  0.91297  0.47520  Biso   1.000  C
  C44      1.0000 0.15160  0.95024  0.50030  Biso   1.000  C
  H25      1.0000 0.26880  0.95700  0.58880  Biso   1.000  H
  C45      1.0000 0.90680  0.95539  0.28070  Biso   1.000  C
  C46      1.0000 0.76580  0.96690  0.13780  Biso   1.000  C
  H26      1.0000 0.77300  0.99410  0.10020  Biso   1.000  H
  C47      1.0000 0.62030  0.93843  0.05560  Biso   1.000  C
  H27      1.0000 0.52320  0.94590  0.95970  Biso   1.000  H
  C48      1.0000 0.61100  0.89822  0.10990  Biso   1.000  C
  H28      1.0000 0.50920  0.87850  0.04940  Biso   1.000  H
  C49      1.0000 0.74350  0.88677  0.24640  Biso   1.000  C
  H29      1.0000 0.73670  0.85920  0.28200  Biso   1.000  H
  C50      1.0000 0.67260  0.07795  0.73050  Biso   1.000  C
  C51      1.0000 0.80420  0.06596  0.87250  Biso   1.000  C
  H30      1.0000 0.79480  0.03800  0.90450  Biso   1.000  H
  C52      1.0000 0.94940  0.09444  0.96800  Biso   1.000  C
  C53      1.0000 0.96330  0.13504  0.91940  Biso   1.000  C
  H31      1.0000 0.06410  0.15440  0.98300  Biso   1.000  H
  C54      1.0000 0.83040  0.14763  0.77770  Biso   1.000  C
  C55      1.0000 0.68260  0.11936  0.68430  Biso   1.000  C
  H32      1.0000 0.58870  0.12820  0.58920  Biso   1.000  H
  C56      1.0000 0.52120  0.04673  0.62900  Biso   1.000  C
  C57      1.0000 0.84620  0.19146  0.72510  Biso   1.000  C
  C58      1.0000 0.96590  0.82086  0.67020  Biso   1.000  C
  H33      1.0000 0.85660  0.80490  0.66770  Biso   1.000  H
  C59      1.0000 0.92280  0.85382  0.57490  Biso   1.000  C
  H34      1.0000 0.78580  0.86110  0.51030  Biso   1.000  H
  C60      1.0000 0.08090  0.87684  0.57280  Biso   1.000  C
  C61      1.0000 0.28060  0.86574  0.67390  Biso   1.000  C
  H35      1.0000 0.39270  0.88080  0.67720  Biso   1.000  H
  C62      1.0000 0.31020  0.83245  0.76830  Biso   1.000  C
  H36      1.0000 0.44550  0.82510  0.83680  Biso   1.000  H
  C63      1.0000 0.09390  0.08125  0.12030  Biso   1.000  C
  N7       1.0000 0.06950  0.97673  0.38410  Biso   1.000  N
  N8       1.0000 0.88970  0.91602  0.33380  Biso   1.000  N
  N9       1.0000 0.15820  0.80994  0.76840  Biso   1.000  N
  O13      1.0000 0.37070  0.06214  0.51810  Biso   1.000  O
  O14      1.0000 0.55090  0.00706  0.65530  Biso   1.000  O
  O15      1.0000 0.03560  0.04820  0.16360  Biso   1.000  O
  O16      1.0000 0.25110  0.10130  0.19340  Biso   1.000  O
  O17      1.0000 0.71700  0.20243  0.59760  Biso   1.000  O
  O18      1.0000 0.98610  0.21647  0.80570  Biso   1.000  O
  Zn5      1.0000 0.21902  0.02506  0.34990  Biso   1.000  Zn
  Zn6      1.0000 0.80404  0.26215  0.59079  Biso   1.000  Zn
  C64      1.0000 0.95360  0.41297  0.02480  Biso   1.000  C
  C65      1.0000 0.84840  0.45024  0.99970  Biso   1.000  C
  H37      1.0000 0.73120  0.45700  0.91120  Biso   1.000  H
  C66      1.0000 0.09320  0.45539  0.21930  Biso   1.000  C
  C67      1.0000 0.23420  0.46690  0.36220  Biso   1.000  C
  H38      1.0000 0.22700  0.49410  0.39980  Biso   1.000  H
  C68      1.0000 0.37970  0.43843  0.44440  Biso   1.000  C
  H39      1.0000 0.47680  0.44590  0.54030  Biso   1.000  H
  C69      1.0000 0.38900  0.39822  0.39010  Biso   1.000  C
  H40      1.0000 0.49080  0.37850  0.45060  Biso   1.000  H
  C70      1.0000 0.25650  0.38677  0.25360  Biso   1.000  C
  H41      1.0000 0.26330  0.35920  0.21800  Biso   1.000  H
  C71      1.0000 0.32740  0.57795  0.76950  Biso   1.000  C
  C72      1.0000 0.19580  0.56596  0.62750  Biso   1.000  C
  H42      1.0000 0.20520  0.53800  0.59550  Biso   1.000  H
  C73      1.0000 0.05060  0.59444  0.53200  Biso   1.000  C
  C74      1.0000 0.03670  0.63504  0.58060  Biso   1.000  C
  H43      1.0000 0.93590  0.65440  0.51700  Biso   1.000  H
  C75      1.0000 0.16960  0.64763  0.72230  Biso   1.000  C
  C76      1.0000 0.31740  0.61936  0.81570  Biso   1.000  C
  H44      1.0000 0.41130  0.62820  0.91080  Biso   1.000  H
  C77      1.0000 0.47880  0.54673  0.87100  Biso   1.000  C
  C78      1.0000 0.15380  0.69146  0.77490  Biso   1.000  C
  C79      1.0000 0.03410  0.32086  0.82980  Biso   1.000  C
  H45      1.0000 0.14340  0.30490  0.83230  Biso   1.000  H
  C80      1.0000 0.07720  0.35382  0.92510  Biso   1.000  C
  H46      1.0000 0.21420  0.36110  0.98970  Biso   1.000  H
  C81      1.0000 0.91910  0.37684  0.92720  Biso   1.000  C
  C82      1.0000 0.71940  0.36574  0.82610  Biso   1.000  C
  H47      1.0000 0.60730  0.38080  0.82280  Biso   1.000  H
  C83      1.0000 0.68980  0.33245  0.73170  Biso   1.000  C
  H48      1.0000 0.55450  0.32510  0.66320  Biso   1.000  H
  C84      1.0000 0.90610  0.58125  0.37970  Biso   1.000  C
  N10      1.0000 0.93050  0.47673  0.11590  Biso   1.000  N
  N11      1.0000 0.11030  0.41602  0.16620  Biso   1.000  N
  N12      1.0000 0.84180  0.30994  0.73160  Biso   1.000  N
  O19      1.0000 0.62930  0.56214  0.98190  Biso   1.000  O
  O20      1.0000 0.44910  0.50706  0.84470  Biso   1.000  O
  O21      1.0000 0.96440  0.54820  0.33640  Biso   1.000  O
  O22      1.0000 0.74890  0.60130  0.30660  Biso   1.000  O
  O23      1.0000 0.28300  0.70243  0.90240  Biso   1.000  O
  O24      1.0000 0.01390  0.71647  0.69430  Biso   1.000  O
  Zn7      1.0000 0.78098  0.52506  0.15010  Biso   1.000  Zn
  Zn8      1.0000 0.19596  0.76215  0.90921  Biso   1.000  Zn
