data_QOKCID_clean
_audit_creation_date              2014-07-02
_audit_creation_method            'Materials Studio'
_symmetry_space_group_name_H-M    'P1'
_symmetry_Int_Tables_number       1
_symmetry_cell_setting            triclinic
loop_
_symmetry_equiv_pos_as_xyz
  x,y,z
_cell_length_a                    7.6238
_cell_length_b                    12.3416
_cell_length_c                    12.3416
_cell_angle_alpha                 96.3389
_cell_angle_beta                  94.1600
_cell_angle_gamma                 85.8400
loop_
_atom_site_label
_atom_site_type_symbol
_atom_site_fract_x
_atom_site_fract_y
_atom_site_fract_z
_atom_site_U_iso_or_equiv
_atom_site_adp_type
_atom_site_occupancy
Zn1    Zn    0.43682   0.29722   0.76522   0.01267  Uiso   1.00
Zn2    Zn    0.06318   0.76522   0.29722   0.01267  Uiso   1.00
Zn3    Zn    0.56318   0.70278   0.23478   0.01267  Uiso   1.00
Zn4    Zn    0.93682   0.23478   0.70278   0.01267  Uiso   1.00
H1     H     0.71080   0.45710   0.05290   0.01267  Uiso   1.00
H2     H     0.19610   0.43490   0.20350   0.01267  Uiso   1.00
H3     H     0.06650   0.21680   0.94620   0.01267  Uiso   1.00
H4     H     0.48400   0.36420   0.14040   0.01267  Uiso   1.00
H5     H     0.41380   0.29900   0.22940   0.01267  Uiso   1.00
H6     H     0.51270   0.12090   0.00450   0.01267  Uiso   1.00
H7     H     0.78920   0.05290   0.45710   0.01267  Uiso   1.00
H8     H     0.30390   0.20350   0.43490   0.01267  Uiso   1.00
H9     H     0.43350   0.94620   0.21680   0.01267  Uiso   1.00
H10    H     0.01600   0.14040   0.36420   0.01267  Uiso   1.00
H11    H     0.08620   0.22940   0.29900   0.01267  Uiso   1.00
H12    H     0.98730   0.00450   0.12090   0.01267  Uiso   1.00
H13    H     0.28920   0.54290   0.94710   0.01267  Uiso   1.00
H14    H     0.80390   0.56510   0.79650   0.01267  Uiso   1.00
H15    H     0.93350   0.78320   0.05380   0.01267  Uiso   1.00
H16    H     0.51600   0.63580   0.85960   0.01267  Uiso   1.00
H17    H     0.58620   0.70100   0.77060   0.01267  Uiso   1.00
H18    H     0.48730   0.87910   0.99550   0.01267  Uiso   1.00
H19    H     0.21080   0.94710   0.54290   0.01267  Uiso   1.00
H20    H     0.69610   0.79650   0.56510   0.01267  Uiso   1.00
H21    H     0.56650   0.05380   0.78320   0.01267  Uiso   1.00
H22    H     0.98400   0.85960   0.63580   0.01267  Uiso   1.00
H23    H     0.91380   0.77060   0.70100   0.01267  Uiso   1.00
H24    H     0.01270   0.99550   0.87910   0.01267  Uiso   1.00
H25    H     0.75000   0.99120   0.99120   0.01267  Uiso   1.00
H26    H     0.75000   0.27330   0.27330   0.01267  Uiso   1.00
H27    H     0.25000   0.00880   0.00880   0.01267  Uiso   1.00
H28    H     0.25000   0.72670   0.72670   0.01267  Uiso   1.00
C1     C     0.87080   0.33230   0.98430   0.01267  Uiso   1.00
C2     C     0.82320   0.42270   0.05810   0.01267  Uiso   1.00
C3     C     0.94610   0.45900   0.13800   0.01267  Uiso   1.00
C4     C     0.11450   0.40830   0.14910   0.01267  Uiso   1.00
C5     C     0.15810   0.31750   0.07730   0.01267  Uiso   1.00
C6     C     0.03680   0.27800   0.99400   0.01267  Uiso   1.00
C7     C     0.74350   0.29370   0.89310   0.01267  Uiso   1.00
C8     C     0.45100   0.29310   0.15530   0.01267  Uiso   1.00
C9     C     0.60550   0.20880   0.14140   0.01267  Uiso   1.00
C10    C     0.60740   0.12530   0.05630   0.01267  Uiso   1.00
C11    C     0.89630   0.55880   0.21500   0.01267  Uiso   1.00
C12    C     0.62920   0.98430   0.33230   0.01267  Uiso   1.00
C13    C     0.67680   0.05810   0.42270   0.01267  Uiso   1.00
C14    C     0.55390   0.13800   0.45900   0.01267  Uiso   1.00
C15    C     0.38550   0.14910   0.40830   0.01267  Uiso   1.00
C16    C     0.34190   0.07730   0.31750   0.01267  Uiso   1.00
C17    C     0.46320   0.99400   0.27800   0.01267  Uiso   1.00
C18    C     0.75650   0.89310   0.29370   0.01267  Uiso   1.00
C19    C     0.04900   0.15530   0.29310   0.01267  Uiso   1.00
C20    C     0.89450   0.14140   0.20880   0.01267  Uiso   1.00
C21    C     0.89260   0.05630   0.12530   0.01267  Uiso   1.00
C22    C     0.60370   0.21500   0.55880   0.01267  Uiso   1.00
C23    C     0.12920   0.66770   0.01570   0.01267  Uiso   1.00
C24    C     0.17680   0.57730   0.94190   0.01267  Uiso   1.00
C25    C     0.05390   0.54100   0.86200   0.01267  Uiso   1.00
C26    C     0.88550   0.59170   0.85090   0.01267  Uiso   1.00
C27    C     0.84190   0.68250   0.92270   0.01267  Uiso   1.00
C28    C     0.96320   0.72200   0.00600   0.01267  Uiso   1.00
C29    C     0.25650   0.70630   0.10690   0.01267  Uiso   1.00
C30    C     0.54900   0.70690   0.84470   0.01267  Uiso   1.00
C31    C     0.39450   0.79120   0.85860   0.01267  Uiso   1.00
C32    C     0.39260   0.87470   0.94370   0.01267  Uiso   1.00
C33    C     0.10370   0.44120   0.78500   0.01267  Uiso   1.00
C34    C     0.37080   0.01570   0.66770   0.01267  Uiso   1.00
C35    C     0.32320   0.94190   0.57730   0.01267  Uiso   1.00
C36    C     0.44610   0.86200   0.54100   0.01267  Uiso   1.00
C37    C     0.61450   0.85090   0.59170   0.01267  Uiso   1.00
C38    C     0.65810   0.92270   0.68250   0.01267  Uiso   1.00
C39    C     0.53680   0.00600   0.72200   0.01267  Uiso   1.00
C40    C     0.24350   0.10690   0.70630   0.01267  Uiso   1.00
C41    C     0.95100   0.84470   0.70690   0.01267  Uiso   1.00
C42    C     0.10550   0.85860   0.79120   0.01267  Uiso   1.00
C43    C     0.10740   0.94370   0.87470   0.01267  Uiso   1.00
C44    C     0.39630   0.78500   0.44120   0.01267  Uiso   1.00
C45    C     0.75000   0.04770   0.04770   0.01267  Uiso   1.00
C46    C     0.75000   0.21680   0.21680   0.01267  Uiso   1.00
C47    C     0.25000   0.95230   0.95230   0.01267  Uiso   1.00
C48    C     0.25000   0.78320   0.78320   0.01267  Uiso   1.00
O1     O     0.59030   0.34134   0.89106   0.01267  Uiso   1.00
O2     O     0.78720   0.21812   0.82176   0.01267  Uiso   1.00
O3     O     0.73630   0.57900   0.22620   0.01267  Uiso   1.00
O4     O     0.01980   0.61230   0.26128   0.01267  Uiso   1.00
O5     O     0.31320   0.25644   0.07972   0.01267  Uiso   1.00
O6     O     0.90970   0.89106   0.34134   0.01267  Uiso   1.00
O7     O     0.71280   0.82176   0.21812   0.01267  Uiso   1.00
O8     O     0.76370   0.22620   0.57900   0.01267  Uiso   1.00
O9     O     0.48020   0.26128   0.61230   0.01267  Uiso   1.00
O10    O     0.18680   0.07972   0.25644   0.01267  Uiso   1.00
O11    O     0.40970   0.65866   0.10894   0.01267  Uiso   1.00
O12    O     0.21280   0.78188   0.17824   0.01267  Uiso   1.00
O13    O     0.26370   0.42100   0.77380   0.01267  Uiso   1.00
O14    O     0.98020   0.38770   0.73872   0.01267  Uiso   1.00
O15    O     0.68680   0.74356   0.92028   0.01267  Uiso   1.00
O16    O     0.09030   0.10894   0.65866   0.01267  Uiso   1.00
O17    O     0.28720   0.17824   0.78188   0.01267  Uiso   1.00
O18    O     0.23630   0.77380   0.42100   0.01267  Uiso   1.00
O19    O     0.51980   0.73872   0.38770   0.01267  Uiso   1.00
O20    O     0.81320   0.92028   0.74356   0.01267  Uiso   1.00
