data_image0
_cell_length_a       8.2367
_cell_length_b       9.1664
_cell_length_c       17.55
_cell_angle_alpha    90
_cell_angle_beta     90
_cell_angle_gamma    90

_symmetry_space_group_name_H-M    "P 1"
_symmetry_int_tables_number       1

loop_
  _symmetry_equiv_pos_as_xyz
  'x, y, z'

loop_
  _atom_site_label
  _atom_site_occupancy
  _atom_site_fract_x
  _atom_site_fract_y
  _atom_site_fract_z
  _atom_site_thermal_displace_type
  _atom_site_B_iso_or_equiv
  _atom_site_type_symbol
  Al1      1.0000 0.86075  0.13091  0.93403  Biso   1.000  Al
  Al2      1.0000 0.94224  0.08437  0.16659  Biso   1.000  Al
  Al3      1.0000 0.93968  0.58575  0.03164  Biso   1.000  Al
  P1       1.0000 0.06417  0.41440  0.17325  Biso   1.000  P
  P2       1.0000 0.06985  0.90793  0.02627  Biso   1.000  P
  P3       1.0000 0.13346  0.36723  0.92880  Biso   1.000  P
  O1       1.0000 0.00410  0.26360  0.89910  Biso   1.000  O
  O2       1.0000 0.23890  0.42080  0.14760  Biso   1.000  O
  O3       1.0000 0.96130  0.96620  0.96390  Biso   1.000  O
  O4       1.0000 0.23840  0.29540  0.98930  Biso   1.000  O
  O5       1.0000 0.00900  0.25810  0.18220  Biso   1.000  O
  O6       1.0000 0.04620  0.48850  0.24900  Biso   1.000  O
  O7       1.0000 0.06390  0.00490  0.09740  Biso   1.000  O
  O8       1.0000 0.23560  0.41320  0.86020  Biso   1.000  O
  O9       1.0000 0.05460  0.50510  0.96040  Biso   1.000  O
  O10      1.0000 0.01530  0.75810  0.05060  Biso   1.000  O
  O11      1.0000 0.24360  0.90070  0.99780  Biso   1.000  O
  O12      1.0000 0.95220  0.48580  0.11530  Biso   1.000  O
  Al4      1.0000 0.63925  0.86909  0.43403  Biso   1.000  Al
  Al5      1.0000 0.55776  0.91563  0.66659  Biso   1.000  Al
  Al6      1.0000 0.56032  0.41425  0.53164  Biso   1.000  Al
  P4       1.0000 0.43583  0.58560  0.67325  Biso   1.000  P
  P5       1.0000 0.43015  0.09207  0.52627  Biso   1.000  P
  P6       1.0000 0.36654  0.63277  0.42880  Biso   1.000  P
  O13      1.0000 0.49590  0.73640  0.39910  Biso   1.000  O
  O14      1.0000 0.26110  0.57920  0.64760  Biso   1.000  O
  O15      1.0000 0.53870  0.03380  0.46390  Biso   1.000  O
  O16      1.0000 0.26160  0.70460  0.48930  Biso   1.000  O
  O17      1.0000 0.49100  0.74190  0.68220  Biso   1.000  O
  O18      1.0000 0.45380  0.51150  0.74900  Biso   1.000  O
  O19      1.0000 0.43610  0.99510  0.59740  Biso   1.000  O
  O20      1.0000 0.26440  0.58680  0.36020  Biso   1.000  O
  O21      1.0000 0.44540  0.49490  0.46040  Biso   1.000  O
  O22      1.0000 0.48470  0.24190  0.55060  Biso   1.000  O
  O23      1.0000 0.25640  0.09930  0.49780  Biso   1.000  O
  O24      1.0000 0.54780  0.51420  0.61530  Biso   1.000  O
  Al7      1.0000 0.13925  0.63091  0.56597  Biso   1.000  Al
  Al8      1.0000 0.05776  0.58437  0.33341  Biso   1.000  Al
  Al9      1.0000 0.06032  0.08575  0.46836  Biso   1.000  Al
  P7       1.0000 0.93583  0.91440  0.32675  Biso   1.000  P
  P8       1.0000 0.93015  0.40793  0.47373  Biso   1.000  P
  P9       1.0000 0.86654  0.86723  0.57120  Biso   1.000  P
  O25      1.0000 0.99590  0.76360  0.60090  Biso   1.000  O
  O26      1.0000 0.76110  0.92080  0.35240  Biso   1.000  O
  O27      1.0000 0.03870  0.46620  0.53610  Biso   1.000  O
  O28      1.0000 0.76160  0.79540  0.51070  Biso   1.000  O
  O29      1.0000 0.99100  0.75810  0.31780  Biso   1.000  O
  O30      1.0000 0.95380  0.98850  0.25100  Biso   1.000  O
  O31      1.0000 0.93610  0.50490  0.40260  Biso   1.000  O
  O32      1.0000 0.76440  0.91320  0.63980  Biso   1.000  O
  O33      1.0000 0.94540  0.00510  0.53960  Biso   1.000  O
  O34      1.0000 0.98470  0.25810  0.44940  Biso   1.000  O
  O35      1.0000 0.75640  0.40070  0.50220  Biso   1.000  O
  O36      1.0000 0.04780  0.98580  0.38470  Biso   1.000  O
  Al10     1.0000 0.36075  0.36909  0.06597  Biso   1.000  Al
  Al11     1.0000 0.44224  0.41563  0.83341  Biso   1.000  Al
  Al12     1.0000 0.43968  0.91425  0.96836  Biso   1.000  Al
  P10      1.0000 0.56417  0.08560  0.82675  Biso   1.000  P
  P11      1.0000 0.56985  0.59207  0.97373  Biso   1.000  P
  P12      1.0000 0.63346  0.13277  0.07120  Biso   1.000  P
  O37      1.0000 0.50410  0.23640  0.10090  Biso   1.000  O
  O38      1.0000 0.73890  0.07920  0.85240  Biso   1.000  O
  O39      1.0000 0.46130  0.53380  0.03610  Biso   1.000  O
  O40      1.0000 0.73840  0.20460  0.01070  Biso   1.000  O
  O41      1.0000 0.50900  0.24190  0.81780  Biso   1.000  O
  O42      1.0000 0.54620  0.01150  0.75100  Biso   1.000  O
  O43      1.0000 0.56390  0.49510  0.90260  Biso   1.000  O
  O44      1.0000 0.73560  0.08680  0.13980  Biso   1.000  O
  O45      1.0000 0.55460  0.99490  0.03960  Biso   1.000  O
  O46      1.0000 0.51530  0.74190  0.94940  Biso   1.000  O
  O47      1.0000 0.74360  0.59930  0.00220  Biso   1.000  O
  O48      1.0000 0.45220  0.01420  0.88470  Biso   1.000  O
