data_QOMDUS_clean
_audit_creation_date              2014-07-02
_audit_creation_method            'Materials Studio'
_symmetry_space_group_name_H-M    'P1'
_symmetry_Int_Tables_number       1
_symmetry_cell_setting            triclinic
loop_
_symmetry_equiv_pos_as_xyz
  x,y,z
_cell_length_a                    9.1586
_cell_length_b                    9.7969
_cell_length_c                    9.8730
_cell_angle_alpha                 77.5980
_cell_angle_beta                  89.9470
_cell_angle_gamma                 88.0600
loop_
_atom_site_label
_atom_site_type_symbol
_atom_site_fract_x
_atom_site_fract_y
_atom_site_fract_z
_atom_site_U_iso_or_equiv
_atom_site_adp_type
_atom_site_occupancy
Zn1    Zn    0.77980   0.71324   0.80890   0.01267  Uiso   1.00
Zn2    Zn    0.69720   0.37024   0.91058   0.01267  Uiso   1.00
Zn3    Zn    0.22020   0.28676   0.19110   0.01267  Uiso   1.00
Zn4    Zn    0.30280   0.62976   0.08942   0.01267  Uiso   1.00
Zn5    Zn    0.00000   0.50000   0.00000   0.01267  Uiso   1.00
H1     H     0.72860   0.54830   0.05040   0.01267  Uiso   1.00
H2     H     0.90070   0.60140   0.42870   0.01267  Uiso   1.00
H3     H     0.89650   0.97680   0.90510   0.01267  Uiso   1.00
H4     H     0.48970   0.64520   0.46770   0.01267  Uiso   1.00
H5     H     0.38610   0.92250   0.06980   0.01267  Uiso   1.00
H6     H     0.27140   0.45170   0.94960   0.01267  Uiso   1.00
H7     H     0.09930   0.39860   0.57130   0.01267  Uiso   1.00
H8     H     0.10350   0.02320   0.09490   0.01267  Uiso   1.00
H9     H     0.51030   0.35480   0.53230   0.01267  Uiso   1.00
H10    H     0.61390   0.07750   0.93020   0.01267  Uiso   1.00
C1     C     0.01520   0.47430   0.31070   0.01267  Uiso   1.00
C2     C     0.97160   0.52690   0.43780   0.01267  Uiso   1.00
C3     C     0.05010   0.81090   0.98480   0.01267  Uiso   1.00
C4     C     0.97750   0.95340   0.96670   0.01267  Uiso   1.00
C5     C     0.59380   0.54740   0.65810   0.01267  Uiso   1.00
C6     C     0.51620   0.55570   0.52260   0.01267  Uiso   1.00
C7     C     0.54810   0.81180   0.98070   0.01267  Uiso   1.00
C8     C     0.47400   0.93530   0.01810   0.01267  Uiso   1.00
C9     C     0.98480   0.52570   0.68930   0.01267  Uiso   1.00
C10    C     0.02840   0.47310   0.56220   0.01267  Uiso   1.00
C11    C     0.94990   0.18910   0.01520   0.01267  Uiso   1.00
C12    C     0.02250   0.04660   0.03330   0.01267  Uiso   1.00
C13    C     0.40620   0.45260   0.34190   0.01267  Uiso   1.00
C14    C     0.48380   0.44430   0.47740   0.01267  Uiso   1.00
C15    C     0.45190   0.18820   0.01930   0.01267  Uiso   1.00
C16    C     0.52600   0.06470   0.98190   0.01267  Uiso   1.00
O1     O     0.77870   0.52980   0.96570   0.01267  Uiso   1.00
O2     O     0.96700   0.54290   0.19630   0.01267  Uiso   1.00
O3     O     0.09700   0.36640   0.32820   0.01267  Uiso   1.00
O4     O     0.99470   0.72420   0.92400   0.01267  Uiso   1.00
O5     O     0.16500   0.78910   0.05850   0.01267  Uiso   1.00
O6     O     0.60150   0.65820   0.70080   0.01267  Uiso   1.00
O7     O     0.64550   0.42720   0.71600   0.01267  Uiso   1.00
O8     O     0.67140   0.82920   0.92490   0.01267  Uiso   1.00
O9     O     0.48600   0.69550   0.00290   0.01267  Uiso   1.00
O10    O     0.22130   0.47020   0.03430   0.01267  Uiso   1.00
O11    O     0.03300   0.45710   0.80370   0.01267  Uiso   1.00
O12    O     0.90300   0.63360   0.67180   0.01267  Uiso   1.00
O13    O     0.00530   0.27580   0.07600   0.01267  Uiso   1.00
O14    O     0.83500   0.21090   0.94150   0.01267  Uiso   1.00
O15    O     0.39850   0.34180   0.29920   0.01267  Uiso   1.00
O16    O     0.35450   0.57280   0.28400   0.01267  Uiso   1.00
O17    O     0.32860   0.17080   0.07510   0.01267  Uiso   1.00
O18    O     0.51400   0.30450   0.99710   0.01267  Uiso   1.00
