data_image0
_cell_length_a       13.09
_cell_length_b       14.744
_cell_length_c       15.575
_cell_angle_alpha    90
_cell_angle_beta     91.641
_cell_angle_gamma    90

_symmetry_space_group_name_H-M    "P 1"
_symmetry_int_tables_number       1

loop_
  _symmetry_equiv_pos_as_xyz
  'x, y, z'

loop_
  _atom_site_label
  _atom_site_occupancy
  _atom_site_fract_x
  _atom_site_fract_y
  _atom_site_fract_z
  _atom_site_thermal_displace_type
  _atom_site_B_iso_or_equiv
  _atom_site_type_symbol
  Cu1      1.0000 0.97853  0.20445  0.10106  Biso   1.000  Cu
  C1       1.0000 0.60910  0.31120  0.75540  Biso   1.000  C
  H1       1.0000 0.58390  0.37010  0.75440  Biso   1.000  H
  C2       1.0000 0.67700  0.28900  0.82070  Biso   1.000  C
  H2       1.0000 0.69520  0.33110  0.86290  Biso   1.000  H
  C3       1.0000 0.71760  0.20330  0.82250  Biso   1.000  C
  C4       1.0000 0.68560  0.14440  0.75660  Biso   1.000  C
  H3       1.0000 0.70990  0.08520  0.75560  Biso   1.000  H
  C5       1.0000 0.61930  0.17360  0.69440  Biso   1.000  C
  H4       1.0000 0.60200  0.13460  0.64930  Biso   1.000  H
  C6       1.0000 0.79190  0.17350  0.88800  Biso   1.000  C
  C7       1.0000 0.34110  0.23610  0.73180  Biso   1.000  C
  H5       1.0000 0.36710  0.28830  0.75790  Biso   1.000  H
  C8       1.0000 0.27590  0.18400  0.77700  Biso   1.000  C
  H6       1.0000 0.25880  0.20070  0.83230  Biso   1.000  H
  C9       1.0000 0.23520  0.10620  0.74050  Biso   1.000  C
  C10      1.0000 0.26520  0.08490  0.65780  Biso   1.000  C
  H7       1.0000 0.24020  0.03310  0.63040  Biso   1.000  H
  C11      1.0000 0.33260  0.14170  0.61700  Biso   1.000  C
  H8       1.0000 0.35260  0.12630  0.56210  Biso   1.000  H
  C12      1.0000 0.16660  0.04720  0.78750  Biso   1.000  C
  N1       1.0000 0.57730  0.25720  0.69540  Biso   1.000  N
  N2       1.0000 0.83810  0.09330  0.88750  Biso   1.000  N
  N3       1.0000 0.89870  0.09450  0.95790  Biso   1.000  N
  N4       1.0000 0.88800  0.17170  0.99810  Biso   1.000  N
  N5       1.0000 0.82050  0.22320  0.95640  Biso   1.000  N
  N6       1.0000 0.37010  0.21720  0.65270  Biso   1.000  N
  N7       1.0000 0.12440  0.07600  0.86090  Biso   1.000  N
  N8       1.0000 0.07150  0.00530  0.88620  Biso   1.000  N
  N9       1.0000 0.08210  0.93660  0.83300  Biso   1.000  N
  N10      1.0000 0.14180  0.96280  0.76890  Biso   1.000  N
  N11      1.0000 0.08370  0.12400  0.05260  Biso   1.000  N
  N12      1.0000 0.16960  0.13840  0.05610  Biso   1.000  N
  N13      1.0000 0.25570  0.15330  0.05930  Biso   1.000  N
  Cu2      1.0000 0.52147  0.70445  0.39894  Biso   1.000  Cu
  C13      1.0000 0.89090  0.81120  0.74460  Biso   1.000  C
  H9       1.0000 0.91610  0.87010  0.74560  Biso   1.000  H
  C14      1.0000 0.82300  0.78900  0.67930  Biso   1.000  C
  H10      1.0000 0.80480  0.83110  0.63710  Biso   1.000  H
  C15      1.0000 0.78240  0.70330  0.67750  Biso   1.000  C
  C16      1.0000 0.81440  0.64440  0.74340  Biso   1.000  C
  H11      1.0000 0.79010  0.58520  0.74440  Biso   1.000  H
  C17      1.0000 0.88070  0.67360  0.80560  Biso   1.000  C
  H12      1.0000 0.89800  0.63460  0.85070  Biso   1.000  H
  C18      1.0000 0.70810  0.67350  0.61200  Biso   1.000  C
  C19      1.0000 0.15890  0.73610  0.76820  Biso   1.000  C
  H13      1.0000 0.13290  0.78830  0.74210  Biso   1.000  H
  C20      1.0000 0.22410  0.68400  0.72300  Biso   1.000  C
  H14      1.0000 0.24120  0.70070  0.66770  Biso   1.000  H
  C21      1.0000 0.26480  0.60620  0.75950  Biso   1.000  C
  C22      1.0000 0.23480  0.58490  0.84220  Biso   1.000  C
  H15      1.0000 0.25980  0.53310  0.86960  Biso   1.000  H
  C23      1.0000 0.16740  0.64170  0.88300  Biso   1.000  C
  H16      1.0000 0.14740  0.62630  0.93790  Biso   1.000  H
  C24      1.0000 0.33340  0.54720  0.71250  Biso   1.000  C
  N14      1.0000 0.92270  0.75720  0.80460  Biso   1.000  N
  N15      1.0000 0.66190  0.59330  0.61250  Biso   1.000  N
  N16      1.0000 0.60130  0.59450  0.54210  Biso   1.000  N
  N17      1.0000 0.61200  0.67170  0.50190  Biso   1.000  N
  N18      1.0000 0.67950  0.72320  0.54360  Biso   1.000  N
  N19      1.0000 0.12990  0.71720  0.84730  Biso   1.000  N
  N20      1.0000 0.37560  0.57600  0.63910  Biso   1.000  N
  N21      1.0000 0.42850  0.50530  0.61380  Biso   1.000  N
  N22      1.0000 0.41790  0.43660  0.66700  Biso   1.000  N
  N23      1.0000 0.35820  0.46280  0.73110  Biso   1.000  N
  N24      1.0000 0.41630  0.62400  0.44740  Biso   1.000  N
  N25      1.0000 0.33040  0.63840  0.44390  Biso   1.000  N
  N26      1.0000 0.24430  0.65330  0.44070  Biso   1.000  N
  Cu3      1.0000 0.02147  0.79555  0.89894  Biso   1.000  Cu
  C25      1.0000 0.39090  0.68880  0.24460  Biso   1.000  C
  H17      1.0000 0.41610  0.62990  0.24560  Biso   1.000  H
  C26      1.0000 0.32300  0.71100  0.17930  Biso   1.000  C
  H18      1.0000 0.30480  0.66890  0.13710  Biso   1.000  H
  C27      1.0000 0.28240  0.79670  0.17750  Biso   1.000  C
  C28      1.0000 0.31440  0.85560  0.24340  Biso   1.000  C
  H19      1.0000 0.29010  0.91480  0.24440  Biso   1.000  H
  C29      1.0000 0.38070  0.82640  0.30560  Biso   1.000  C
  H20      1.0000 0.39800  0.86540  0.35070  Biso   1.000  H
  C30      1.0000 0.20810  0.82650  0.11200  Biso   1.000  C
  C31      1.0000 0.65890  0.76390  0.26820  Biso   1.000  C
  H21      1.0000 0.63290  0.71170  0.24210  Biso   1.000  H
  C32      1.0000 0.72410  0.81600  0.22300  Biso   1.000  C
  H22      1.0000 0.74120  0.79930  0.16770  Biso   1.000  H
  C33      1.0000 0.76480  0.89380  0.25950  Biso   1.000  C
  C34      1.0000 0.73480  0.91510  0.34220  Biso   1.000  C
  H23      1.0000 0.75980  0.96690  0.36960  Biso   1.000  H
  C35      1.0000 0.66740  0.85830  0.38300  Biso   1.000  C
  H24      1.0000 0.64740  0.87370  0.43790  Biso   1.000  H
  C36      1.0000 0.83340  0.95280  0.21250  Biso   1.000  C
  N27      1.0000 0.42270  0.74280  0.30460  Biso   1.000  N
  N28      1.0000 0.16190  0.90670  0.11250  Biso   1.000  N
  N29      1.0000 0.10130  0.90550  0.04210  Biso   1.000  N
  N30      1.0000 0.11200  0.82830  0.00190  Biso   1.000  N
  N31      1.0000 0.17950  0.77680  0.04360  Biso   1.000  N
  N32      1.0000 0.62990  0.78280  0.34730  Biso   1.000  N
  N33      1.0000 0.87560  0.92400  0.13910  Biso   1.000  N
  N34      1.0000 0.92850  0.99470  0.11380  Biso   1.000  N
  N35      1.0000 0.91790  0.06340  0.16700  Biso   1.000  N
  N36      1.0000 0.85820  0.03720  0.23110  Biso   1.000  N
  N37      1.0000 0.91630  0.87600  0.94740  Biso   1.000  N
  N38      1.0000 0.83040  0.86160  0.94390  Biso   1.000  N
  N39      1.0000 0.74430  0.84670  0.94070  Biso   1.000  N
  Cu4      1.0000 0.47853  0.29555  0.60106  Biso   1.000  Cu
  C37      1.0000 0.10910  0.18880  0.25540  Biso   1.000  C
  H25      1.0000 0.08390  0.12990  0.25440  Biso   1.000  H
  C38      1.0000 0.17700  0.21100  0.32070  Biso   1.000  C
  H26      1.0000 0.19520  0.16890  0.36290  Biso   1.000  H
  C39      1.0000 0.21760  0.29670  0.32250  Biso   1.000  C
  C40      1.0000 0.18560  0.35560  0.25660  Biso   1.000  C
  H27      1.0000 0.20990  0.41480  0.25560  Biso   1.000  H
  C41      1.0000 0.11930  0.32640  0.19440  Biso   1.000  C
  H28      1.0000 0.10200  0.36540  0.14930  Biso   1.000  H
  C42      1.0000 0.29190  0.32650  0.38800  Biso   1.000  C
  C43      1.0000 0.84110  0.26390  0.23180  Biso   1.000  C
  H29      1.0000 0.86710  0.21170  0.25790  Biso   1.000  H
  C44      1.0000 0.77590  0.31600  0.27700  Biso   1.000  C
  H30      1.0000 0.75880  0.29930  0.33230  Biso   1.000  H
  C45      1.0000 0.73520  0.39380  0.24050  Biso   1.000  C
  C46      1.0000 0.76520  0.41510  0.15780  Biso   1.000  C
  H31      1.0000 0.74020  0.46690  0.13040  Biso   1.000  H
  C47      1.0000 0.83260  0.35830  0.11700  Biso   1.000  C
  H32      1.0000 0.85260  0.37370  0.06210  Biso   1.000  H
  C48      1.0000 0.66660  0.45280  0.28750  Biso   1.000  C
  N40      1.0000 0.07730  0.24280  0.19540  Biso   1.000  N
  N41      1.0000 0.33810  0.40670  0.38750  Biso   1.000  N
  N42      1.0000 0.39870  0.40550  0.45790  Biso   1.000  N
  N43      1.0000 0.38800  0.32830  0.49810  Biso   1.000  N
  N44      1.0000 0.32050  0.27680  0.45640  Biso   1.000  N
  N45      1.0000 0.87010  0.28280  0.15270  Biso   1.000  N
  N46      1.0000 0.62440  0.42400  0.36090  Biso   1.000  N
  N47      1.0000 0.57150  0.49470  0.38620  Biso   1.000  N
  N48      1.0000 0.58210  0.56340  0.33300  Biso   1.000  N
  N49      1.0000 0.64180  0.53720  0.26890  Biso   1.000  N
  N50      1.0000 0.58370  0.37600  0.55260  Biso   1.000  N
  N51      1.0000 0.66960  0.36160  0.55610  Biso   1.000  N
  N52      1.0000 0.75570  0.34670  0.55930  Biso   1.000  N
  Cu5      1.0000 0.00000  0.00000  0.00000  Biso   1.000  Cu
  Cu6      1.0000 0.50000  0.50000  0.50000  Biso   1.000  Cu
