data_image0
_cell_length_a       13.598
_cell_length_b       15.095
_cell_length_c       15.251
_cell_angle_alpha    90
_cell_angle_beta     93.613
_cell_angle_gamma    90

_symmetry_space_group_name_H-M    "P 1"
_symmetry_int_tables_number       1

loop_
  _symmetry_equiv_pos_as_xyz
  'x, y, z'

loop_
  _atom_site_label
  _atom_site_occupancy
  _atom_site_fract_x
  _atom_site_fract_y
  _atom_site_fract_z
  _atom_site_thermal_displace_type
  _atom_site_B_iso_or_equiv
  _atom_site_type_symbol
  Cu1      1.0000 0.05454  0.81385  0.39589  Biso   1.000  Cu
  C1       1.0000 0.31700  0.15850  0.12210  Biso   1.000  C
  H1       1.0000 0.33910  0.14290  0.06770  Biso   1.000  H
  C2       1.0000 0.25810  0.09980  0.16390  Biso   1.000  C
  H2       1.0000 0.24140  0.04560  0.13810  Biso   1.000  H
  C3       1.0000 0.22410  0.12210  0.24430  Biso   1.000  C
  C4       1.0000 0.25140  0.20270  0.27940  Biso   1.000  C
  H3       1.0000 0.22950  0.22020  0.33330  Biso   1.000  H
  C5       1.0000 0.31070  0.25710  0.23490  Biso   1.000  C
  H4       1.0000 0.32930  0.31110  0.26010  Biso   1.000  H
  C6       1.0000 0.16280  0.06190  0.29350  Biso   1.000  C
  C7       1.0000 0.58020  0.18670  0.19300  Biso   1.000  C
  H5       1.0000 0.55630  0.15000  0.14760  Biso   1.000  H
  C8       1.0000 0.65040  0.15390  0.25300  Biso   1.000  C
  H6       1.0000 0.67490  0.09680  0.24710  Biso   1.000  H
  C9       1.0000 0.68360  0.20660  0.32180  Biso   1.000  C
  C10      1.0000 0.64510  0.28910  0.32650  Biso   1.000  C
  H7       1.0000 0.66480  0.32580  0.37330  Biso   1.000  H
  C11      1.0000 0.57800  0.31860  0.26350  Biso   1.000  C
  H8       1.0000 0.55410  0.37620  0.26740  Biso   1.000  H
  C12      1.0000 0.76110  0.17270  0.38650  Biso   1.000  C
  N1       1.0000 0.34360  0.23640  0.15600  Biso   1.000  N
  N2       1.0000 0.14990  0.97640  0.27530  Biso   1.000  N
  N3       1.0000 0.09220  0.94790  0.33750  Biso   1.000  N
  N4       1.0000 0.07310  0.01410  0.38980  Biso   1.000  N
  N5       1.0000 0.11650  0.08690  0.36430  Biso   1.000  N
  N6       1.0000 0.54520  0.26800  0.19670  Biso   1.000  N
  N7       1.0000 0.80790  0.09620  0.37780  Biso   1.000  N
  N8       1.0000 0.86960  0.09170  0.44820  Biso   1.000  N
  N9       1.0000 0.86060  0.16480  0.49500  Biso   1.000  N
  N10      1.0000 0.79090  0.21710  0.45800  Biso   1.000  N
  N11      1.0000 0.94800  0.88290  0.45030  Biso   1.000  N
  N12      1.0000 0.86420  0.86370  0.44490  Biso   1.000  N
  N13      1.0000 0.78200  0.84330  0.43910  Biso   1.000  N
  Cu2      1.0000 0.44546  0.31385  0.10411  Biso   1.000  Cu
  C13      1.0000 0.18300  0.65850  0.37790  Biso   1.000  C
  H9       1.0000 0.16090  0.64290  0.43230  Biso   1.000  H
  C14      1.0000 0.24190  0.59980  0.33610  Biso   1.000  C
  H10      1.0000 0.25860  0.54560  0.36190  Biso   1.000  H
  C15      1.0000 0.27590  0.62210  0.25570  Biso   1.000  C
  C16      1.0000 0.24860  0.70270  0.22060  Biso   1.000  C
  H11      1.0000 0.27050  0.72020  0.16670  Biso   1.000  H
  C17      1.0000 0.18930  0.75710  0.26510  Biso   1.000  C
  H12      1.0000 0.17070  0.81110  0.23990  Biso   1.000  H
  C18      1.0000 0.33720  0.56190  0.20650  Biso   1.000  C
  C19      1.0000 0.91980  0.68670  0.30700  Biso   1.000  C
  H13      1.0000 0.94370  0.65000  0.35240  Biso   1.000  H
  C20      1.0000 0.84960  0.65390  0.24700  Biso   1.000  C
  H14      1.0000 0.82510  0.59680  0.25290  Biso   1.000  H
  C21      1.0000 0.81640  0.70660  0.17820  Biso   1.000  C
  C22      1.0000 0.85490  0.78910  0.17350  Biso   1.000  C
  H15      1.0000 0.83520  0.82580  0.12670  Biso   1.000  H
  C23      1.0000 0.92200  0.81860  0.23650  Biso   1.000  C
  H16      1.0000 0.94590  0.87620  0.23260  Biso   1.000  H
  C24      1.0000 0.73890  0.67270  0.11350  Biso   1.000  C
  N14      1.0000 0.15640  0.73640  0.34400  Biso   1.000  N
  N15      1.0000 0.35010  0.47640  0.22470  Biso   1.000  N
  N16      1.0000 0.40780  0.44790  0.16250  Biso   1.000  N
  N17      1.0000 0.42690  0.51410  0.11020  Biso   1.000  N
  N18      1.0000 0.38350  0.58690  0.13570  Biso   1.000  N
  N19      1.0000 0.95480  0.76800  0.30330  Biso   1.000  N
  N20      1.0000 0.69210  0.59620  0.12220  Biso   1.000  N
  N21      1.0000 0.63040  0.59170  0.05180  Biso   1.000  N
  N22      1.0000 0.63940  0.66480  0.00500  Biso   1.000  N
  N23      1.0000 0.70910  0.71710  0.04200  Biso   1.000  N
  N24      1.0000 0.55200  0.38290  0.04970  Biso   1.000  N
  N25      1.0000 0.63580  0.36370  0.05510  Biso   1.000  N
  N26      1.0000 0.71800  0.34330  0.06090  Biso   1.000  N
  Cu3      1.0000 0.94546  0.18615  0.60411  Biso   1.000  Cu
  C25      1.0000 0.68300  0.84150  0.87790  Biso   1.000  C
  H17      1.0000 0.66090  0.85710  0.93230  Biso   1.000  H
  C26      1.0000 0.74190  0.90020  0.83610  Biso   1.000  C
  H18      1.0000 0.75860  0.95440  0.86190  Biso   1.000  H
  C27      1.0000 0.77590  0.87790  0.75570  Biso   1.000  C
  C28      1.0000 0.74860  0.79730  0.72060  Biso   1.000  C
  H19      1.0000 0.77050  0.77980  0.66670  Biso   1.000  H
  C29      1.0000 0.68930  0.74290  0.76510  Biso   1.000  C
  H20      1.0000 0.67070  0.68890  0.73990  Biso   1.000  H
  C30      1.0000 0.83720  0.93810  0.70650  Biso   1.000  C
  C31      1.0000 0.41980  0.81330  0.80700  Biso   1.000  C
  H21      1.0000 0.44370  0.85000  0.85240  Biso   1.000  H
  C32      1.0000 0.34960  0.84610  0.74700  Biso   1.000  C
  H22      1.0000 0.32510  0.90320  0.75290  Biso   1.000  H
  C33      1.0000 0.31640  0.79340  0.67820  Biso   1.000  C
  C34      1.0000 0.35490  0.71090  0.67350  Biso   1.000  C
  H23      1.0000 0.33520  0.67420  0.62670  Biso   1.000  H
  C35      1.0000 0.42200  0.68140  0.73650  Biso   1.000  C
  H24      1.0000 0.44590  0.62380  0.73260  Biso   1.000  H
  C36      1.0000 0.23890  0.82730  0.61350  Biso   1.000  C
  N27      1.0000 0.65640  0.76360  0.84400  Biso   1.000  N
  N28      1.0000 0.85010  0.02360  0.72470  Biso   1.000  N
  N29      1.0000 0.90780  0.05210  0.66250  Biso   1.000  N
  N30      1.0000 0.92690  0.98590  0.61020  Biso   1.000  N
  N31      1.0000 0.88350  0.91310  0.63570  Biso   1.000  N
  N32      1.0000 0.45480  0.73200  0.80330  Biso   1.000  N
  N33      1.0000 0.19210  0.90380  0.62220  Biso   1.000  N
  N34      1.0000 0.13040  0.90830  0.55180  Biso   1.000  N
  N35      1.0000 0.13940  0.83520  0.50500  Biso   1.000  N
  N36      1.0000 0.20910  0.78290  0.54200  Biso   1.000  N
  N37      1.0000 0.05200  0.11710  0.54970  Biso   1.000  N
  N38      1.0000 0.13580  0.13630  0.55510  Biso   1.000  N
  N39      1.0000 0.21800  0.15670  0.56090  Biso   1.000  N
  Cu4      1.0000 0.55454  0.68615  0.89589  Biso   1.000  Cu
  C37      1.0000 0.81700  0.34150  0.62210  Biso   1.000  C
  H25      1.0000 0.83910  0.35710  0.56770  Biso   1.000  H
  C38      1.0000 0.75810  0.40020  0.66390  Biso   1.000  C
  H26      1.0000 0.74140  0.45440  0.63810  Biso   1.000  H
  C39      1.0000 0.72410  0.37790  0.74430  Biso   1.000  C
  C40      1.0000 0.75140  0.29730  0.77940  Biso   1.000  C
  H27      1.0000 0.72950  0.27980  0.83330  Biso   1.000  H
  C41      1.0000 0.81070  0.24290  0.73490  Biso   1.000  C
  H28      1.0000 0.82930  0.18890  0.76010  Biso   1.000  H
  C42      1.0000 0.66280  0.43810  0.79350  Biso   1.000  C
  C43      1.0000 0.08020  0.31330  0.69300  Biso   1.000  C
  H29      1.0000 0.05630  0.35000  0.64760  Biso   1.000  H
  C44      1.0000 0.15040  0.34610  0.75300  Biso   1.000  C
  H30      1.0000 0.17490  0.40320  0.74710  Biso   1.000  H
  C45      1.0000 0.18360  0.29340  0.82180  Biso   1.000  C
  C46      1.0000 0.14510  0.21090  0.82650  Biso   1.000  C
  H31      1.0000 0.16480  0.17420  0.87330  Biso   1.000  H
  C47      1.0000 0.07800  0.18140  0.76350  Biso   1.000  C
  H32      1.0000 0.05410  0.12380  0.76740  Biso   1.000  H
  C48      1.0000 0.26110  0.32730  0.88650  Biso   1.000  C
  N40      1.0000 0.84360  0.26360  0.65600  Biso   1.000  N
  N41      1.0000 0.64990  0.52360  0.77530  Biso   1.000  N
  N42      1.0000 0.59220  0.55210  0.83750  Biso   1.000  N
  N43      1.0000 0.57310  0.48590  0.88980  Biso   1.000  N
  N44      1.0000 0.61650  0.41310  0.86430  Biso   1.000  N
  N45      1.0000 0.04520  0.23200  0.69670  Biso   1.000  N
  N46      1.0000 0.30790  0.40380  0.87780  Biso   1.000  N
  N47      1.0000 0.36960  0.40830  0.94820  Biso   1.000  N
  N48      1.0000 0.36060  0.33520  0.99500  Biso   1.000  N
  N49      1.0000 0.29090  0.28290  0.95800  Biso   1.000  N
  N50      1.0000 0.44800  0.61710  0.95030  Biso   1.000  N
  N51      1.0000 0.36420  0.63630  0.94490  Biso   1.000  N
  N52      1.0000 0.28200  0.65670  0.93910  Biso   1.000  N
  Cu5      1.0000 0.00000  0.00000  0.50000  Biso   1.000  Cu
  Cu6      1.0000 0.50000  0.50000  0.00000  Biso   1.000  Cu
