data_image0
_cell_length_a       12.825
_cell_length_b       14.903
_cell_length_c       15.963
_cell_angle_alpha    90
_cell_angle_beta     92.847
_cell_angle_gamma    90

_symmetry_space_group_name_H-M    "P 1"
_symmetry_int_tables_number       1

loop_
  _symmetry_equiv_pos_as_xyz
  'x, y, z'

loop_
  _atom_site_label
  _atom_site_occupancy
  _atom_site_fract_x
  _atom_site_fract_y
  _atom_site_fract_z
  _atom_site_thermal_displace_type
  _atom_site_B_iso_or_equiv
  _atom_site_type_symbol
  Cu1      1.0000 0.97122  0.19670  0.10749  Biso   1.000  Cu
  C1       1.0000 0.59880  0.31460  0.76500  Biso   1.000  C
  H1       1.0000 0.57240  0.37260  0.76650  Biso   1.000  H
  C2       1.0000 0.66740  0.28650  0.82920  Biso   1.000  C
  H2       1.0000 0.68490  0.32510  0.87350  Biso   1.000  H
  C3       1.0000 0.70960  0.20210  0.82790  Biso   1.000  C
  C4       1.0000 0.68000  0.14740  0.76080  Biso   1.000  C
  H3       1.0000 0.70620  0.08950  0.75720  Biso   1.000  H
  C5       1.0000 0.61120  0.18030  0.69990  Biso   1.000  C
  H4       1.0000 0.59270  0.14330  0.65460  Biso   1.000  H
  C6       1.0000 0.78300  0.17020  0.89420  Biso   1.000  C
  C7       1.0000 0.32250  0.25260  0.73130  Biso   1.000  C
  H5       1.0000 0.34550  0.30660  0.75490  Biso   1.000  H
  C8       1.0000 0.25620  0.20120  0.77500  Biso   1.000  C
  H6       1.0000 0.23470  0.22050  0.82680  Biso   1.000  H
  C9       1.0000 0.22110  0.12060  0.74230  Biso   1.000  C
  C10      1.0000 0.25400  0.09680  0.66400  Biso   1.000  C
  H7       1.0000 0.23110  0.04370  0.63860  Biso   1.000  H
  C11      1.0000 0.32120  0.15320  0.62420  Biso   1.000  C
  H8       1.0000 0.34320  0.13650  0.57180  Biso   1.000  H
  C12      1.0000 0.15550  0.06040  0.79000  Biso   1.000  C
  N1       1.0000 0.56950  0.26160  0.70150  Biso   1.000  N
  N2       1.0000 0.81060  0.21840  0.96290  Biso   1.000  N
  N3       1.0000 0.87910  0.16610  0.00440  Biso   1.000  N
  N4       1.0000 0.89270  0.09150  0.96160  Biso   1.000  N
  N5       1.0000 0.83270  0.09240  0.89220  Biso   1.000  N
  N6       1.0000 0.35590  0.22990  0.65710  Biso   1.000  N
  N7       1.0000 0.11750  0.08450  0.86310  Biso   1.000  N
  N8       1.0000 0.06970  0.01210  0.88850  Biso   1.000  N
  N9       1.0000 0.07920  0.94560  0.83370  Biso   1.000  N
  N10      1.0000 0.13440  0.97520  0.77050  Biso   1.000  N
  N11      1.0000 0.08430  0.12610  0.05780  Biso   1.000  N
  N12      1.0000 0.17010  0.13780  0.07090  Biso   1.000  N
  N13      1.0000 0.25600  0.14530  0.08680  Biso   1.000  N
  Cu2      1.0000 0.52878  0.69670  0.39251  Biso   1.000  Cu
  C13      1.0000 0.90120  0.81460  0.73500  Biso   1.000  C
  H9       1.0000 0.92760  0.87260  0.73350  Biso   1.000  H
  C14      1.0000 0.83260  0.78650  0.67080  Biso   1.000  C
  H10      1.0000 0.81510  0.82510  0.62650  Biso   1.000  H
  C15      1.0000 0.79040  0.70210  0.67210  Biso   1.000  C
  C16      1.0000 0.82000  0.64740  0.73920  Biso   1.000  C
  H11      1.0000 0.79380  0.58950  0.74280  Biso   1.000  H
  C17      1.0000 0.88880  0.68030  0.80010  Biso   1.000  C
  H12      1.0000 0.90730  0.64330  0.84540  Biso   1.000  H
  C18      1.0000 0.71700  0.67020  0.60580  Biso   1.000  C
  C19      1.0000 0.17750  0.75260  0.76870  Biso   1.000  C
  H13      1.0000 0.15450  0.80660  0.74510  Biso   1.000  H
  C20      1.0000 0.24380  0.70120  0.72500  Biso   1.000  C
  H14      1.0000 0.26530  0.72050  0.67320  Biso   1.000  H
  C21      1.0000 0.27890  0.62060  0.75770  Biso   1.000  C
  C22      1.0000 0.24600  0.59680  0.83600  Biso   1.000  C
  H15      1.0000 0.26890  0.54370  0.86140  Biso   1.000  H
  C23      1.0000 0.17880  0.65320  0.87580  Biso   1.000  C
  H16      1.0000 0.15680  0.63650  0.92820  Biso   1.000  H
  C24      1.0000 0.34450  0.56040  0.71000  Biso   1.000  C
  N14      1.0000 0.93050  0.76160  0.79850  Biso   1.000  N
  N15      1.0000 0.68940  0.71840  0.53710  Biso   1.000  N
  N16      1.0000 0.62090  0.66610  0.49560  Biso   1.000  N
  N17      1.0000 0.60730  0.59150  0.53840  Biso   1.000  N
  N18      1.0000 0.66730  0.59240  0.60780  Biso   1.000  N
  N19      1.0000 0.14410  0.72990  0.84290  Biso   1.000  N
  N20      1.0000 0.38250  0.58450  0.63690  Biso   1.000  N
  N21      1.0000 0.43030  0.51210  0.61150  Biso   1.000  N
  N22      1.0000 0.42080  0.44560  0.66630  Biso   1.000  N
  N23      1.0000 0.36560  0.47520  0.72950  Biso   1.000  N
  N24      1.0000 0.41570  0.62610  0.44220  Biso   1.000  N
  N25      1.0000 0.32990  0.63780  0.42910  Biso   1.000  N
  N26      1.0000 0.24400  0.64530  0.41320  Biso   1.000  N
  Cu3      1.0000 0.02878  0.80330  0.89251  Biso   1.000  Cu
  C25      1.0000 0.40120  0.68540  0.23500  Biso   1.000  C
  H17      1.0000 0.42760  0.62740  0.23350  Biso   1.000  H
  C26      1.0000 0.33260  0.71350  0.17080  Biso   1.000  C
  H18      1.0000 0.31510  0.67490  0.12650  Biso   1.000  H
  C27      1.0000 0.29040  0.79790  0.17210  Biso   1.000  C
  C28      1.0000 0.32000  0.85260  0.23920  Biso   1.000  C
  H19      1.0000 0.29380  0.91050  0.24280  Biso   1.000  H
  C29      1.0000 0.38880  0.81970  0.30010  Biso   1.000  C
  H20      1.0000 0.40730  0.85670  0.34540  Biso   1.000  H
  C30      1.0000 0.21700  0.82980  0.10580  Biso   1.000  C
  C31      1.0000 0.67750  0.74740  0.26870  Biso   1.000  C
  H21      1.0000 0.65450  0.69340  0.24510  Biso   1.000  H
  C32      1.0000 0.74380  0.79880  0.22500  Biso   1.000  C
  H22      1.0000 0.76530  0.77950  0.17320  Biso   1.000  H
  C33      1.0000 0.77890  0.87940  0.25770  Biso   1.000  C
  C34      1.0000 0.74600  0.90320  0.33600  Biso   1.000  C
  H23      1.0000 0.76890  0.95630  0.36140  Biso   1.000  H
  C35      1.0000 0.67880  0.84680  0.37580  Biso   1.000  C
  H24      1.0000 0.65680  0.86350  0.42820  Biso   1.000  H
  C36      1.0000 0.84450  0.93960  0.21000  Biso   1.000  C
  N27      1.0000 0.43050  0.73840  0.29850  Biso   1.000  N
  N28      1.0000 0.18940  0.78160  0.03710  Biso   1.000  N
  N29      1.0000 0.12090  0.83390  0.99560  Biso   1.000  N
  N30      1.0000 0.10730  0.90850  0.03840  Biso   1.000  N
  N31      1.0000 0.16730  0.90760  0.10780  Biso   1.000  N
  N32      1.0000 0.64410  0.77010  0.34290  Biso   1.000  N
  N33      1.0000 0.88250  0.91550  0.13690  Biso   1.000  N
  N34      1.0000 0.93030  0.98790  0.11150  Biso   1.000  N
  N35      1.0000 0.92080  0.05440  0.16630  Biso   1.000  N
  N36      1.0000 0.86560  0.02480  0.22950  Biso   1.000  N
  N37      1.0000 0.91570  0.87390  0.94220  Biso   1.000  N
  N38      1.0000 0.82990  0.86220  0.92910  Biso   1.000  N
  N39      1.0000 0.74400  0.85470  0.91320  Biso   1.000  N
  Cu4      1.0000 0.47122  0.30330  0.60749  Biso   1.000  Cu
  C37      1.0000 0.09880  0.18540  0.26500  Biso   1.000  C
  H25      1.0000 0.07240  0.12740  0.26650  Biso   1.000  H
  C38      1.0000 0.16740  0.21350  0.32920  Biso   1.000  C
  H26      1.0000 0.18490  0.17490  0.37350  Biso   1.000  H
  C39      1.0000 0.20960  0.29790  0.32790  Biso   1.000  C
  C40      1.0000 0.18000  0.35260  0.26080  Biso   1.000  C
  H27      1.0000 0.20620  0.41050  0.25720  Biso   1.000  H
  C41      1.0000 0.11120  0.31970  0.19990  Biso   1.000  C
  H28      1.0000 0.09270  0.35670  0.15460  Biso   1.000  H
  C42      1.0000 0.28300  0.32980  0.39420  Biso   1.000  C
  C43      1.0000 0.82250  0.24740  0.23130  Biso   1.000  C
  H29      1.0000 0.84550  0.19340  0.25490  Biso   1.000  H
  C44      1.0000 0.75620  0.29880  0.27500  Biso   1.000  C
  H30      1.0000 0.73470  0.27950  0.32680  Biso   1.000  H
  C45      1.0000 0.72110  0.37940  0.24230  Biso   1.000  C
  C46      1.0000 0.75400  0.40320  0.16400  Biso   1.000  C
  H31      1.0000 0.73110  0.45630  0.13860  Biso   1.000  H
  C47      1.0000 0.82120  0.34680  0.12420  Biso   1.000  C
  H32      1.0000 0.84320  0.36350  0.07180  Biso   1.000  H
  C48      1.0000 0.65550  0.43960  0.29000  Biso   1.000  C
  N40      1.0000 0.06950  0.23840  0.20150  Biso   1.000  N
  N41      1.0000 0.31060  0.28160  0.46290  Biso   1.000  N
  N42      1.0000 0.37910  0.33390  0.50440  Biso   1.000  N
  N43      1.0000 0.39270  0.40850  0.46160  Biso   1.000  N
  N44      1.0000 0.33270  0.40760  0.39220  Biso   1.000  N
  N45      1.0000 0.85590  0.27010  0.15710  Biso   1.000  N
  N46      1.0000 0.61750  0.41550  0.36310  Biso   1.000  N
  N47      1.0000 0.56970  0.48790  0.38850  Biso   1.000  N
  N48      1.0000 0.57920  0.55440  0.33370  Biso   1.000  N
  N49      1.0000 0.63440  0.52480  0.27050  Biso   1.000  N
  N50      1.0000 0.58430  0.37390  0.55780  Biso   1.000  N
  N51      1.0000 0.67010  0.36220  0.57090  Biso   1.000  N
  N52      1.0000 0.75600  0.35470  0.58680  Biso   1.000  N
  Cu5      1.0000 0.00000  0.00000  0.00000  Biso   1.000  Cu
  Cu6      1.0000 0.50000  0.50000  0.50000  Biso   1.000  Cu
