data_image0
_cell_length_a       13.111
_cell_length_b       14.791
_cell_length_c       15.671
_cell_angle_alpha    90
_cell_angle_beta     92.625
_cell_angle_gamma    90

_symmetry_space_group_name_H-M    "P 1"
_symmetry_int_tables_number       1

loop_
  _symmetry_equiv_pos_as_xyz
  'x, y, z'

loop_
  _atom_site_label
  _atom_site_occupancy
  _atom_site_fract_x
  _atom_site_fract_y
  _atom_site_fract_z
  _atom_site_thermal_displace_type
  _atom_site_B_iso_or_equiv
  _atom_site_type_symbol
  Cu1      1.0000 0.52586  0.19820  0.39180  Biso   1.000  Cu
  C1       1.0000 0.88740  0.17890  0.79990  Biso   1.000  C
  H1       1.0000 0.90630  0.14120  0.84550  Biso   1.000  H
  C2       1.0000 0.81840  0.14720  0.73830  Biso   1.000  C
  H2       1.0000 0.79230  0.08900  0.74160  Biso   1.000  H
  C3       1.0000 0.78860  0.20370  0.67110  Biso   1.000  C
  C4       1.0000 0.82960  0.28870  0.66940  Biso   1.000  C
  H3       1.0000 0.81060  0.32850  0.62550  Biso   1.000  H
  C5       1.0000 0.89920  0.31520  0.73290  Biso   1.000  C
  H4       1.0000 0.92690  0.37300  0.73090  Biso   1.000  H
  C6       1.0000 0.71330  0.17280  0.60600  Biso   1.000  C
  C7       1.0000 0.16930  0.24810  0.76520  Biso   1.000  C
  H5       1.0000 0.14740  0.30270  0.74120  Biso   1.000  H
  C8       1.0000 0.23530  0.19510  0.72080  Biso   1.000  C
  H6       1.0000 0.25730  0.21370  0.66800  Biso   1.000  H
  C9       1.0000 0.26840  0.11350  0.75590  Biso   1.000  C
  C10      1.0000 0.23320  0.09000  0.83420  Biso   1.000  C
  H7       1.0000 0.25370  0.03580  0.85980  Biso   1.000  H
  C11      1.0000 0.16770  0.14640  0.87450  Biso   1.000  C
  H8       1.0000 0.14500  0.12930  0.92760  Biso   1.000  H
  C12      1.0000 0.33600  0.05550  0.70861  Biso   1.000  C
  N1       1.0000 0.92800  0.26072  0.79724  Biso   1.000  N
  N2       1.0000 0.68540  0.22122  0.53608  Biso   1.000  N
  N3       1.0000 0.61610  0.16957  0.49612  Biso   1.000  N
  N4       1.0000 0.60300  0.09381  0.53972  Biso   1.000  N
  N5       1.0000 0.66390  0.09377  0.60968  Biso   1.000  N
  N6       1.0000 0.13540  0.22434  0.84097  Biso   1.000  N
  N7       1.0000 0.37850  0.08184  0.63626  Biso   1.000  N
  N8       1.0000 0.42960  0.00954  0.61246  Biso   1.000  N
  N9       1.0000 0.41880  0.94268  0.66698  Biso   1.000  N
  N10      1.0000 0.36000  0.96976  0.72915  Biso   1.000  N
  N11      1.0000 0.41690  0.12503  0.44235  Biso   1.000  N
  N12      1.0000 0.33060  0.13560  0.42810  Biso   1.000  N
  N13      1.0000 0.24510  0.14490  0.41480  Biso   1.000  N
  Cu2      1.0000 0.97414  0.69820  0.10820  Biso   1.000  Cu
  C13      1.0000 0.61260  0.67890  0.70010  Biso   1.000  C
  H9       1.0000 0.59370  0.64120  0.65450  Biso   1.000  H
  C14      1.0000 0.68160  0.64720  0.76170  Biso   1.000  C
  H10      1.0000 0.70770  0.58900  0.75840  Biso   1.000  H
  C15      1.0000 0.71140  0.70370  0.82890  Biso   1.000  C
  C16      1.0000 0.67040  0.78870  0.83060  Biso   1.000  C
  H11      1.0000 0.68940  0.82850  0.87450  Biso   1.000  H
  C17      1.0000 0.60080  0.81520  0.76710  Biso   1.000  C
  H12      1.0000 0.57310  0.87300  0.76910  Biso   1.000  H
  C18      1.0000 0.78670  0.67280  0.89400  Biso   1.000  C
  C19      1.0000 0.33070  0.74810  0.73480  Biso   1.000  C
  H13      1.0000 0.35260  0.80270  0.75880  Biso   1.000  H
  C20      1.0000 0.26470  0.69510  0.77920  Biso   1.000  C
  H14      1.0000 0.24270  0.71370  0.83200  Biso   1.000  H
  C21      1.0000 0.23160  0.61350  0.74410  Biso   1.000  C
  C22      1.0000 0.26680  0.59000  0.66580  Biso   1.000  C
  H15      1.0000 0.24630  0.53580  0.64020  Biso   1.000  H
  C23      1.0000 0.33230  0.64640  0.62550  Biso   1.000  C
  H16      1.0000 0.35500  0.62930  0.57240  Biso   1.000  H
  C24      1.0000 0.16400  0.55550  0.79139  Biso   1.000  C
  N14      1.0000 0.57200  0.76072  0.70276  Biso   1.000  N
  N15      1.0000 0.81460  0.72122  0.96392  Biso   1.000  N
  N16      1.0000 0.88390  0.66957  0.00388  Biso   1.000  N
  N17      1.0000 0.89700  0.59381  0.96028  Biso   1.000  N
  N18      1.0000 0.83610  0.59377  0.89032  Biso   1.000  N
  N19      1.0000 0.36460  0.72434  0.65903  Biso   1.000  N
  N20      1.0000 0.12150  0.58184  0.86374  Biso   1.000  N
  N21      1.0000 0.07040  0.50954  0.88754  Biso   1.000  N
  N22      1.0000 0.08120  0.44268  0.83302  Biso   1.000  N
  N23      1.0000 0.14000  0.46976  0.77085  Biso   1.000  N
  N24      1.0000 0.08310  0.62503  0.05765  Biso   1.000  N
  N25      1.0000 0.16940  0.63560  0.07190  Biso   1.000  N
  N26      1.0000 0.25490  0.64490  0.08520  Biso   1.000  N
  Cu3      1.0000 0.47414  0.80180  0.60820  Biso   1.000  Cu
  C25      1.0000 0.11260  0.82110  0.20010  Biso   1.000  C
  H17      1.0000 0.09370  0.85880  0.15450  Biso   1.000  H
  C26      1.0000 0.18160  0.85280  0.26170  Biso   1.000  C
  H18      1.0000 0.20770  0.91100  0.25840  Biso   1.000  H
  C27      1.0000 0.21140  0.79630  0.32890  Biso   1.000  C
  C28      1.0000 0.17040  0.71130  0.33060  Biso   1.000  C
  H19      1.0000 0.18940  0.67150  0.37450  Biso   1.000  H
  C29      1.0000 0.10080  0.68480  0.26710  Biso   1.000  C
  H20      1.0000 0.07310  0.62700  0.26910  Biso   1.000  H
  C30      1.0000 0.28670  0.82720  0.39400  Biso   1.000  C
  C31      1.0000 0.83070  0.75190  0.23480  Biso   1.000  C
  H21      1.0000 0.85260  0.69730  0.25880  Biso   1.000  H
  C32      1.0000 0.76470  0.80490  0.27920  Biso   1.000  C
  H22      1.0000 0.74270  0.78630  0.33200  Biso   1.000  H
  C33      1.0000 0.73160  0.88650  0.24410  Biso   1.000  C
  C34      1.0000 0.76680  0.91000  0.16580  Biso   1.000  C
  H23      1.0000 0.74630  0.96420  0.14020  Biso   1.000  H
  C35      1.0000 0.83230  0.85360  0.12550  Biso   1.000  C
  H24      1.0000 0.85500  0.87070  0.07240  Biso   1.000  H
  C36      1.0000 0.66400  0.94450  0.29139  Biso   1.000  C
  N27      1.0000 0.07200  0.73928  0.20276  Biso   1.000  N
  N28      1.0000 0.31460  0.77878  0.46392  Biso   1.000  N
  N29      1.0000 0.38390  0.83043  0.50388  Biso   1.000  N
  N30      1.0000 0.39700  0.90619  0.46028  Biso   1.000  N
  N31      1.0000 0.33610  0.90623  0.39032  Biso   1.000  N
  N32      1.0000 0.86460  0.77566  0.15903  Biso   1.000  N
  N33      1.0000 0.62150  0.91816  0.36374  Biso   1.000  N
  N34      1.0000 0.57040  0.99046  0.38754  Biso   1.000  N
  N35      1.0000 0.58120  0.05732  0.33302  Biso   1.000  N
  N36      1.0000 0.64000  0.03024  0.27085  Biso   1.000  N
  N37      1.0000 0.58310  0.87497  0.55765  Biso   1.000  N
  N38      1.0000 0.66940  0.86440  0.57190  Biso   1.000  N
  N39      1.0000 0.75490  0.85510  0.58520  Biso   1.000  N
  Cu4      1.0000 0.02586  0.30180  0.89180  Biso   1.000  Cu
  C37      1.0000 0.38740  0.32110  0.29990  Biso   1.000  C
  H25      1.0000 0.40630  0.35880  0.34550  Biso   1.000  H
  C38      1.0000 0.31840  0.35280  0.23830  Biso   1.000  C
  H26      1.0000 0.29230  0.41100  0.24160  Biso   1.000  H
  C39      1.0000 0.28860  0.29630  0.17110  Biso   1.000  C
  C40      1.0000 0.32960  0.21130  0.16940  Biso   1.000  C
  H27      1.0000 0.31060  0.17150  0.12550  Biso   1.000  H
  C41      1.0000 0.39920  0.18480  0.23290  Biso   1.000  C
  H28      1.0000 0.42690  0.12700  0.23090  Biso   1.000  H
  C42      1.0000 0.21330  0.32720  0.10600  Biso   1.000  C
  C43      1.0000 0.66930  0.25190  0.26520  Biso   1.000  C
  H29      1.0000 0.64740  0.19730  0.24120  Biso   1.000  H
  C44      1.0000 0.73530  0.30490  0.22080  Biso   1.000  C
  H30      1.0000 0.75730  0.28630  0.16800  Biso   1.000  H
  C45      1.0000 0.76840  0.38650  0.25590  Biso   1.000  C
  C46      1.0000 0.73320  0.41000  0.33420  Biso   1.000  C
  H31      1.0000 0.75370  0.46420  0.35980  Biso   1.000  H
  C47      1.0000 0.66770  0.35360  0.37450  Biso   1.000  C
  H32      1.0000 0.64500  0.37070  0.42760  Biso   1.000  H
  C48      1.0000 0.83600  0.44450  0.20861  Biso   1.000  C
  N40      1.0000 0.42800  0.23928  0.29724  Biso   1.000  N
  N41      1.0000 0.18540  0.27878  0.03608  Biso   1.000  N
  N42      1.0000 0.11610  0.33043  0.99612  Biso   1.000  N
  N43      1.0000 0.10300  0.40619  0.03972  Biso   1.000  N
  N44      1.0000 0.16390  0.40623  0.10968  Biso   1.000  N
  N45      1.0000 0.63540  0.27566  0.34097  Biso   1.000  N
  N46      1.0000 0.87850  0.41816  0.13626  Biso   1.000  N
  N47      1.0000 0.92960  0.49046  0.11246  Biso   1.000  N
  N48      1.0000 0.91880  0.55732  0.16698  Biso   1.000  N
  N49      1.0000 0.86000  0.53024  0.22915  Biso   1.000  N
  N50      1.0000 0.91690  0.37497  0.94235  Biso   1.000  N
  N51      1.0000 0.83060  0.36440  0.92810  Biso   1.000  N
  N52      1.0000 0.74510  0.35510  0.91480  Biso   1.000  N
  Cu5      1.0000 0.50000  0.00000  0.50000  Biso   1.000  Cu
  Cu6      1.0000 0.00000  0.50000  0.00000  Biso   1.000  Cu
