data_image0
_cell_length_a       13.299
_cell_length_b       14.71
_cell_length_c       15.689
_cell_angle_alpha    90
_cell_angle_beta     93.375
_cell_angle_gamma    90

_symmetry_space_group_name_H-M    "P 1"
_symmetry_int_tables_number       1

loop_
  _symmetry_equiv_pos_as_xyz
  'x, y, z'

loop_
  _atom_site_label
  _atom_site_occupancy
  _atom_site_fract_x
  _atom_site_fract_y
  _atom_site_fract_z
  _atom_site_thermal_displace_type
  _atom_site_B_iso_or_equiv
  _atom_site_type_symbol
  N1       1.0000 0.60680  0.90670  0.03860  Biso   1.000  N
  N2       1.0000 0.43220  0.98660  0.11160  Biso   1.000  N
  N3       1.0000 0.42410  0.87290  0.94010  Biso   1.000  N
  N4       1.0000 0.61900  0.83090  0.99420  Biso   1.000  N
  N5       1.0000 0.66850  0.90660  0.10750  Biso   1.000  N
  N6       1.0000 0.38370  0.91310  0.13560  Biso   1.000  N
  N7       1.0000 0.42090  0.05350  0.16660  Biso   1.000  N
  Cu1      1.0000 0.53354  0.80677  0.88597  Biso   1.000  Cu
  N8       1.0000 0.34150  0.85370  0.93850  Biso   1.000  N
  N9       1.0000 0.68900  0.77900  0.03300  Biso   1.000  N
  C1       1.0000 0.71800  0.82780  0.10260  Biso   1.000  C
  C2       1.0000 0.34240  0.93870  0.20740  Biso   1.000  C
  N10      1.0000 0.36420  0.02480  0.22780  Biso   1.000  N
  N11      1.0000 0.93610  0.73760  0.29190  Biso   1.000  N
  N12      1.0000 0.14230  0.76860  0.33610  Biso   1.000  N
  N13      1.0000 0.25880  0.83720  0.93830  Biso   1.000  N
  C3       1.0000 0.79500  0.79590  0.16670  Biso   1.000  C
  C4       1.0000 0.27570  0.87960  0.25330  Biso   1.000  C
  C5       1.0000 0.83220  0.71100  0.16700  Biso   1.000  C
  C6       1.0000 0.82930  0.85210  0.23150  Biso   1.000  C
  C7       1.0000 0.24300  0.79750  0.21930  Biso   1.000  C
  C8       1.0000 0.24040  0.90270  0.33050  Biso   1.000  C
  C9       1.0000 0.90280  0.68390  0.22980  Biso   1.000  C
  H1       1.0000 0.81020  0.67020  0.12450  Biso   1.000  H
  H2       1.0000 0.80640  0.91170  0.23450  Biso   1.000  H
  C10      1.0000 0.89930  0.81830  0.29280  Biso   1.000  C
  C11      1.0000 0.17770  0.74450  0.26130  Biso   1.000  C
  H3       1.0000 0.26570  0.77820  0.16730  Biso   1.000  H
  H4       1.0000 0.26160  0.95660  0.35690  Biso   1.000  H
  C12      1.0000 0.17340  0.84660  0.36950  Biso   1.000  C
  H5       1.0000 0.92790  0.62500  0.22800  Biso   1.000  H
  H6       1.0000 0.92090  0.85660  0.33730  Biso   1.000  H
  H7       1.0000 0.15700  0.68950  0.23690  Biso   1.000  H
  H8       1.0000 0.14940  0.86460  0.42140  Biso   1.000  H
  N14      1.0000 0.89320  0.40670  0.46140  Biso   1.000  N
  N15      1.0000 0.06780  0.48660  0.38840  Biso   1.000  N
  N16      1.0000 0.07590  0.37290  0.55990  Biso   1.000  N
  N17      1.0000 0.88100  0.33090  0.50580  Biso   1.000  N
  N18      1.0000 0.83150  0.40660  0.39250  Biso   1.000  N
  N19      1.0000 0.11630  0.41310  0.36440  Biso   1.000  N
  N20      1.0000 0.07910  0.55350  0.33340  Biso   1.000  N
  Cu2      1.0000 0.96646  0.30677  0.61403  Biso   1.000  Cu
  N21      1.0000 0.15850  0.35370  0.56150  Biso   1.000  N
  N22      1.0000 0.81100  0.27900  0.46700  Biso   1.000  N
  C13      1.0000 0.78200  0.32780  0.39740  Biso   1.000  C
  C14      1.0000 0.15760  0.43870  0.29260  Biso   1.000  C
  N23      1.0000 0.13580  0.52480  0.27220  Biso   1.000  N
  N24      1.0000 0.56390  0.23760  0.20810  Biso   1.000  N
  N25      1.0000 0.35770  0.26860  0.16390  Biso   1.000  N
  N26      1.0000 0.24120  0.33720  0.56170  Biso   1.000  N
  C15      1.0000 0.70500  0.29590  0.33330  Biso   1.000  C
  C16      1.0000 0.22430  0.37960  0.24670  Biso   1.000  C
  C17      1.0000 0.66780  0.21100  0.33300  Biso   1.000  C
  C18      1.0000 0.67070  0.35210  0.26850  Biso   1.000  C
  C19      1.0000 0.25700  0.29750  0.28070  Biso   1.000  C
  C20      1.0000 0.25960  0.40270  0.16950  Biso   1.000  C
  C21      1.0000 0.59720  0.18390  0.27020  Biso   1.000  C
  H9       1.0000 0.68980  0.17020  0.37550  Biso   1.000  H
  H10      1.0000 0.69360  0.41170  0.26550  Biso   1.000  H
  C22      1.0000 0.60070  0.31830  0.20720  Biso   1.000  C
  C23      1.0000 0.32230  0.24450  0.23870  Biso   1.000  C
  H11      1.0000 0.23430  0.27820  0.33270  Biso   1.000  H
  H12      1.0000 0.23840  0.45660  0.14310  Biso   1.000  H
  C24      1.0000 0.32660  0.34660  0.13050  Biso   1.000  C
  H13      1.0000 0.57210  0.12500  0.27200  Biso   1.000  H
  H14      1.0000 0.57910  0.35660  0.16270  Biso   1.000  H
  H15      1.0000 0.34300  0.18950  0.26310  Biso   1.000  H
  H16      1.0000 0.35060  0.36460  0.07860  Biso   1.000  H
  N27      1.0000 0.39320  0.09330  0.96140  Biso   1.000  N
  N28      1.0000 0.56780  0.01340  0.88840  Biso   1.000  N
  N29      1.0000 0.57590  0.12710  0.05990  Biso   1.000  N
  N30      1.0000 0.38100  0.16910  0.00580  Biso   1.000  N
  N31      1.0000 0.33150  0.09340  0.89250  Biso   1.000  N
  N32      1.0000 0.61630  0.08690  0.86440  Biso   1.000  N
  N33      1.0000 0.57910  0.94650  0.83340  Biso   1.000  N
  Cu3      1.0000 0.46646  0.19323  0.11403  Biso   1.000  Cu
  N34      1.0000 0.65850  0.14630  0.06150  Biso   1.000  N
  N35      1.0000 0.31100  0.22100  0.96700  Biso   1.000  N
  C25      1.0000 0.28200  0.17220  0.89740  Biso   1.000  C
  C26      1.0000 0.65760  0.06130  0.79260  Biso   1.000  C
  N36      1.0000 0.63580  0.97520  0.77220  Biso   1.000  N
  N37      1.0000 0.06390  0.26240  0.70810  Biso   1.000  N
  N38      1.0000 0.85770  0.23140  0.66390  Biso   1.000  N
  N39      1.0000 0.74120  0.16280  0.06170  Biso   1.000  N
  C27      1.0000 0.20500  0.20410  0.83330  Biso   1.000  C
  C28      1.0000 0.72430  0.12040  0.74670  Biso   1.000  C
  C29      1.0000 0.16780  0.28900  0.83300  Biso   1.000  C
  C30      1.0000 0.17070  0.14790  0.76850  Biso   1.000  C
  C31      1.0000 0.75700  0.20250  0.78070  Biso   1.000  C
  C32      1.0000 0.75960  0.09730  0.66950  Biso   1.000  C
  C33      1.0000 0.09720  0.31610  0.77020  Biso   1.000  C
  H17      1.0000 0.18980  0.32980  0.87550  Biso   1.000  H
  H18      1.0000 0.19360  0.08830  0.76550  Biso   1.000  H
  C34      1.0000 0.10070  0.18170  0.70720  Biso   1.000  C
  C35      1.0000 0.82230  0.25550  0.73870  Biso   1.000  C
  H19      1.0000 0.73430  0.22180  0.83270  Biso   1.000  H
  H20      1.0000 0.73840  0.04340  0.64310  Biso   1.000  H
  C36      1.0000 0.82660  0.15340  0.63050  Biso   1.000  C
  H21      1.0000 0.07210  0.37500  0.77200  Biso   1.000  H
  H22      1.0000 0.07910  0.14340  0.66270  Biso   1.000  H
  H23      1.0000 0.84300  0.31050  0.76310  Biso   1.000  H
  H24      1.0000 0.85060  0.13540  0.57860  Biso   1.000  H
  N40      1.0000 0.10680  0.59330  0.53860  Biso   1.000  N
  N41      1.0000 0.93220  0.51340  0.61160  Biso   1.000  N
  N42      1.0000 0.92410  0.62710  0.44010  Biso   1.000  N
  N43      1.0000 0.11900  0.66910  0.49420  Biso   1.000  N
  N44      1.0000 0.16850  0.59340  0.60750  Biso   1.000  N
  N45      1.0000 0.88370  0.58690  0.63560  Biso   1.000  N
  N46      1.0000 0.92090  0.44650  0.66660  Biso   1.000  N
  Cu4      1.0000 0.03354  0.69323  0.38597  Biso   1.000  Cu
  N47      1.0000 0.84150  0.64630  0.43850  Biso   1.000  N
  N48      1.0000 0.18900  0.72100  0.53300  Biso   1.000  N
  C37      1.0000 0.21800  0.67220  0.60260  Biso   1.000  C
  C38      1.0000 0.84240  0.56130  0.70740  Biso   1.000  C
  N49      1.0000 0.86420  0.47520  0.72780  Biso   1.000  N
  N50      1.0000 0.43610  0.76240  0.79190  Biso   1.000  N
  N51      1.0000 0.64230  0.73140  0.83610  Biso   1.000  N
  N52      1.0000 0.75880  0.66280  0.43830  Biso   1.000  N
  C39      1.0000 0.29500  0.70410  0.66670  Biso   1.000  C
  C40      1.0000 0.77570  0.62040  0.75330  Biso   1.000  C
  C41      1.0000 0.33220  0.78900  0.66700  Biso   1.000  C
  C42      1.0000 0.32930  0.64790  0.73150  Biso   1.000  C
  C43      1.0000 0.74300  0.70250  0.71930  Biso   1.000  C
  C44      1.0000 0.74040  0.59730  0.83050  Biso   1.000  C
  C45      1.0000 0.40280  0.81610  0.72980  Biso   1.000  C
  H25      1.0000 0.31020  0.82980  0.62450  Biso   1.000  H
  H26      1.0000 0.30640  0.58830  0.73450  Biso   1.000  H
  C46      1.0000 0.39930  0.68170  0.79280  Biso   1.000  C
  C47      1.0000 0.67770  0.75550  0.76130  Biso   1.000  C
  H27      1.0000 0.76570  0.72180  0.66730  Biso   1.000  H
  H28      1.0000 0.76160  0.54340  0.85690  Biso   1.000  H
  C48      1.0000 0.67340  0.65340  0.86950  Biso   1.000  C
  H29      1.0000 0.42790  0.87500  0.72800  Biso   1.000  H
  H30      1.0000 0.42090  0.64340  0.83730  Biso   1.000  H
  H31      1.0000 0.65700  0.81050  0.73690  Biso   1.000  H
  H32      1.0000 0.64940  0.63540  0.92140  Biso   1.000  H
  Cu5      1.0000 0.50000  0.00000  0.00000  Biso   1.000  Cu
  Cu6      1.0000 0.00000  0.50000  0.50000  Biso   1.000  Cu
