data_QONQEQ
_audit_creation_date              2014-07-16
_audit_creation_method            'Materials Studio'
_symmetry_space_group_name_H-M    'P1'
_symmetry_Int_Tables_number       1
_symmetry_cell_setting            triclinic
loop_
_symmetry_equiv_pos_as_xyz
  x,y,z
_cell_length_a                    6.6540
_cell_length_b                    16.4480
_cell_length_c                    13.3750
_cell_angle_alpha                 90.0000
_cell_angle_beta                  90.0000
_cell_angle_gamma                 90.0000
loop_
_atom_site_label
_atom_site_type_symbol
_atom_site_fract_x
_atom_site_fract_y
_atom_site_fract_z
_atom_site_U_iso_or_equiv
_atom_site_adp_type
_atom_site_occupancy
O1     O     0.16735   0.17417   0.83647   0.00000  Uiso   1.00
C2     C     0.81541   0.03664   0.96825   0.00000  Uiso   1.00
H3     H     0.67291   0.06165   0.94464   0.00000  Uiso   1.00
O4     O     0.66743   0.67392   0.33614   0.00000  Uiso   1.00
C5     C     0.31543   0.53626   0.46768   0.00000  Uiso   1.00
H6     H     0.17298   0.56126   0.44398   0.00000  Uiso   1.00
O7     O     0.82541   0.33109   0.83651   0.00000  Uiso   1.00
C8     C     0.17730   0.46815   0.96911   0.00000  Uiso   1.00
H9     H     0.31980   0.44308   0.94563   0.00000  Uiso   1.00
O10    O     0.32510   0.83100   0.33667   0.00000  Uiso   1.00
C11    C     0.67722   0.96767   0.46974   0.00000  Uiso   1.00
H12    H     0.81968   0.94247   0.44641   0.00000  Uiso   1.00
O13    O     0.82513   0.67420   0.16440   0.00000  Uiso   1.00
C14    C     0.17722   0.53692   0.03234   0.00000  Uiso   1.00
H15    H     0.31966   0.56200   0.05592   0.00000  Uiso   1.00
O16    O     0.32533   0.17411   0.66451   0.00000  Uiso   1.00
C17    C     0.67730   0.03643   0.53298   0.00000  Uiso   1.00
H18    H     0.81978   0.06140   0.55667   0.00000  Uiso   1.00
O19    O     0.16741   0.83104   0.16436   0.00000  Uiso   1.00
C20    C     0.81542   0.96785   0.03145   0.00000  Uiso   1.00
H21    H     0.67296   0.94268   0.05483   0.00000  Uiso   1.00
O22    O     0.66723   0.33095   0.66427   0.00000  Uiso   1.00
C23    C     0.31540   0.46754   0.53097   0.00000  Uiso   1.00
H24    H     0.17289   0.44240   0.55436   0.00000  Uiso   1.00
O25    O     0.82533   0.83100   0.16430   0.00000  Uiso   1.00
C26    C     0.17726   0.96785   0.03143   0.00000  Uiso   1.00
H27    H     0.31976   0.94269   0.05478   0.00000  Uiso   1.00
O28    O     0.32524   0.33093   0.66418   0.00000  Uiso   1.00
C29    C     0.67724   0.46754   0.53100   0.00000  Uiso   1.00
H30    H     0.81969   0.44239   0.55442   0.00000  Uiso   1.00
O31    O     0.16720   0.67425   0.16437   0.00000  Uiso   1.00
C32    C     0.81538   0.53676   0.03249   0.00000  Uiso   1.00
H33    H     0.67290   0.56173   0.05619   0.00000  Uiso   1.00
O34    O     0.66751   0.17402   0.66465   0.00000  Uiso   1.00
C35    C     0.31546   0.03657   0.53284   0.00000  Uiso   1.00
H36    H     0.17303   0.06166   0.55640   0.00000  Uiso   1.00
O37    O     0.16744   0.33118   0.83638   0.00000  Uiso   1.00
C38    C     0.81546   0.46800   0.96926   0.00000  Uiso   1.00
H39    H     0.67301   0.44281   0.94591   0.00000  Uiso   1.00
O40    O     0.66723   0.83094   0.33670   0.00000  Uiso   1.00
C41    C     0.31538   0.96782   0.46961   0.00000  Uiso   1.00
H42    H     0.17288   0.94273   0.44615   0.00000  Uiso   1.00
O43    O     0.82512   0.17419   0.83656   0.00000  Uiso   1.00
C44    C     0.17724   0.03664   0.96823   0.00000  Uiso   1.00
H45    H     0.31967   0.06167   0.94458   0.00000  Uiso   1.00
O46    O     0.32531   0.67396   0.33621   0.00000  Uiso   1.00
C47    C     0.67726   0.53626   0.46770   0.00000  Uiso   1.00
H48    H     0.81973   0.56125   0.44404   0.00000  Uiso   1.00
Al49   Al    0.24614   0.25262   0.75041   0.00000  Uiso   1.00
Al50   Al    0.74628   0.25263   0.75048   0.00000  Uiso   1.00
Al51   Al    0.74603   0.75263   0.25041   0.00000  Uiso   1.00
Al52   Al    0.24611   0.75261   0.25049   0.00000  Uiso   1.00
O53    O    -0.00379   0.25268   0.69682   0.00000  Uiso   1.00
O54    O     0.49605   0.75281   0.19687   0.00000  Uiso   1.00
O55    O    -0.00396   0.75271   0.30409   0.00000  Uiso   1.00
O56    O     0.49620   0.25278   0.80404   0.00000  Uiso   1.00
C57    C    -0.00370   0.07259   0.93560   0.00000  Uiso   1.00
C58    C    -0.00375   0.14506   0.86573   0.00000  Uiso   1.00
C59    C     0.49635   0.57221   0.43504   0.00000  Uiso   1.00
C60    C     0.49637   0.64475   0.36530   0.00000  Uiso   1.00
C61    C    -0.00358   0.43233   0.93620   0.00000  Uiso   1.00
C62    C    -0.00357   0.36016   0.86586   0.00000  Uiso   1.00
C63    C     0.49625   0.93200   0.43667   0.00000  Uiso   1.00
C64    C     0.49618   0.85994   0.36617   0.00000  Uiso   1.00
C65    C    -0.00375   0.57273   0.06514   0.00000  Uiso   1.00
C66    C    -0.00382   0.64511   0.13512   0.00000  Uiso   1.00
C67    C     0.49641   0.07245   0.56556   0.00000  Uiso   1.00
C68    C     0.49643   0.14491   0.63541   0.00000  Uiso   1.00
C69    C    -0.00364   0.93210   0.06443   0.00000  Uiso   1.00
C70    C    -0.00364   0.86001   0.13487   0.00000  Uiso   1.00
C71    C     0.49631   0.43186   0.56408   0.00000  Uiso   1.00
C72    C     0.49625   0.35989   0.63470   0.00000  Uiso   1.00
H73    H     0.49601   0.75308   0.13241   0.00000  Uiso   1.00
H74    H     0.49620   0.25299   0.86849   0.00000  Uiso   1.00
H75    H    -0.00380   0.25278   0.63237   0.00000  Uiso   1.00
H76    H    -0.00400   0.75284   0.36854   0.00000  Uiso   1.00
loop_
_geom_bond_atom_site_label_1
_geom_bond_atom_site_label_2
_geom_bond_distance
_geom_bond_site_symmetry_2
_ccdc_geom_bond_type
O1     Al49    1.807   .     S
O1     C58     1.296   .     A
C2     H3      1.081   .     S
C2     C57     1.410   1_655 S
C2     C20     1.412   1_546 A
O4     Al51    1.807   .     S
O4     C60     1.295   .     A
C5     C59     1.410   .     A
C5     C23     1.412   .     A
C5     H6      1.081   .     S
O7     Al50    1.807   .     S
O7     C62     1.295   1_655 S
C8     C61     1.410   .     A
C8     H9      1.081   .     S
C8     C14     1.412   1_556 S
O10    Al52    1.808   .     S
O10    C64     1.295   .     A
C11    C63     1.411   .     A
C11    H12     1.081   .     S
C11    C17     1.412   1_565 A
O13    Al51    1.807   .     S
O13    C66     1.295   1_655 A
C14    C65     1.410   .     A
C14    H15     1.081   .     S
C14    C8      1.412   1_554 S
O16    Al49    1.807   .     S
O16    C68     1.296   .     A
C17    C67     1.411   .     A
C17    H18     1.081   .     S
C17    C11     1.412   1_545 A
O19    Al52    1.807   .     S
O19    C70     1.295   .     A
C20    H21     1.081   .     S
C20    C2      1.412   1_564 A
C20    C69     1.411   1_655 S
O22    Al50    1.807   .     S
O22    C72     1.295   .     A
C23    C71     1.411   .     A
C23    H24     1.081   .     S
O25    Al51    1.807   .     S
O25    C70     1.295   1_655 S
C26    C69     1.410   .     A
C26    H27     1.081   .     S
C26    C44     1.412   1_564 S
O28    Al49    1.807   .     S
O28    C72     1.295   .     A
C29    C71     1.411   .     A
C29    C47     1.412   .     A
C29    H30     1.081   .     S
O31    Al52    1.807   .     S
O31    C66     1.295   .     A
C32    H33     1.081   .     S
C32    C65     1.410   1_655 A
C32    C38     1.412   1_554 A
O34    Al50    1.807   .     S
O34    C68     1.295   .     A
C35    C67     1.411   .     A
C35    H36     1.081   .     S
C35    C41     1.412   1_545 S
O37    Al49    1.807   .     S
O37    C62     1.295   .     A
C38    H39     1.081   .     S
C38    C32     1.412   1_556 A
C38    C61     1.411   1_655 S
O40    Al51    1.807   .     S
O40    C64     1.295   .     A
C41    C63     1.411   .     A
C41    H42     1.081   .     S
C41    C35     1.412   1_565 S
O43    Al50    1.807   .     S
O43    C58     1.296   1_655 S
C44    C57     1.411   .     A
C44    H45     1.081   .     S
C44    C26     1.412   1_546 S
O46    Al52    1.807   .     S
O46    C60     1.295   .     A
C47    C59     1.411   .     A
C47    H48     1.081   .     S
Al49   O53     1.811   .     S
Al49   O56     1.812   .     S
Al50   O56     1.812   .     S
Al50   O53     1.811   1_655 A
Al51   O54     1.811   .     S
Al51   O55     1.812   1_655 S
Al52   O55     1.812   .     S
Al52   O54     1.811   .     S
O53    H75     0.862   .     S
O53    Al50    1.811   1_455 A
O54    H73     0.862   .     S
O55    H76     0.862   .     S
O55    Al51    1.812   1_455 S
O56    H74     0.862   .     S
C57    C58     1.515   .     S
C57    C2      1.410   1_455 S
C58    O43     1.296   1_455 S
C59    C60     1.514   .     S
C61    C62     1.515   .     S
C61    C38     1.411   1_455 S
C62    O7      1.295   1_455 S
C63    C64     1.515   .     S
C65    C66     1.514   .     S
C65    C32     1.410   1_455 A
C66    O13     1.295   1_455 A
C67    C68     1.514   .     S
C69    C70     1.514   .     S
C69    C20     1.411   1_455 S
C70    O25     1.295   1_455 S
C71    C72     1.514   .     S
