data_image0
_cell_length_a       6.623
_cell_length_b       16.893
_cell_length_c       12.592
_cell_angle_alpha    90
_cell_angle_beta     90
_cell_angle_gamma    90

_symmetry_space_group_name_H-M    "P 1"
_symmetry_int_tables_number       1

loop_
  _symmetry_equiv_pos_as_xyz
  'x, y, z'

loop_
  _atom_site_label
  _atom_site_occupancy
  _atom_site_fract_x
  _atom_site_fract_y
  _atom_site_fract_z
  _atom_site_thermal_displace_type
  _atom_site_B_iso_or_equiv
  _atom_site_type_symbol
  O1       1.0000 0.15590  0.16690  0.84182  Biso   1.000  O
  C1       1.0000 0.80420  0.03610  0.97409  Biso   1.000  C
  O2       1.0000 0.65590  0.66690  0.34182  Biso   1.000  O
  C2       1.0000 0.30420  0.53610  0.47409  Biso   1.000  C
  O3       1.0000 0.84410  0.33310  0.84182  Biso   1.000  O
  C3       1.0000 0.19580  0.46390  0.97409  Biso   1.000  C
  O4       1.0000 0.34410  0.83310  0.34182  Biso   1.000  O
  C4       1.0000 0.69580  0.96390  0.47409  Biso   1.000  C
  O5       1.0000 0.84410  0.66690  0.15818  Biso   1.000  O
  C5       1.0000 0.19580  0.53610  0.02591  Biso   1.000  C
  O6       1.0000 0.34410  0.16690  0.65818  Biso   1.000  O
  C6       1.0000 0.69580  0.03610  0.52591  Biso   1.000  C
  O7       1.0000 0.15590  0.83310  0.15818  Biso   1.000  O
  C7       1.0000 0.80420  0.96390  0.02591  Biso   1.000  C
  O8       1.0000 0.65590  0.33310  0.65818  Biso   1.000  O
  C8       1.0000 0.30420  0.46390  0.52591  Biso   1.000  C
  O9       1.0000 0.84410  0.83310  0.15818  Biso   1.000  O
  C9       1.0000 0.19580  0.96390  0.02591  Biso   1.000  C
  O10      1.0000 0.34410  0.33310  0.65818  Biso   1.000  O
  C10      1.0000 0.69580  0.46390  0.52591  Biso   1.000  C
  O11      1.0000 0.15590  0.66690  0.15818  Biso   1.000  O
  C11      1.0000 0.80420  0.53610  0.02591  Biso   1.000  C
  O12      1.0000 0.65590  0.16690  0.65818  Biso   1.000  O
  C12      1.0000 0.30420  0.03610  0.52591  Biso   1.000  C
  O13      1.0000 0.15590  0.33310  0.84182  Biso   1.000  O
  C13      1.0000 0.80420  0.46390  0.97409  Biso   1.000  C
  O14      1.0000 0.65590  0.83310  0.34182  Biso   1.000  O
  C14      1.0000 0.30420  0.96390  0.47409  Biso   1.000  C
  O15      1.0000 0.84410  0.16690  0.84182  Biso   1.000  O
  C15      1.0000 0.19580  0.03610  0.97409  Biso   1.000  C
  O16      1.0000 0.34410  0.66690  0.34182  Biso   1.000  O
  C16      1.0000 0.69580  0.53610  0.47409  Biso   1.000  C
  Al1      1.0000 0.25000  0.25000  0.75000  Biso   1.000  Al
  Al2      1.0000 0.75000  0.25000  0.75000  Biso   1.000  Al
  Al3      1.0000 0.75000  0.75000  0.25000  Biso   1.000  Al
  Al4      1.0000 0.25000  0.75000  0.25000  Biso   1.000  Al
  O17      1.0000 0.00000  0.25000  0.69297  Biso   1.000  O
  O18      1.0000 0.50000  0.75000  0.19297  Biso   1.000  O
  O19      1.0000 0.00000  0.75000  0.30703  Biso   1.000  O
  O20      1.0000 0.50000  0.25000  0.80703  Biso   1.000  O
  C17      1.0000 0.00000  0.05987  0.95711  Biso   1.000  C
  C18      1.0000 0.00000  0.12911  0.88311  Biso   1.000  C
  C19      1.0000 0.50000  0.55987  0.45711  Biso   1.000  C
  C20      1.0000 0.50000  0.62911  0.38311  Biso   1.000  C
  C21      1.0000 0.00000  0.44013  0.95711  Biso   1.000  C
  C22      1.0000 0.00000  0.37089  0.88311  Biso   1.000  C
  C23      1.0000 0.50000  0.94013  0.45711  Biso   1.000  C
  C24      1.0000 0.50000  0.87089  0.38311  Biso   1.000  C
  C25      1.0000 0.00000  0.55987  0.04289  Biso   1.000  C
  C26      1.0000 0.00000  0.62911  0.11689  Biso   1.000  C
  C27      1.0000 0.50000  0.05987  0.54289  Biso   1.000  C
  C28      1.0000 0.50000  0.12911  0.61689  Biso   1.000  C
  C29      1.0000 0.00000  0.94013  0.04289  Biso   1.000  C
  C30      1.0000 0.00000  0.87089  0.11689  Biso   1.000  C
  C31      1.0000 0.50000  0.44013  0.54289  Biso   1.000  C
  C32      1.0000 0.50000  0.37089  0.61689  Biso   1.000  C
