data_image0
_cell_length_a       5.624
_cell_length_b       10.303
_cell_length_c       13.269
_cell_angle_alpha    79.445
_cell_angle_beta     83.893
_cell_angle_gamma    76.488

_symmetry_space_group_name_H-M    "P 1"
_symmetry_int_tables_number       1

loop_
  _symmetry_equiv_pos_as_xyz
  'x, y, z'

loop_
  _atom_site_label
  _atom_site_occupancy
  _atom_site_fract_x
  _atom_site_fract_y
  _atom_site_fract_z
  _atom_site_thermal_displace_type
  _atom_site_B_iso_or_equiv
  _atom_site_type_symbol
  Mn1      1.0000 0.32040  0.07745  0.40549  Biso   1.000  Mn
  Mn2      1.0000 0.60020  0.61750  0.34244  Biso   1.000  Mn
  P1       1.0000 0.51270  0.85340  0.11920  Biso   1.000  P
  P2       1.0000 0.73950  0.22430  0.47240  Biso   1.000  P
  O1       1.0000 0.33050  0.85700  0.04160  Biso   1.000  O
  O2       1.0000 0.77120  0.85340  0.07300  Biso   1.000  O
  O3       1.0000 0.51470  0.73330  0.20340  Biso   1.000  O
  O4       1.0000 0.55310  0.00440  0.26270  Biso   1.000  O
  H1       1.0000 0.63040  0.92700  0.28080  Biso   1.000  H
  O5       1.0000 0.98220  0.05160  0.15210  Biso   1.000  O
  O6       1.0000 0.08740  0.03190  0.30800  Biso   1.000  O
  O7       1.0000 0.61730  0.33340  0.53530  Biso   1.000  O
  O8       1.0000 0.00850  0.17900  0.48730  Biso   1.000  O
  O9       1.0000 0.60860  0.10740  0.48580  Biso   1.000  O
  O10      1.0000 0.83050  0.41670  0.31650  Biso   1.000  O
  H2       1.0000 0.97910  0.38650  0.31520  Biso   1.000  H
  O11      1.0000 0.30460  0.28580  0.31690  Biso   1.000  O
  O12      1.0000 0.36370  0.49120  0.31420  Biso   1.000  O
  C1       1.0000 0.40900  0.00700  0.17720  Biso   1.000  C
  H3       1.0000 0.43510  0.08300  0.12590  Biso   1.000  H
  C2       1.0000 0.14000  0.03350  0.21480  Biso   1.000  C
  C3       1.0000 0.70700  0.30710  0.33840  Biso   1.000  C
  H4       1.0000 0.77420  0.24150  0.29210  Biso   1.000  H
  C4       1.0000 0.43700  0.36520  0.32260  Biso   1.000  C
  Mn3      1.0000 0.67960  0.92255  0.59451  Biso   1.000  Mn
  Mn4      1.0000 0.39980  0.38250  0.65756  Biso   1.000  Mn
  P3       1.0000 0.48730  0.14660  0.88080  Biso   1.000  P
  P4       1.0000 0.26050  0.77570  0.52760  Biso   1.000  P
  O13      1.0000 0.66950  0.14300  0.95840  Biso   1.000  O
  O14      1.0000 0.22880  0.14660  0.92700  Biso   1.000  O
  O15      1.0000 0.48530  0.26670  0.79660  Biso   1.000  O
  O16      1.0000 0.44690  0.99560  0.73730  Biso   1.000  O
  H5       1.0000 0.36960  0.07300  0.71920  Biso   1.000  H
  O17      1.0000 0.01780  0.94840  0.84790  Biso   1.000  O
  O18      1.0000 0.91260  0.96810  0.69200  Biso   1.000  O
  O19      1.0000 0.38270  0.66660  0.46470  Biso   1.000  O
  O20      1.0000 0.99150  0.82100  0.51270  Biso   1.000  O
  O21      1.0000 0.39140  0.89260  0.51420  Biso   1.000  O
  O22      1.0000 0.16950  0.58330  0.68350  Biso   1.000  O
  H6       1.0000 0.02090  0.61350  0.68480  Biso   1.000  H
  O23      1.0000 0.69540  0.71420  0.68310  Biso   1.000  O
  O24      1.0000 0.63630  0.50880  0.68580  Biso   1.000  O
  C5       1.0000 0.59100  0.99300  0.82280  Biso   1.000  C
  H7       1.0000 0.56490  0.91700  0.87410  Biso   1.000  H
  C6       1.0000 0.86000  0.96650  0.78520  Biso   1.000  C
  C7       1.0000 0.29300  0.69290  0.66160  Biso   1.000  C
  H8       1.0000 0.22580  0.75850  0.70790  Biso   1.000  H
  C8       1.0000 0.56300  0.63480  0.67740  Biso   1.000  C
  Mn5      1.0000 0.00000  0.00000  0.00000  Biso   1.000  Mn
