data_image0
_cell_length_a       14.3196
_cell_length_b       16.255
_cell_length_c       8.8552
_cell_angle_alpha    90
_cell_angle_beta     90.134
_cell_angle_gamma    90

_symmetry_space_group_name_H-M    "P 1"
_symmetry_int_tables_number       1

loop_
  _symmetry_equiv_pos_as_xyz
  'x, y, z'

loop_
  _atom_site_label
  _atom_site_occupancy
  _atom_site_fract_x
  _atom_site_fract_y
  _atom_site_fract_z
  _atom_site_thermal_displace_type
  _atom_site_B_iso_or_equiv
  _atom_site_type_symbol
  Ga1      1.0000 0.97318  0.12912  0.58679  Biso   1.000  Ga
  Ga2      1.0000 0.46346  0.27024  0.36563  Biso   1.000  Ga
  Zn1      1.0000 0.13163  0.16146  0.19065  Biso   1.000  Zn
  Zn2      1.0000 0.36469  0.03820  0.42192  Biso   1.000  Zn
  P1       1.0000 0.13760  0.03131  0.44737  Biso   1.000  P
  P2       1.0000 0.02529  0.21227  0.88804  Biso   1.000  P
  P3       1.0000 0.52757  0.13143  0.58800  Biso   1.000  P
  P4       1.0000 0.35484  0.15297  0.14662  Biso   1.000  P
  O1       1.0000 0.08230  0.06660  0.58140  Biso   1.000  O
  O2       1.0000 0.09790  0.06320  0.29880  Biso   1.000  O
  O3       1.0000 0.13060  0.93680  0.45240  Biso   1.000  O
  O4       1.0000 0.23850  0.05670  0.47350  Biso   1.000  O
  O5       1.0000 0.05320  0.15320  0.01410  Biso   1.000  O
  O6       1.0000 0.95860  0.16550  0.78380  Biso   1.000  O
  O7       1.0000 0.11240  0.23980  0.80150  Biso   1.000  O
  O8       1.0000 0.97160  0.28590  0.94850  Biso   1.000  O
  O9       1.0000 0.43090  0.09280  0.58020  Biso   1.000  O
  O10      1.0000 0.53820  0.19820  0.46900  Biso   1.000  O
  O11      1.0000 0.60560  0.07200  0.55930  Biso   1.000  O
  O12      1.0000 0.54240  0.16770  0.74490  Biso   1.000  O
  O13      1.0000 0.25300  0.14570  0.10700  Biso   1.000  O
  O14      1.0000 0.40990  0.15660  0.99820  Biso   1.000  O
  O15      1.0000 0.39220  0.07620  0.22610  Biso   1.000  O
  O16      1.0000 0.36900  0.22830  0.24470  Biso   1.000  O
  Ga3      1.0000 0.02682  0.62912  0.91321  Biso   1.000  Ga
  Ga4      1.0000 0.53654  0.77024  0.13437  Biso   1.000  Ga
  Zn3      1.0000 0.86837  0.66146  0.30935  Biso   1.000  Zn
  Zn4      1.0000 0.63531  0.53820  0.07808  Biso   1.000  Zn
  P5       1.0000 0.86240  0.53131  0.05263  Biso   1.000  P
  P6       1.0000 0.97471  0.71227  0.61196  Biso   1.000  P
  P7       1.0000 0.47243  0.63143  0.91200  Biso   1.000  P
  P8       1.0000 0.64516  0.65297  0.35338  Biso   1.000  P
  O17      1.0000 0.91770  0.56660  0.91860  Biso   1.000  O
  O18      1.0000 0.90210  0.56320  0.20120  Biso   1.000  O
  O19      1.0000 0.86940  0.43680  0.04760  Biso   1.000  O
  O20      1.0000 0.76150  0.55670  0.02650  Biso   1.000  O
  O21      1.0000 0.94680  0.65320  0.48590  Biso   1.000  O
  O22      1.0000 0.04140  0.66550  0.71620  Biso   1.000  O
  O23      1.0000 0.88760  0.73980  0.69850  Biso   1.000  O
  O24      1.0000 0.02840  0.78590  0.55150  Biso   1.000  O
  O25      1.0000 0.56910  0.59280  0.91980  Biso   1.000  O
  O26      1.0000 0.46180  0.69820  0.03100  Biso   1.000  O
  O27      1.0000 0.39440  0.57200  0.94070  Biso   1.000  O
  O28      1.0000 0.45760  0.66770  0.75510  Biso   1.000  O
  O29      1.0000 0.74700  0.64570  0.39300  Biso   1.000  O
  O30      1.0000 0.59010  0.65660  0.50180  Biso   1.000  O
  O31      1.0000 0.60780  0.57620  0.27390  Biso   1.000  O
  O32      1.0000 0.63100  0.72830  0.25530  Biso   1.000  O
  Ga5      1.0000 0.02682  0.87088  0.41321  Biso   1.000  Ga
  Ga6      1.0000 0.53654  0.72976  0.63437  Biso   1.000  Ga
  Zn5      1.0000 0.86837  0.83854  0.80935  Biso   1.000  Zn
  Zn6      1.0000 0.63531  0.96180  0.57808  Biso   1.000  Zn
  P9       1.0000 0.86240  0.96869  0.55263  Biso   1.000  P
  P10      1.0000 0.97471  0.78773  0.11196  Biso   1.000  P
  P11      1.0000 0.47243  0.86857  0.41200  Biso   1.000  P
  P12      1.0000 0.64516  0.84703  0.85338  Biso   1.000  P
  O33      1.0000 0.91770  0.93340  0.41860  Biso   1.000  O
  O34      1.0000 0.90210  0.93680  0.70120  Biso   1.000  O
  O35      1.0000 0.86940  0.06320  0.54760  Biso   1.000  O
  O36      1.0000 0.76150  0.94330  0.52650  Biso   1.000  O
  O37      1.0000 0.94680  0.84680  0.98590  Biso   1.000  O
  O38      1.0000 0.04140  0.83450  0.21620  Biso   1.000  O
  O39      1.0000 0.88760  0.76020  0.19850  Biso   1.000  O
  O40      1.0000 0.02840  0.71410  0.05150  Biso   1.000  O
  O41      1.0000 0.56910  0.90720  0.41980  Biso   1.000  O
  O42      1.0000 0.46180  0.80180  0.53100  Biso   1.000  O
  O43      1.0000 0.39440  0.92800  0.44070  Biso   1.000  O
  O44      1.0000 0.45760  0.83230  0.25510  Biso   1.000  O
  O45      1.0000 0.74700  0.85430  0.89300  Biso   1.000  O
  O46      1.0000 0.59010  0.84340  0.00180  Biso   1.000  O
  O47      1.0000 0.60780  0.92380  0.77390  Biso   1.000  O
  O48      1.0000 0.63100  0.77170  0.75530  Biso   1.000  O
  Ga7      1.0000 0.97318  0.37088  0.08679  Biso   1.000  Ga
  Ga8      1.0000 0.46346  0.22976  0.86563  Biso   1.000  Ga
  Zn7      1.0000 0.13163  0.33854  0.69065  Biso   1.000  Zn
  Zn8      1.0000 0.36469  0.46180  0.92192  Biso   1.000  Zn
  P13      1.0000 0.13760  0.46869  0.94737  Biso   1.000  P
  P14      1.0000 0.02529  0.28773  0.38804  Biso   1.000  P
  P15      1.0000 0.52757  0.36857  0.08800  Biso   1.000  P
  P16      1.0000 0.35484  0.34703  0.64662  Biso   1.000  P
  O49      1.0000 0.08230  0.43340  0.08140  Biso   1.000  O
  O50      1.0000 0.09790  0.43680  0.79880  Biso   1.000  O
  O51      1.0000 0.13060  0.56320  0.95240  Biso   1.000  O
  O52      1.0000 0.23850  0.44330  0.97350  Biso   1.000  O
  O53      1.0000 0.05320  0.34680  0.51410  Biso   1.000  O
  O54      1.0000 0.95860  0.33450  0.28380  Biso   1.000  O
  O55      1.0000 0.11240  0.26020  0.30150  Biso   1.000  O
  O56      1.0000 0.97160  0.21410  0.44850  Biso   1.000  O
  O57      1.0000 0.43090  0.40720  0.08020  Biso   1.000  O
  O58      1.0000 0.53820  0.30180  0.96900  Biso   1.000  O
  O59      1.0000 0.60560  0.42800  0.05930  Biso   1.000  O
  O60      1.0000 0.54240  0.33230  0.24490  Biso   1.000  O
  O61      1.0000 0.25300  0.35430  0.60700  Biso   1.000  O
  O62      1.0000 0.40990  0.34340  0.49820  Biso   1.000  O
  O63      1.0000 0.39220  0.42380  0.72610  Biso   1.000  O
  O64      1.0000 0.36900  0.27170  0.74470  Biso   1.000  O
