data_QOPHEI_clean
_audit_creation_date              2014-07-02
_audit_creation_method            'Materials Studio'
_symmetry_space_group_name_H-M    'P1'
_symmetry_Int_Tables_number       1
_symmetry_cell_setting            triclinic
loop_
_symmetry_equiv_pos_as_xyz
  x,y,z
_cell_length_a                    6.4680
_cell_length_b                    9.9391
_cell_length_c                    9.9391
_cell_angle_alpha                 119.4480
_cell_angle_beta                  105.3760
_cell_angle_gamma                 74.6243
loop_
_atom_site_label
_atom_site_type_symbol
_atom_site_fract_x
_atom_site_fract_y
_atom_site_fract_z
_atom_site_U_iso_or_equiv
_atom_site_adp_type
_atom_site_occupancy
Co1    Co    0.50000  -0.00000  -0.00000   0.01267  Uiso   1.00
Co2    Co    0.00000   0.84774   0.84774   0.01267  Uiso   1.00
Co3    Co    0.00000   0.15226   0.15226   0.01267  Uiso   1.00
H1     H     0.68820   0.57780   0.06240   0.01267  Uiso   1.00
H2     H     0.61550   0.45570   0.88390   0.01267  Uiso   1.00
H3     H     0.72250   0.67690   0.79530   0.01267  Uiso   1.00
H4     H     0.94160   0.67350   0.80330   0.01267  Uiso   1.00
H5     H     0.31180   0.06240   0.57780   0.01267  Uiso   1.00
H6     H     0.38450   0.88390   0.45570   0.01267  Uiso   1.00
H7     H     0.27750   0.79530   0.67690   0.01267  Uiso   1.00
H8     H     0.05840   0.80330   0.67350   0.01267  Uiso   1.00
H9     H     0.31180   0.42220   0.93760   0.01267  Uiso   1.00
H10    H     0.38450   0.54430   0.11610   0.01267  Uiso   1.00
H11    H     0.27750   0.32310   0.20470   0.01267  Uiso   1.00
H12    H     0.05840   0.32650   0.19670   0.01267  Uiso   1.00
H13    H     0.68820   0.93760   0.42220   0.01267  Uiso   1.00
H14    H     0.61550   0.11610   0.54430   0.01267  Uiso   1.00
H15    H     0.72250   0.20470   0.32310   0.01267  Uiso   1.00
H16    H     0.94160   0.19670   0.32650   0.01267  Uiso   1.00
H17    H     0.15730   0.08210   0.91790   0.01267  Uiso   1.00
H18    H     0.84270   0.91790   0.08210   0.01267  Uiso   1.00
C1     C     0.42800   0.68191   0.95789   0.01267  Uiso   1.00
C2     C     0.56100   0.54544   0.98696   0.01267  Uiso   1.00
C3     C     0.57200   0.95789   0.68191   0.01267  Uiso   1.00
C4     C     0.43900   0.98696   0.54544   0.01267  Uiso   1.00
C5     C     0.57200   0.31809   0.04211   0.01267  Uiso   1.00
C6     C     0.43900   0.45456   0.01304   0.01267  Uiso   1.00
C7     C     0.42800   0.04211   0.31809   0.01267  Uiso   1.00
C8     C     0.56100   0.01304   0.45456   0.01267  Uiso   1.00
O1     O     0.22550   0.71037   0.95303   0.01267  Uiso   1.00
O2     O     0.53290   0.75884   0.93774   0.01267  Uiso   1.00
O3     O     0.82150   0.65789   0.73971   0.01267  Uiso   1.00
O4     O     0.77450   0.95303   0.71037   0.01267  Uiso   1.00
O5     O     0.46710   0.93774   0.75884   0.01267  Uiso   1.00
O6     O     0.17850   0.73971   0.65789   0.01267  Uiso   1.00
O7     O     0.77450   0.28963   0.04697   0.01267  Uiso   1.00
O8     O     0.46710   0.24116   0.06226   0.01267  Uiso   1.00
O9     O     0.17850   0.34211   0.26029   0.01267  Uiso   1.00
O10    O     0.22550   0.04697   0.28963   0.01267  Uiso   1.00
O11    O     0.53290   0.06226   0.24116   0.01267  Uiso   1.00
O12    O     0.82150   0.26029   0.34211   0.01267  Uiso   1.00
O13    O     0.16830   0.03458   0.96542   0.01267  Uiso   1.00
O14    O     0.83170   0.96542   0.03458   0.01267  Uiso   1.00
