data_image0
_cell_length_a       9.7821
_cell_length_b       19.916
_cell_length_c       16.1047
_cell_angle_alpha    90
_cell_angle_beta     93.581
_cell_angle_gamma    90

_symmetry_space_group_name_H-M    "P 1"
_symmetry_int_tables_number       1

loop_
  _symmetry_equiv_pos_as_xyz
  'x, y, z'

loop_
  _atom_site_label
  _atom_site_occupancy
  _atom_site_fract_x
  _atom_site_fract_y
  _atom_site_fract_z
  _atom_site_thermal_displace_type
  _atom_site_B_iso_or_equiv
  _atom_site_type_symbol
  N1       1.0000 0.44590  0.08970  0.41550  Biso   1.000  N
  N2       1.0000 0.94740  0.41250  0.91430  Biso   1.000  N
  O1       1.0000 0.14520  0.43060  0.06220  Biso   1.000  O
  O2       1.0000 0.35440  0.47450  0.09130  Biso   1.000  O
  O3       1.0000 0.63530  0.06810  0.56780  Biso   1.000  O
  O4       1.0000 0.84990  0.03010  0.58740  Biso   1.000  O
  C1       1.0000 0.26280  0.43000  0.09690  Biso   1.000  C
  C2       1.0000 0.29900  0.37050  0.15140  Biso   1.000  C
  C3       1.0000 0.25280  0.30630  0.12900  Biso   1.000  C
  H1       1.0000 0.19740  0.30030  0.07890  Biso   1.000  H
  C4       1.0000 0.28630  0.25160  0.17820  Biso   1.000  C
  H2       1.0000 0.25900  0.20800  0.15980  Biso   1.000  H
  C5       1.0000 0.35980  0.25910  0.25460  Biso   1.000  C
  C6       1.0000 0.40420  0.32280  0.27700  Biso   1.000  C
  H3       1.0000 0.45400  0.32930  0.32890  Biso   1.000  H
  C7       1.0000 0.37780  0.37730  0.22540  Biso   1.000  C
  H4       1.0000 0.41420  0.42000  0.24100  Biso   1.000  H
  C8       1.0000 0.42330  0.08220  0.33290  Biso   1.000  C
  H5       1.0000 0.42640  0.03820  0.31040  Biso   1.000  H
  C9       1.0000 0.39580  0.13510  0.27920  Biso   1.000  C
  H6       1.0000 0.38180  0.12690  0.22120  Biso   1.000  H
  C10      1.0000 0.38830  0.20050  0.30970  Biso   1.000  C
  C11      1.0000 0.41240  0.20760  0.39620  Biso   1.000  C
  H7       1.0000 0.40890  0.25080  0.42100  Biso   1.000  H
  C12      1.0000 0.44110  0.15220  0.44520  Biso   1.000  C
  H8       1.0000 0.45850  0.15870  0.50330  Biso   1.000  H
  C13      1.0000 0.75750  0.07200  0.59610  Biso   1.000  C
  C14      1.0000 0.79270  0.13390  0.64830  Biso   1.000  C
  C15      1.0000 0.69440  0.18220  0.66070  Biso   1.000  C
  H9       1.0000 0.60520  0.17770  0.63440  Biso   1.000  H
  C16      1.0000 0.72530  0.23750  0.71170  Biso   1.000  C
  H10      1.0000 0.65640  0.27000  0.72000  Biso   1.000  H
  C17      1.0000 0.85500  0.24590  0.75030  Biso   1.000  C
  C18      1.0000 0.95530  0.19750  0.73380  Biso   1.000  C
  H11      1.0000 0.04590  0.20250  0.75790  Biso   1.000  H
  C19      1.0000 0.92390  0.14360  0.68350  Biso   1.000  C
  H12      1.0000 0.99350  0.11220  0.67260  Biso   1.000  H
  C20      1.0000 0.81980  0.39220  0.89550  Biso   1.000  C
  H13      1.0000 0.74750  0.41580  0.91920  Biso   1.000  H
  C21      1.0000 0.78610  0.33900  0.84360  Biso   1.000  C
  H14      1.0000 0.69290  0.32640  0.83330  Biso   1.000  H
  C22      1.0000 0.88730  0.30390  0.80680  Biso   1.000  C
  C23      1.0000 0.02110  0.32500  0.82680  Biso   1.000  C
  H15      1.0000 0.09570  0.30250  0.80410  Biso   1.000  H
  C24      1.0000 0.04460  0.37830  0.87920  Biso   1.000  C
  H16      1.0000 0.13680  0.39170  0.89130  Biso   1.000  H
  N3       1.0000 0.55410  0.58970  0.08450  Biso   1.000  N
  N4       1.0000 0.05260  0.91250  0.58570  Biso   1.000  N
  O5       1.0000 0.85480  0.93060  0.43780  Biso   1.000  O
  O6       1.0000 0.64560  0.97450  0.40870  Biso   1.000  O
  O7       1.0000 0.36470  0.56810  0.93220  Biso   1.000  O
  O8       1.0000 0.15010  0.53010  0.91260  Biso   1.000  O
  C25      1.0000 0.73720  0.93000  0.40310  Biso   1.000  C
  C26      1.0000 0.70100  0.87050  0.34860  Biso   1.000  C
  C27      1.0000 0.74720  0.80630  0.37100  Biso   1.000  C
  H17      1.0000 0.80260  0.80030  0.42110  Biso   1.000  H
  C28      1.0000 0.71370  0.75160  0.32180  Biso   1.000  C
  H18      1.0000 0.74100  0.70800  0.34020  Biso   1.000  H
  C29      1.0000 0.64020  0.75910  0.24540  Biso   1.000  C
  C30      1.0000 0.59580  0.82280  0.22300  Biso   1.000  C
  H19      1.0000 0.54600  0.82930  0.17110  Biso   1.000  H
  C31      1.0000 0.62220  0.87730  0.27460  Biso   1.000  C
  H20      1.0000 0.58580  0.92000  0.25900  Biso   1.000  H
  C32      1.0000 0.57670  0.58220  0.16710  Biso   1.000  C
  H21      1.0000 0.57360  0.53820  0.18960  Biso   1.000  H
  C33      1.0000 0.60420  0.63510  0.22080  Biso   1.000  C
  H22      1.0000 0.61820  0.62690  0.27880  Biso   1.000  H
  C34      1.0000 0.61170  0.70050  0.19030  Biso   1.000  C
  C35      1.0000 0.58760  0.70760  0.10380  Biso   1.000  C
  H23      1.0000 0.59110  0.75080  0.07900  Biso   1.000  H
  C36      1.0000 0.55890  0.65220  0.05480  Biso   1.000  C
  H24      1.0000 0.54150  0.65870  0.99670  Biso   1.000  H
  C37      1.0000 0.24250  0.57200  0.90390  Biso   1.000  C
  C38      1.0000 0.20730  0.63390  0.85170  Biso   1.000  C
  C39      1.0000 0.30560  0.68220  0.83930  Biso   1.000  C
  H25      1.0000 0.39480  0.67770  0.86560  Biso   1.000  H
  C40      1.0000 0.27470  0.73750  0.78830  Biso   1.000  C
  H26      1.0000 0.34360  0.77000  0.78000  Biso   1.000  H
  C41      1.0000 0.14500  0.74590  0.74970  Biso   1.000  C
  C42      1.0000 0.04470  0.69750  0.76620  Biso   1.000  C
  H27      1.0000 0.95410  0.70250  0.74210  Biso   1.000  H
  C43      1.0000 0.07610  0.64360  0.81650  Biso   1.000  C
  H28      1.0000 0.00650  0.61220  0.82740  Biso   1.000  H
  C44      1.0000 0.18020  0.89220  0.60450  Biso   1.000  C
  H29      1.0000 0.25250  0.91580  0.58080  Biso   1.000  H
  C45      1.0000 0.21390  0.83900  0.65640  Biso   1.000  C
  H30      1.0000 0.30710  0.82640  0.66670  Biso   1.000  H
  C46      1.0000 0.11270  0.80390  0.69320  Biso   1.000  C
  C47      1.0000 0.97890  0.82500  0.67320  Biso   1.000  C
  H31      1.0000 0.90430  0.80250  0.69590  Biso   1.000  H
  C48      1.0000 0.95540  0.87830  0.62080  Biso   1.000  C
  H32      1.0000 0.86320  0.89170  0.60870  Biso   1.000  H
  N5       1.0000 0.55410  0.91030  0.58450  Biso   1.000  N
  N6       1.0000 0.05260  0.58750  0.08570  Biso   1.000  N
  O9       1.0000 0.85480  0.56940  0.93780  Biso   1.000  O
  O10      1.0000 0.64560  0.52550  0.90870  Biso   1.000  O
  O11      1.0000 0.36470  0.93190  0.43220  Biso   1.000  O
  O12      1.0000 0.15010  0.96990  0.41260  Biso   1.000  O
  C49      1.0000 0.73720  0.57000  0.90310  Biso   1.000  C
  C50      1.0000 0.70100  0.62950  0.84860  Biso   1.000  C
  C51      1.0000 0.74720  0.69370  0.87100  Biso   1.000  C
  H33      1.0000 0.80260  0.69970  0.92110  Biso   1.000  H
  C52      1.0000 0.71370  0.74840  0.82180  Biso   1.000  C
  H34      1.0000 0.74100  0.79200  0.84020  Biso   1.000  H
  C53      1.0000 0.64020  0.74090  0.74540  Biso   1.000  C
  C54      1.0000 0.59580  0.67720  0.72300  Biso   1.000  C
  H35      1.0000 0.54600  0.67070  0.67110  Biso   1.000  H
  C55      1.0000 0.62220  0.62270  0.77460  Biso   1.000  C
  H36      1.0000 0.58580  0.58000  0.75900  Biso   1.000  H
  C56      1.0000 0.57670  0.91780  0.66710  Biso   1.000  C
  H37      1.0000 0.57360  0.96180  0.68960  Biso   1.000  H
  C57      1.0000 0.60420  0.86490  0.72080  Biso   1.000  C
  H38      1.0000 0.61820  0.87310  0.77880  Biso   1.000  H
  C58      1.0000 0.61170  0.79950  0.69030  Biso   1.000  C
  C59      1.0000 0.58760  0.79240  0.60380  Biso   1.000  C
  H39      1.0000 0.59110  0.74920  0.57900  Biso   1.000  H
  C60      1.0000 0.55890  0.84780  0.55480  Biso   1.000  C
  H40      1.0000 0.54150  0.84130  0.49670  Biso   1.000  H
  C61      1.0000 0.24250  0.92800  0.40390  Biso   1.000  C
  C62      1.0000 0.20730  0.86610  0.35170  Biso   1.000  C
  C63      1.0000 0.30560  0.81780  0.33930  Biso   1.000  C
  H41      1.0000 0.39480  0.82230  0.36560  Biso   1.000  H
  C64      1.0000 0.27470  0.76250  0.28830  Biso   1.000  C
  H42      1.0000 0.34360  0.73000  0.28000  Biso   1.000  H
  C65      1.0000 0.14500  0.75410  0.24970  Biso   1.000  C
  C66      1.0000 0.04470  0.80250  0.26620  Biso   1.000  C
  H43      1.0000 0.95410  0.79750  0.24210  Biso   1.000  H
  C67      1.0000 0.07610  0.85640  0.31650  Biso   1.000  C
  H44      1.0000 0.00650  0.88780  0.32740  Biso   1.000  H
  C68      1.0000 0.18020  0.60780  0.10450  Biso   1.000  C
  H45      1.0000 0.25250  0.58420  0.08080  Biso   1.000  H
  C69      1.0000 0.21390  0.66100  0.15640  Biso   1.000  C
  H46      1.0000 0.30710  0.67360  0.16670  Biso   1.000  H
  C70      1.0000 0.11270  0.69610  0.19320  Biso   1.000  C
  C71      1.0000 0.97890  0.67500  0.17320  Biso   1.000  C
  H47      1.0000 0.90430  0.69750  0.19590  Biso   1.000  H
  C72      1.0000 0.95540  0.62170  0.12080  Biso   1.000  C
  H48      1.0000 0.86320  0.60830  0.10870  Biso   1.000  H
  N7       1.0000 0.44590  0.41030  0.91550  Biso   1.000  N
  N8       1.0000 0.94740  0.08750  0.41430  Biso   1.000  N
  O13      1.0000 0.14520  0.06940  0.56220  Biso   1.000  O
  O14      1.0000 0.35440  0.02550  0.59130  Biso   1.000  O
  O15      1.0000 0.63530  0.43190  0.06780  Biso   1.000  O
  O16      1.0000 0.84990  0.46990  0.08740  Biso   1.000  O
  C73      1.0000 0.26280  0.07000  0.59690  Biso   1.000  C
  C74      1.0000 0.29900  0.12950  0.65140  Biso   1.000  C
  C75      1.0000 0.25280  0.19370  0.62900  Biso   1.000  C
  H49      1.0000 0.19740  0.19970  0.57890  Biso   1.000  H
  C76      1.0000 0.28630  0.24840  0.67820  Biso   1.000  C
  H50      1.0000 0.25900  0.29200  0.65980  Biso   1.000  H
  C77      1.0000 0.35980  0.24090  0.75460  Biso   1.000  C
  C78      1.0000 0.40420  0.17720  0.77700  Biso   1.000  C
  H51      1.0000 0.45400  0.17070  0.82890  Biso   1.000  H
  C79      1.0000 0.37780  0.12270  0.72540  Biso   1.000  C
  H52      1.0000 0.41420  0.08000  0.74100  Biso   1.000  H
  C80      1.0000 0.42330  0.41780  0.83290  Biso   1.000  C
  H53      1.0000 0.42640  0.46180  0.81040  Biso   1.000  H
  C81      1.0000 0.39580  0.36490  0.77920  Biso   1.000  C
  H54      1.0000 0.38180  0.37310  0.72120  Biso   1.000  H
  C82      1.0000 0.38830  0.29950  0.80970  Biso   1.000  C
  C83      1.0000 0.41240  0.29240  0.89620  Biso   1.000  C
  H55      1.0000 0.40890  0.24920  0.92100  Biso   1.000  H
  C84      1.0000 0.44110  0.34780  0.94520  Biso   1.000  C
  H56      1.0000 0.45850  0.34130  0.00330  Biso   1.000  H
  C85      1.0000 0.75750  0.42800  0.09610  Biso   1.000  C
  C86      1.0000 0.79270  0.36610  0.14830  Biso   1.000  C
  C87      1.0000 0.69440  0.31780  0.16070  Biso   1.000  C
  H57      1.0000 0.60520  0.32230  0.13440  Biso   1.000  H
  C88      1.0000 0.72530  0.26250  0.21170  Biso   1.000  C
  H58      1.0000 0.65640  0.23000  0.22000  Biso   1.000  H
  C89      1.0000 0.85500  0.25410  0.25030  Biso   1.000  C
  C90      1.0000 0.95530  0.30250  0.23380  Biso   1.000  C
  H59      1.0000 0.04590  0.29750  0.25790  Biso   1.000  H
  C91      1.0000 0.92390  0.35640  0.18350  Biso   1.000  C
  H60      1.0000 0.99350  0.38780  0.17260  Biso   1.000  H
  C92      1.0000 0.81980  0.10780  0.39550  Biso   1.000  C
  H61      1.0000 0.74750  0.08420  0.41920  Biso   1.000  H
  C93      1.0000 0.78610  0.16100  0.34360  Biso   1.000  C
  H62      1.0000 0.69290  0.17360  0.33330  Biso   1.000  H
  C94      1.0000 0.88730  0.19610  0.30680  Biso   1.000  C
  C95      1.0000 0.02110  0.17500  0.32680  Biso   1.000  C
  H63      1.0000 0.09570  0.19750  0.30410  Biso   1.000  H
  C96      1.0000 0.04460  0.12170  0.37920  Biso   1.000  C
  H64      1.0000 0.13680  0.10830  0.39130  Biso   1.000  H
  Mn1      1.0000 0.50000  0.00000  0.50000  Biso   1.000  Mn
  Mn2      1.0000 0.50000  0.50000  0.00000  Biso   1.000  Mn
  Mn3      1.0000 0.00000  0.50000  0.00000  Biso   1.000  Mn
  Mn4      1.0000 0.00000  0.00000  0.50000  Biso   1.000  Mn
