data_image0
_cell_length_a       10.632
_cell_length_b       13.862
_cell_length_c       19.498
_cell_angle_alpha    90
_cell_angle_beta     99.98
_cell_angle_gamma    90

_symmetry_space_group_name_H-M    "P 1"
_symmetry_int_tables_number       1

loop_
  _symmetry_equiv_pos_as_xyz
  'x, y, z'

loop_
  _atom_site_label
  _atom_site_occupancy
  _atom_site_fract_x
  _atom_site_fract_y
  _atom_site_fract_z
  _atom_site_thermal_displace_type
  _atom_site_B_iso_or_equiv
  _atom_site_type_symbol
  O1       1.0000 0.78400  0.42360  0.87866  Biso   1.000  O
  Er1      1.0000 0.15502  0.06708  0.55591  Biso   1.000  Er
  Cu1      1.0000 0.75657  0.06790  0.78942  Biso   1.000  Cu
  N1       1.0000 0.87100  0.17980  0.77960  Biso   1.000  N
  C1       1.0000 0.84890  0.26070  0.81240  Biso   1.000  C
  H1       1.0000 0.78390  0.26050  0.83880  Biso   1.000  H
  O2       1.0000 0.94250  0.50830  0.84891  Biso   1.000  O
  C2       1.0000 0.91710  0.34470  0.80930  Biso   1.000  C
  N2       1.0000 0.35830  0.45530  0.70600  Biso   1.000  N
  O3       1.0000 0.19590  0.43910  0.82397  Biso   1.000  O
  C3       1.0000 0.01810  0.34460  0.77210  Biso   1.000  C
  O4       1.0000 0.10070  0.47610  0.71587  Biso   1.000  O
  C4       1.0000 0.03960  0.26110  0.73750  Biso   1.000  C
  H2       1.0000 0.10490  0.25920  0.71130  Biso   1.000  H
  O5       1.0000 0.28670  0.13290  0.65912  Biso   1.000  O
  C5       1.0000 0.96480  0.18030  0.74130  Biso   1.000  C
  H3       1.0000 0.97960  0.12510  0.71670  Biso   1.000  H
  C6       1.0000 0.87960  0.43130  0.84750  Biso   1.000  C
  O6       1.0000 0.26990  0.22280  0.56410  Biso   1.000  O
  C7       1.0000 0.11090  0.42770  0.77240  Biso   1.000  C
  O7       1.0000 0.61160  0.15840  0.78135  Biso   1.000  O
  C8       1.0000 0.31500  0.37900  0.66690  Biso   1.000  C
  H4       1.0000 0.23940  0.38570  0.63510  Biso   1.000  H
  O8       1.0000 0.58620  0.15260  0.66500  Biso   1.000  O
  O9       1.0000 0.92030  0.06100  0.51863  Biso   1.000  O
  C9       1.0000 0.37590  0.29150  0.67100  Biso   1.000  C
  O10      1.0000 0.00290  0.19130  0.57095  Biso   1.000  O
  C10      1.0000 0.49080  0.28130  0.71660  Biso   1.000  C
  C11      1.0000 0.53880  0.36060  0.75590  Biso   1.000  C
  H5       1.0000 0.61650  0.35640  0.78610  Biso   1.000  H
  C12      1.0000 0.47050  0.44560  0.75000  Biso   1.000  C
  H6       1.0000 0.50280  0.49810  0.77730  Biso   1.000  H
  C13      1.0000 0.56790  0.18880  0.71910  Biso   1.000  C
  C14      1.0000 0.30860  0.20990  0.62800  Biso   1.000  C
  C15      1.0000 0.77390  0.18620  0.53800  Biso   1.000  C
  H7       1.0000 0.73980  0.20170  0.49040  Biso   1.000  H
  H8       1.0000 0.77790  0.24360  0.56580  Biso   1.000  H
  H9       1.0000 0.71970  0.13970  0.55490  Biso   1.000  H
  C16      1.0000 0.90510  0.14510  0.54240  Biso   1.000  C
  O11      1.0000 0.21600  0.92360  0.62134  Biso   1.000  O
  Er2      1.0000 0.84498  0.56708  0.94409  Biso   1.000  Er
  Cu2      1.0000 0.24343  0.56790  0.71058  Biso   1.000  Cu
  N3       1.0000 0.12900  0.67980  0.72040  Biso   1.000  N
  C17      1.0000 0.15110  0.76070  0.68760  Biso   1.000  C
  H10      1.0000 0.21610  0.76050  0.66120  Biso   1.000  H
  O12      1.0000 0.05750  0.00830  0.65109  Biso   1.000  O
  C18      1.0000 0.08290  0.84470  0.69070  Biso   1.000  C
  N4       1.0000 0.64170  0.95530  0.79400  Biso   1.000  N
  O13      1.0000 0.80410  0.93910  0.67603  Biso   1.000  O
  C19      1.0000 0.98190  0.84460  0.72790  Biso   1.000  C
  O14      1.0000 0.89930  0.97610  0.78413  Biso   1.000  O
  C20      1.0000 0.96040  0.76110  0.76250  Biso   1.000  C
  H11      1.0000 0.89510  0.75920  0.78870  Biso   1.000  H
  O15      1.0000 0.71330  0.63290  0.84088  Biso   1.000  O
  C21      1.0000 0.03520  0.68030  0.75870  Biso   1.000  C
  H12      1.0000 0.02040  0.62510  0.78330  Biso   1.000  H
  C22      1.0000 0.12040  0.93130  0.65250  Biso   1.000  C
  O16      1.0000 0.73010  0.72280  0.93590  Biso   1.000  O
  C23      1.0000 0.88910  0.92770  0.72760  Biso   1.000  C
  O17      1.0000 0.38840  0.65840  0.71865  Biso   1.000  O
  C24      1.0000 0.68500  0.87900  0.83310  Biso   1.000  C
  H13      1.0000 0.76060  0.88570  0.86490  Biso   1.000  H
  O18      1.0000 0.41380  0.65260  0.83500  Biso   1.000  O
  O19      1.0000 0.07970  0.56100  0.98137  Biso   1.000  O
  C25      1.0000 0.62410  0.79150  0.82900  Biso   1.000  C
  O20      1.0000 0.99710  0.69130  0.92905  Biso   1.000  O
  C26      1.0000 0.50920  0.78130  0.78340  Biso   1.000  C
  C27      1.0000 0.46120  0.86060  0.74410  Biso   1.000  C
  H14      1.0000 0.38350  0.85640  0.71390  Biso   1.000  H
  C28      1.0000 0.52950  0.94560  0.75000  Biso   1.000  C
  H15      1.0000 0.49720  0.99810  0.72270  Biso   1.000  H
  C29      1.0000 0.43210  0.68880  0.78090  Biso   1.000  C
  C30      1.0000 0.69140  0.70990  0.87200  Biso   1.000  C
  C31      1.0000 0.22610  0.68620  0.96200  Biso   1.000  C
  H16      1.0000 0.26020  0.70170  0.00960  Biso   1.000  H
  H17      1.0000 0.22210  0.74360  0.93420  Biso   1.000  H
  H18      1.0000 0.28030  0.63970  0.94510  Biso   1.000  H
  C32      1.0000 0.09490  0.64510  0.95760  Biso   1.000  C
  O21      1.0000 0.21600  0.57640  0.12134  Biso   1.000  O
  Er3      1.0000 0.84498  0.93292  0.44409  Biso   1.000  Er
  Cu3      1.0000 0.24343  0.93210  0.21058  Biso   1.000  Cu
  N5       1.0000 0.12900  0.82020  0.22040  Biso   1.000  N
  C33      1.0000 0.15110  0.73930  0.18760  Biso   1.000  C
  H19      1.0000 0.21610  0.73950  0.16120  Biso   1.000  H
  O22      1.0000 0.05750  0.49170  0.15109  Biso   1.000  O
  C34      1.0000 0.08290  0.65530  0.19070  Biso   1.000  C
  N6       1.0000 0.64170  0.54470  0.29400  Biso   1.000  N
  O23      1.0000 0.80410  0.56090  0.17603  Biso   1.000  O
  C35      1.0000 0.98190  0.65540  0.22790  Biso   1.000  C
  O24      1.0000 0.89930  0.52390  0.28413  Biso   1.000  O
  C36      1.0000 0.96040  0.73890  0.26250  Biso   1.000  C
  H20      1.0000 0.89510  0.74080  0.28870  Biso   1.000  H
  O25      1.0000 0.71330  0.86710  0.34088  Biso   1.000  O
  C37      1.0000 0.03520  0.81970  0.25870  Biso   1.000  C
  H21      1.0000 0.02040  0.87490  0.28330  Biso   1.000  H
  C38      1.0000 0.12040  0.56870  0.15250  Biso   1.000  C
  O26      1.0000 0.73010  0.77720  0.43590  Biso   1.000  O
  C39      1.0000 0.88910  0.57230  0.22760  Biso   1.000  C
  O27      1.0000 0.38840  0.84160  0.21865  Biso   1.000  O
  C40      1.0000 0.68500  0.62100  0.33310  Biso   1.000  C
  H22      1.0000 0.76060  0.61430  0.36490  Biso   1.000  H
  O28      1.0000 0.41380  0.84740  0.33500  Biso   1.000  O
  O29      1.0000 0.07970  0.93900  0.48137  Biso   1.000  O
  C41      1.0000 0.62410  0.70850  0.32900  Biso   1.000  C
  O30      1.0000 0.99710  0.80870  0.42905  Biso   1.000  O
  C42      1.0000 0.50920  0.71870  0.28340  Biso   1.000  C
  C43      1.0000 0.46120  0.63940  0.24410  Biso   1.000  C
  H23      1.0000 0.38350  0.64360  0.21390  Biso   1.000  H
  C44      1.0000 0.52950  0.55440  0.25000  Biso   1.000  C
  H24      1.0000 0.49720  0.50190  0.22270  Biso   1.000  H
  C45      1.0000 0.43210  0.81120  0.28090  Biso   1.000  C
  C46      1.0000 0.69140  0.79010  0.37200  Biso   1.000  C
  C47      1.0000 0.22610  0.81380  0.46200  Biso   1.000  C
  H25      1.0000 0.26020  0.79830  0.50960  Biso   1.000  H
  H26      1.0000 0.22210  0.75640  0.43420  Biso   1.000  H
  H27      1.0000 0.28030  0.86030  0.44510  Biso   1.000  H
  C48      1.0000 0.09490  0.85490  0.45760  Biso   1.000  C
  O31      1.0000 0.78400  0.07640  0.37866  Biso   1.000  O
  Er4      1.0000 0.15502  0.43292  0.05591  Biso   1.000  Er
  Cu4      1.0000 0.75657  0.43210  0.28942  Biso   1.000  Cu
  N7       1.0000 0.87100  0.32020  0.27960  Biso   1.000  N
  C49      1.0000 0.84890  0.23930  0.31240  Biso   1.000  C
  H28      1.0000 0.78390  0.23950  0.33880  Biso   1.000  H
  O32      1.0000 0.94250  0.99170  0.34891  Biso   1.000  O
  C50      1.0000 0.91710  0.15530  0.30930  Biso   1.000  C
  N8       1.0000 0.35830  0.04470  0.20600  Biso   1.000  N
  O33      1.0000 0.19590  0.06090  0.32397  Biso   1.000  O
  C51      1.0000 0.01810  0.15540  0.27210  Biso   1.000  C
  O34      1.0000 0.10070  0.02390  0.21587  Biso   1.000  O
  C52      1.0000 0.03960  0.23890  0.23750  Biso   1.000  C
  H29      1.0000 0.10490  0.24080  0.21130  Biso   1.000  H
  O35      1.0000 0.28670  0.36710  0.15912  Biso   1.000  O
  C53      1.0000 0.96480  0.31970  0.24130  Biso   1.000  C
  H30      1.0000 0.97960  0.37490  0.21670  Biso   1.000  H
  C54      1.0000 0.87960  0.06870  0.34750  Biso   1.000  C
  O36      1.0000 0.26990  0.27720  0.06410  Biso   1.000  O
  C55      1.0000 0.11090  0.07230  0.27240  Biso   1.000  C
  O37      1.0000 0.61160  0.34160  0.28135  Biso   1.000  O
  C56      1.0000 0.31500  0.12100  0.16690  Biso   1.000  C
  H31      1.0000 0.23940  0.11430  0.13510  Biso   1.000  H
  O38      1.0000 0.58620  0.34740  0.16500  Biso   1.000  O
  O39      1.0000 0.92030  0.43900  0.01863  Biso   1.000  O
  C57      1.0000 0.37590  0.20850  0.17100  Biso   1.000  C
  O40      1.0000 0.00290  0.30870  0.07095  Biso   1.000  O
  C58      1.0000 0.49080  0.21870  0.21660  Biso   1.000  C
  C59      1.0000 0.53880  0.13940  0.25590  Biso   1.000  C
  H32      1.0000 0.61650  0.14360  0.28610  Biso   1.000  H
  C60      1.0000 0.47050  0.05440  0.25000  Biso   1.000  C
  H33      1.0000 0.50280  0.00190  0.27730  Biso   1.000  H
  C61      1.0000 0.56790  0.31120  0.21910  Biso   1.000  C
  C62      1.0000 0.30860  0.29010  0.12800  Biso   1.000  C
  C63      1.0000 0.77390  0.31380  0.03800  Biso   1.000  C
  H34      1.0000 0.73980  0.29830  0.99040  Biso   1.000  H
  H35      1.0000 0.77790  0.25640  0.06580  Biso   1.000  H
  H36      1.0000 0.71970  0.36030  0.05490  Biso   1.000  H
  C64      1.0000 0.90510  0.35490  0.04240  Biso   1.000  C
