data_QOSJOZ_clean
_audit_creation_date              2015-10-16
_audit_creation_method            'Materials Studio'
_symmetry_space_group_name_H-M    'P1'
_symmetry_Int_Tables_number       1
_symmetry_cell_setting            triclinic
loop_
_symmetry_equiv_pos_as_xyz
  x,y,z
_cell_length_a                    13.9580
_cell_length_b                    20.5290
_cell_length_c                    30.6820
_cell_angle_alpha                 90.0000
_cell_angle_beta                  90.0000
_cell_angle_gamma                 98.8200
loop_
_atom_site_label
_atom_site_type_symbol
_atom_site_fract_x
_atom_site_fract_y
_atom_site_fract_z
_atom_site_U_iso_or_equiv
_atom_site_adp_type
_atom_site_occupancy
Gd1    Gd    0.46130   0.10437   0.31033   0.01267  Uiso   1.00
Gd2    Gd    0.96130   0.60437   0.18967   0.01267  Uiso   1.00
Gd3    Gd    0.97581   0.62507   0.44914   0.01267  Uiso   1.00
Gd4    Gd    0.03870   0.39563   0.81033   0.01267  Uiso   1.00
Gd5    Gd    0.47581   0.12507   0.05086   0.01267  Uiso   1.00
Gd6    Gd    0.02419   0.37493   0.55086   0.01267  Uiso   1.00
Gd7    Gd    0.52419   0.87493   0.94914   0.01267  Uiso   1.00
Gd8    Gd    0.53870   0.89563   0.68967   0.01267  Uiso   1.00
Cu1    Cu    0.02668   0.88862   0.31523   0.01267  Uiso   1.00
Cu2    Cu    0.50830   0.77960   0.47799   0.01267  Uiso   1.00
Cu3    Cu    0.50456   0.24263   0.84233   0.01267  Uiso   1.00
Cu4    Cu    0.52668   0.38862   0.18477   0.01267  Uiso   1.00
Cu5    Cu    0.99544   0.25737   0.34233   0.01267  Uiso   1.00
Cu6    Cu    0.49170   0.22040   0.52201   0.01267  Uiso   1.00
Cu7    Cu    0.00830   0.27960   0.02201   0.01267  Uiso   1.00
Cu8    Cu    0.99170   0.72040   0.97799   0.01267  Uiso   1.00
Cu9    Cu    0.00456   0.74263   0.65767   0.01267  Uiso   1.00
Cu10   Cu    0.47332   0.61138   0.81523   0.01267  Uiso   1.00
Cu11   Cu    0.49544   0.75737   0.15767   0.01267  Uiso   1.00
Cu12   Cu    0.97332   0.11138   0.68477   0.01267  Uiso   1.00
H1     H     0.18690   0.77980   0.96080   0.01267  Uiso   1.00
H2     H     0.44810   0.31250   0.10590   0.01267  Uiso   1.00
H3     H     0.68390   0.71940   0.46950   0.01267  Uiso   1.00
H4     H     0.30470   0.29400   0.06750   0.01267  Uiso   1.00
H5     H     0.23760   0.39000   0.24470   0.01267  Uiso   1.00
H6     H     0.81310   0.22020   0.03920   0.01267  Uiso   1.00
H7     H     0.54250   0.11320   0.58440   0.01267  Uiso   1.00
H8     H     0.80470   0.79400   0.43250   0.01267  Uiso   1.00
H9     H     0.30140   0.23190   0.38420   0.01267  Uiso   1.00
H10    H     0.94020   0.26090   0.43890   0.01267  Uiso   1.00
H11    H     0.56910   0.29450   0.25320   0.01267  Uiso   1.00
H12    H     0.82150   0.41070   0.12070   0.01267  Uiso   1.00
H13    H     0.20030   0.77270   0.20570   0.01267  Uiso   1.00
H14    H     0.32150   0.91070   0.37930   0.01267  Uiso   1.00
H15    H     0.20670   0.79560   0.66800   0.01267  Uiso   1.00
H16    H     0.19530   0.20600   0.56750   0.01267  Uiso   1.00
H17    H     0.65970   0.69470   0.17880   0.01267  Uiso   1.00
H18    H     0.69860   0.76810   0.61580   0.01267  Uiso   1.00
H19    H     0.95750   0.38680   0.08440   0.01267  Uiso   1.00
H20    H     0.22110   0.95710   0.29390   0.01267  Uiso   1.00
H21    H     0.68690   0.27980   0.53920   0.01267  Uiso   1.00
H22    H     0.93090   0.20550   0.75320   0.01267  Uiso   1.00
H23    H     0.05190   0.18750   0.60590   0.01267  Uiso   1.00
H24    H     0.15970   0.19470   0.32120   0.01267  Uiso   1.00
H25    H     0.80350   0.22980   0.48120   0.01267  Uiso   1.00
H26    H     0.07300   0.29350   0.92710   0.01267  Uiso   1.00
H27    H     0.42700   0.20650   0.42710   0.01267  Uiso   1.00
H28    H     0.31610   0.28060   0.53050   0.01267  Uiso   1.00
H29    H     0.90820   0.63530   0.71830   0.01267  Uiso   1.00
H30    H     0.34030   0.30530   0.82120   0.01267  Uiso   1.00
H31    H     0.43090   0.70550   0.74680   0.01267  Uiso   1.00
H32    H     0.05980   0.73910   0.56110   0.01267  Uiso   1.00
H33    H     0.92700   0.70650   0.07290   0.01267  Uiso   1.00
H34    H     0.73760   0.89000   0.25530   0.01267  Uiso   1.00
H35    H     0.26240   0.11000   0.74470   0.01267  Uiso   1.00
H36    H     0.40820   0.13530   0.78170   0.01267  Uiso   1.00
H37    H     0.64390   0.54660   0.82630   0.01267  Uiso   1.00
H38    H     0.80140   0.73190   0.11580   0.01267  Uiso   1.00
H39    H     0.67850   0.08930   0.62070   0.01267  Uiso   1.00
H40    H     0.77890   0.04290   0.70610   0.01267  Uiso   1.00
H41    H     0.79330   0.20440   0.33200   0.01267  Uiso   1.00
H42    H     0.29970   0.72730   0.70570   0.01267  Uiso   1.00
H43    H     0.94810   0.81250   0.39410   0.01267  Uiso   1.00
H44    H     0.70030   0.27270   0.29430   0.01267  Uiso   1.00
H45    H     0.79970   0.22730   0.79430   0.01267  Uiso   1.00
H46    H     0.69530   0.70600   0.93250   0.01267  Uiso   1.00
H47    H     0.72110   0.45710   0.20610   0.01267  Uiso   1.00
H48    H     0.17850   0.58930   0.87930   0.01267  Uiso   1.00
H49    H     0.59180   0.86470   0.21830   0.01267  Uiso   1.00
H50    H     0.57300   0.79350   0.57290   0.01267  Uiso   1.00
H51    H     0.14390   0.04660   0.67370   0.01267  Uiso   1.00
H52    H     0.55190   0.68750   0.89410   0.01267  Uiso   1.00
H53    H     0.19650   0.77020   0.51880   0.01267  Uiso   1.00
H54    H     0.09180   0.36470   0.28170   0.01267  Uiso   1.00
H55    H     0.27890   0.54290   0.79390   0.01267  Uiso   1.00
H56    H     0.06910   0.79450   0.24680   0.01267  Uiso   1.00
H57    H     0.84030   0.80530   0.67880   0.01267  Uiso   1.00
H58    H     0.45750   0.88680   0.41560   0.01267  Uiso   1.00
H59    H     0.70670   0.29560   0.83200   0.01267  Uiso   1.00
H60    H     0.35610   0.45340   0.17370   0.01267  Uiso   1.00
H61    H     0.29330   0.70440   0.16800   0.01267  Uiso   1.00
H62    H     0.69650   0.27020   0.98120   0.01267  Uiso   1.00
H63    H     0.44020   0.76090   0.06110   0.01267  Uiso   1.00
H64    H     0.18390   0.21940   0.03050   0.01267  Uiso   1.00
H65    H     0.31310   0.72020   0.46080   0.01267  Uiso   1.00
H66    H     0.55980   0.23910   0.93890   0.01267  Uiso   1.00
H67    H     0.85610   0.95340   0.32630   0.01267  Uiso   1.00
H68    H     0.04250   0.61320   0.91560   0.01267  Uiso   1.00
H69    H     0.19860   0.26810   0.88420   0.01267  Uiso   1.00
H70    H     0.76240   0.61000   0.75530   0.01267  Uiso   1.00
H71    H     0.30350   0.72980   0.01880   0.01267  Uiso   1.00
H72    H     0.81610   0.78060   0.96950   0.01267  Uiso   1.00
C1     C     0.25840   0.13430   0.59690   0.01267  Uiso   1.00
C2     C     0.72810   0.77090   0.06720   0.01267  Uiso   1.00
C3     C     0.31170   0.26920   0.50050   0.01267  Uiso   1.00
C4     C     0.71020   0.20200   0.43110   0.01267  Uiso   1.00
C5     C     0.38290   0.83000   0.63960   0.01267  Uiso   1.00
C6     C     0.85570   0.16590   0.62992   0.01267  Uiso   1.00
C7     C     0.62250   0.77320   0.55980   0.01267  Uiso   1.00
C8     C     0.10110   0.16190   0.61250   0.01267  Uiso   1.00
C9     C     0.71710   0.41940   0.22430   0.01267  Uiso   1.00
C10    C     0.65120   0.85610   0.43070   0.01267  Uiso   1.00
C11    C     0.76720   0.74740   0.21460   0.01267  Uiso   1.00
C12    C     0.17670   0.23500   0.30580   0.01267  Uiso   1.00
C13    C     0.77640   0.65010   0.73950   0.01267  Uiso   1.00
C14    C     0.20960   0.19360   0.76200   0.01267  Uiso   1.00
C15    C     0.22360   0.34990   0.26050   0.01267  Uiso   1.00
C16    C     0.27640   0.15010   0.76050   0.01267  Uiso   1.00
C17    C     0.63660   0.83420   0.21760   0.01267  Uiso   1.00
C18    C     0.28980   0.79800   0.56890   0.01267  Uiso   1.00
C19    C     0.19770   0.25830   0.91450   0.01267  Uiso   1.00
C20    C     0.68190   0.12890   0.60440   0.01267  Uiso   1.00
C21    C     0.29860   0.90950   0.25190   0.01267  Uiso   1.00
C22    C     0.84990   0.70910   0.59660   0.01267  Uiso   1.00
C23    C     0.24200   0.08670   0.62950   0.01267  Uiso   1.00
C24    C     0.12250   0.27320   0.94020   0.01267  Uiso   1.00
C25    C     0.65010   0.79090   0.09660   0.01267  Uiso   1.00
C26    C     0.26970   0.72940   0.92370   0.01267  Uiso   1.00
C27    C     0.10120   0.64340   0.91750   0.01267  Uiso   1.00
C28    C     0.81790   0.54510   0.85690   0.01267  Uiso   1.00
C29    C     0.86340   0.66580   0.71760   0.01267  Uiso   1.00
C30    C     0.70960   0.69360   0.73800   0.01267  Uiso   1.00
C31    C     0.64430   0.33410   0.12992   0.01267  Uiso   1.00
C32    C     0.81400   0.82750   0.41090   0.01267  Uiso   1.00
C33    C     0.28290   0.58060   0.77570   0.01267  Uiso   1.00
C34    C     0.64000   0.22090   0.06900   0.01267  Uiso   1.00
C35    C     0.24160   0.36570   0.09690   0.01267  Uiso   1.00
C36    C     0.75840   0.63430   0.90310   0.01267  Uiso   1.00
C37    C     0.37180   0.67580   0.74820   0.01267  Uiso   1.00
C38    C     0.79860   0.40950   0.24810   0.01267  Uiso   1.00
C39    C     0.18600   0.17250   0.58910   0.01267  Uiso   1.00
C40    C     0.75800   0.91330   0.37050   0.01267  Uiso   1.00
C41    C     0.18580   0.74070   0.94420   0.01267  Uiso   1.00
C42    C     0.37750   0.22680   0.44020   0.01267  Uiso   1.00
C43    C     0.61710   0.17000   0.36040   0.01267  Uiso   1.00
C44    C     0.87530   0.34120   0.30450   0.01267  Uiso   1.00
C45    C     0.23280   0.25260   0.78540   0.01267  Uiso   1.00
C46    C     0.65480   0.81180   0.99830   0.01267  Uiso   1.00
C47    C     0.29220   0.80600   0.61440   0.01267  Uiso   1.00
C48    C     0.15480   0.31180   0.50170   0.01267  Uiso   1.00
C49    C     0.89890   0.83810   0.38750   0.01267  Uiso   1.00
C50    C     0.79370   0.18910   0.77650   0.01267  Uiso   1.00
C51    C     0.80230   0.74170   0.08550   0.01267  Uiso   1.00
C52    C     0.11690   0.18210   0.73530   0.01267  Uiso   1.00
C53    C     0.12240   0.68410   0.04020   0.01267  Uiso   1.00
C54    C     0.31810   0.87110   0.39560   0.01267  Uiso   1.00
C55    C     0.68580   0.24070   0.55580   0.01267  Uiso   1.00
C56    C     0.26720   0.24740   0.28540   0.01267  Uiso   1.00
C57    C     0.60110   0.66190   0.88750   0.01267  Uiso   1.00
C58    C     0.29910   0.72560   0.04960   0.01267  Uiso   1.00
C59    C     0.68210   0.95490   0.35690   0.01267  Uiso   1.00
C60    C     0.38110   0.74310   0.07490   0.01267  Uiso   1.00
C61    C     0.20090   0.77440   0.54960   0.01267  Uiso   1.00
C62    C     0.10930   0.54180   0.75750   0.01267  Uiso   1.00
C63    C     0.14430   0.83410   0.37008   0.01267  Uiso   1.00
C64    C     0.66310   0.80070   0.70840   0.01267  Uiso   1.00
C65    C     0.70630   0.31090   0.27650   0.01267  Uiso   1.00
C66    C     0.81420   0.25930   0.05580   0.01267  Uiso   1.00
C67    C     0.38310   0.31790   0.23530   0.01267  Uiso   1.00
C68    C     0.81810   0.37110   0.10440   0.01267  Uiso   1.00
C69    C     0.29340   0.85410   0.22520   0.01267  Uiso   1.00
C70    C     0.31790   0.04510   0.64310   0.01267  Uiso   1.00
C71    C     0.34520   0.18820   0.00170   0.01267  Uiso   1.00
C72    C     0.31400   0.32750   0.08910   0.01267  Uiso   1.00
C73    C     0.76680   0.71640   0.52270   0.01267  Uiso   1.00
C74    C     0.74160   0.86570   0.40310   0.01267  Uiso   1.00
C75    C     0.26870   0.67340   0.89770   0.01267  Uiso   1.00
C76    C     0.29040   0.30640   0.26200   0.01267  Uiso   1.00
C77    C     0.27190   0.22910   0.93280   0.01267  Uiso   1.00
C78    C     0.79450   0.21090   0.36270   0.01267  Uiso   1.00
C79    C     0.18830   0.23080   0.00050   0.01267  Uiso   1.00
C80    C     0.14000   0.72090   0.43100   0.01267  Uiso   1.00
C81    C     0.25800   0.41330   0.12950   0.01267  Uiso   1.00
C82    C     0.62820   0.32420   0.25180   0.01267  Uiso   1.00
C83    C     0.34480   0.42050   0.15180   0.01267  Uiso   1.00
C84    C     0.20140   0.59050   0.75190   0.01267  Uiso   1.00
C85    C     0.20550   0.78910   0.63730   0.01267  Uiso   1.00
C86    C     0.73030   0.27060   0.07630   0.01267  Uiso   1.00
C87    C     0.70090   0.27440   0.95040   0.01267  Uiso   1.00
C88    C     0.20630   0.81090   0.22350   0.01267  Uiso   1.00
C89    C     0.23320   0.28360   0.47730   0.01267  Uiso   1.00
C90    C     0.61890   0.25690   0.92510   0.01267  Uiso   1.00
C91    C     0.73130   0.32660   0.10230   0.01267  Uiso   1.00
C92    C     0.88290   0.33000   0.86040   0.01267  Uiso   1.00
C93    C     0.36000   0.77910   0.93100   0.01267  Uiso   1.00
C94    C     0.86000   0.27910   0.56900   0.01267  Uiso   1.00
C95    C     0.62470   0.15880   0.80450   0.01267  Uiso   1.00
C96    C     0.89070   0.45820   0.24250   0.01267  Uiso   1.00
C97    C     0.34880   0.14390   0.56930   0.01267  Uiso   1.00
C98    C     0.74200   0.58670   0.87050   0.01267  Uiso   1.00
C99    C     0.29450   0.71090   0.13730   0.01267  Uiso   1.00
C100   C     0.62240   0.18410   0.45980   0.01267  Uiso   1.00
C101   C     0.26680   0.21640   0.97730   0.01267  Uiso   1.00
C102   C     0.76870   0.17340   0.60230   0.01267  Uiso   1.00
C103   C     0.84880   0.64390   0.93070   0.01267  Uiso   1.00
C104   C     0.70550   0.28910   0.86270   0.01267  Uiso   1.00
C105   C     0.84480   0.92050   0.34820   0.01267  Uiso   1.00
C106   C     0.13660   0.33420   0.28240   0.01267  Uiso   1.00
C107   C     0.15010   0.29090   0.40340   0.01267  Uiso   1.00
C108   C     0.15520   0.07950   0.65180   0.01267  Uiso   1.00
C109   C     0.70660   0.14590   0.77480   0.01267  Uiso   1.00
C110   C     0.69770   0.75830   0.58550   0.01267  Uiso   1.00
C111   C     0.32330   0.26500   0.80580   0.01267  Uiso   1.00
C112   C     0.68600   0.67250   0.91090   0.01267  Uiso   1.00
C113   C     0.15120   0.35610   0.06930   0.01267  Uiso   1.00
C114   C     0.79910   0.22560   0.45040   0.01267  Uiso   1.00
C115   C     0.73280   0.75260   0.71460   0.01267  Uiso   1.00
C116   C     0.88110   0.24310   0.42510   0.01267  Uiso   1.00
C117   C     0.20660   0.64590   0.72520   0.01267  Uiso   1.00
C118   C     0.88310   0.81790   0.26470   0.01267  Uiso   1.00
C119   C     0.23130   0.82660   0.39770   0.01267  Uiso   1.00
C120   C     0.34990   0.20910   0.90340   0.01267  Uiso   1.00
C121   C     0.23030   0.77060   0.42370   0.01267  Uiso   1.00
C122   C     0.12470   0.65880   0.69550   0.01267  Uiso   1.00
C123   C     0.87750   0.72680   0.05980   0.01267  Uiso   1.00
C124   C     0.60930   0.04180   0.74250   0.01267  Uiso   1.00
C125   C     0.67670   0.73500   0.19420   0.01267  Uiso   1.00
C126   C     0.21020   0.70200   0.06890   0.01267  Uiso   1.00
C127   C     0.11710   0.67000   0.13960   0.01267  Uiso   1.00
C128   C     0.39070   0.95820   0.25750   0.01267  Uiso   1.00
C129   C     0.61690   0.68210   0.76470   0.01267  Uiso   1.00
C130   C     0.72360   0.84990   0.23950   0.01267  Uiso   1.00
C131   C     0.65520   0.57950   0.84820   0.01267  Uiso   1.00
C132   C     0.78290   0.08060   0.72430   0.01267  Uiso   1.00
C133   C     0.89880   0.35660   0.08250   0.01267  Uiso   1.00
C134   C     0.12820   0.82420   0.24820   0.01267  Uiso   1.00
C135   C     0.79040   0.80640   0.23800   0.01267  Uiso   1.00
C136   C     0.70780   0.19400   0.38560   0.01267  Uiso   1.00
C137   C     0.29370   0.68910   0.72350   0.01267  Uiso   1.00
C138   C     0.79340   0.35410   0.27480   0.01267  Uiso   1.00
C139   C     0.77190   0.72910   0.56720   0.01267  Uiso   1.00
C140   C     0.78980   0.29800   0.93110   0.01267  Uiso   1.00
C141   C     0.21710   0.91940   0.27570   0.01267  Uiso   1.00
C142   C     0.83690   0.69930   0.20840   0.01267  Uiso   1.00
C143   C     0.76970   0.22940   0.57630   0.01267  Uiso   1.00
C144   C     0.37530   0.84120   0.19550   0.01267  Uiso   1.00
C145   C     0.79220   0.30600   0.88560   0.01267  Uiso   1.00
C146   C     0.70140   0.09050   0.74810   0.01267  Uiso   1.00
C147   C     0.35570   0.66590   0.87008   0.01267  Uiso   1.00
C148   C     0.18190   0.62890   0.89560   0.01267  Uiso   1.00
C149   C     0.81170   0.76920   0.99950   0.01267  Uiso   1.00
C150   C     0.68830   0.73080   0.49950   0.01267  Uiso   1.00
C151   C     0.22810   0.27090   0.43280   0.01267  Uiso   1.00
C152   C     0.84520   0.68820   0.49830   0.01267  Uiso   1.00
C153   C     0.30230   0.24170   0.41450   0.01267  Uiso   1.00
C154   C     0.82330   0.76500   0.69420   0.01267  Uiso   1.00
C155   C     0.39880   0.85660   0.41750   0.01267  Uiso   1.00
C156   C     0.36340   0.16580   0.78240   0.01267  Uiso   1.00
C157   C     0.20780   0.69400   0.11440   0.01267  Uiso   1.00
C158   C     0.33690   0.19930   0.29160   0.01267  Uiso   1.00
C159   C     0.18210   0.45490   0.14310   0.01267  Uiso   1.00
C160   C     0.87180   0.17580   0.75180   0.01267  Uiso   1.00
C161   C     0.16310   0.30070   0.79160   0.01267  Uiso   1.00
C162   C     0.87760   0.31590   0.95980   0.01267  Uiso   1.00
C163   C     0.37760   0.81590   0.54020   0.01267  Uiso   1.00
C164   C     0.39890   0.33810   0.11250   0.01267  Uiso   1.00
C165   C     0.60120   0.14340   0.58250   0.01267  Uiso   1.00
C166   C     0.31420   0.75930   0.44420   0.01267  Uiso   1.00
C167   C     0.73320   0.78360   0.02270   0.01267  Uiso   1.00
C168   C     0.11890   0.75690   0.57490   0.01267  Uiso   1.00
N1     N     0.62050   0.26430   0.88127   0.01267  Uiso   1.00
N2     N     0.58550   0.61700   0.85603   0.01267  Uiso   1.00
N3     N     0.13300   0.87780   0.27399   0.01267  Uiso   1.00
N4     N     0.08550   0.11700   0.64397   0.01267  Uiso   1.00
N5     N     0.39780   0.80190   0.44138   0.01267  Uiso   1.00
N6     N     0.91450   0.88300   0.35603   0.01267  Uiso   1.00
N7     N     0.87950   0.23570   0.38127   0.01267  Uiso   1.00
N8     N     0.10220   0.69810   0.94138   0.01267  Uiso   1.00
N9     N     0.36700   0.62220   0.77399   0.01267  Uiso   1.00
N10    N     0.37950   0.73570   0.11873   0.01267  Uiso   1.00
N11    N     0.12050   0.76430   0.61873   0.01267  Uiso   1.00
N12    N     0.11280   0.27750   0.30462   0.01267  Uiso   1.00
N13    N     0.88290   0.73980   0.01704   0.01267  Uiso   1.00
N14    N     0.60220   0.19810   0.55862   0.01267  Uiso   1.00
N15    N     0.63300   0.37780   0.22601   0.01267  Uiso   1.00
N16    N     0.38290   0.23980   0.48296   0.01267  Uiso   1.00
N17    N     0.41450   0.38300   0.14397   0.01267  Uiso   1.00
N18    N     0.89780   0.30190   0.05862   0.01267  Uiso   1.00
N19    N     0.61710   0.76020   0.51704   0.01267  Uiso   1.00
N20    N     0.61280   0.77750   0.19538   0.01267  Uiso   1.00
N21    N     0.86700   0.12220   0.72601   0.01267  Uiso   1.00
N22    N     0.88720   0.72250   0.69538   0.01267  Uiso   1.00
N23    N     0.11710   0.26020   0.98296   0.01267  Uiso   1.00
N24    N     0.38720   0.22250   0.80462   0.01267  Uiso   1.00
O1     O     0.93260   0.26000   0.55119   0.01267  Uiso   1.00
O2     O     0.66880   0.82510   0.95835   0.01267  Uiso   1.00
O3     O     0.96150   0.34610   0.88023   0.01267  Uiso   1.00
O4     O     0.58560   0.20900   0.79665   0.01267  Uiso   1.00
O5     O     0.64170   0.16200   0.07900   0.01267  Uiso   1.00
O6     O     0.80940   0.63930   0.21834   0.01267  Uiso   1.00
O7     O     0.90390   0.57280   0.85597   0.01267  Uiso   1.00
O8     O     0.39200   0.87800   0.16312   0.01267  Uiso   1.00
O9     O     0.87550   0.10870   0.63636   0.01267  Uiso   1.00
O10    O     0.06740   0.74000   0.44881   0.01267  Uiso   1.00
O11    O     0.39870   0.20170   0.57055   0.01267  Uiso   1.00
O12    O     0.21190   0.51340   0.15470   0.01267  Uiso   1.00
O13    O     0.12010   0.48510   0.77053   0.01267  Uiso   1.00
O14    O     0.09160   0.23020   0.71601   0.01267  Uiso   1.00
O15    O     0.03070   0.56210   0.75050   0.01267  Uiso   1.00
O16    O     0.62450   0.39130   0.13636   0.01267  Uiso   1.00
O17    O     0.41670   0.25430   0.89203   0.01267  Uiso   1.00
O18    O     0.58180   0.78110   0.69137   0.01267  Uiso   1.00
O19    O     0.90080   0.37270   0.97245   0.01267  Uiso   1.00
O20    O     0.09610   0.42720   0.14403   0.01267  Uiso   1.00
O21    O     0.57200   0.62320   0.76650   0.01267  Uiso   1.00
O22    O     0.53070   0.06210   0.74950   0.01267  Uiso   1.00
O23    O     0.42800   0.37680   0.23350   0.01267  Uiso   1.00
O24    O     0.28810   0.98660   0.65470   0.01267  Uiso   1.00
O25    O     0.59610   0.92720   0.35597   0.01267  Uiso   1.00
O26    O     0.96930   0.43790   0.24950   0.01267  Uiso   1.00
O27    O     0.91860   0.26690   0.97175   0.01267  Uiso   1.00
O28    O     0.40080   0.87270   0.52755   0.01267  Uiso   1.00
O29    O     0.59160   0.73020   0.78399   0.01267  Uiso   1.00
O30    O     0.33120   0.17490   0.04165   0.01267  Uiso   1.00
O31    O     0.41440   0.79100   0.20335   0.01267  Uiso   1.00
O32    O     0.19060   0.36070   0.78166   0.01267  Uiso   1.00
O33    O     0.71190   0.01340   0.34530   0.01267  Uiso   1.00
O34    O     0.46930   0.93790   0.25050   0.01267  Uiso   1.00
O35    O     0.85830   0.33800   0.57900   0.01267  Uiso   1.00
O36    O     0.09920   0.62730   0.02755   0.01267  Uiso   1.00
O37    O     0.35830   0.83800   0.92100   0.01267  Uiso   1.00
O38    O     0.14170   0.66200   0.42100   0.01267  Uiso   1.00
O39    O     0.57910   0.82110   0.01730   0.01267  Uiso   1.00
O40    O     0.83120   0.67490   0.45835   0.01267  Uiso   1.00
O41    O     0.40040   0.71760   0.85348   0.01267  Uiso   1.00
O42    O     0.58330   0.74570   0.10797   0.01267  Uiso   1.00
O43    O     0.08330   0.24570   0.39203   0.01267  Uiso   1.00
O44    O     0.10800   0.62200   0.66312   0.01267  Uiso   1.00
O45    O     0.62010   0.98510   0.72947   0.01267  Uiso   1.00
O46    O     0.12450   0.89130   0.36364   0.01267  Uiso   1.00
O47    O     0.87660   0.33320   0.81949   0.01267  Uiso   1.00
O48    O     0.83960   0.65060   0.60931   0.01267  Uiso   1.00
O49    O     0.16040   0.34940   0.39069   0.01267  Uiso   1.00
O50    O     0.91440   0.29100   0.29665   0.01267  Uiso   1.00
O51    O     0.58140   0.23310   0.47175   0.01267  Uiso   1.00
O52    O     0.37660   0.83320   0.68051   0.01267  Uiso   1.00
O53    O     0.92090   0.67890   0.51730   0.01267  Uiso   1.00
O54    O     0.87990   0.51490   0.22947   0.01267  Uiso   1.00
O55    O     0.33960   0.15060   0.89069   0.01267  Uiso   1.00
O56    O     0.86840   0.59940   0.95380   0.01267  Uiso   1.00
O57    O     0.42090   0.17890   0.98270   0.01267  Uiso   1.00
O58    O     0.40840   0.26980   0.21601   0.01267  Uiso   1.00
O59    O     0.56740   0.24000   0.05119   0.01267  Uiso   1.00
O60    O     0.89870   0.70170   0.92945   0.01267  Uiso   1.00
O61    O     0.37990   0.01490   0.27053   0.01267  Uiso   1.00
O62    O     0.60800   0.12200   0.83688   0.01267  Uiso   1.00
O63    O     0.10130   0.29830   0.07055   0.01267  Uiso   1.00
O64    O     0.43260   0.76000   0.94881   0.01267  Uiso   1.00
O65    O     0.09960   0.78240   0.35348   0.01267  Uiso   1.00
O66    O     0.03850   0.65390   0.11977   0.01267  Uiso   1.00
O67    O     0.08560   0.70900   0.70335   0.01267  Uiso   1.00
O68    O     0.91820   0.71890   0.19137   0.01267  Uiso   1.00
O69    O     0.08140   0.73310   0.02825   0.01267  Uiso   1.00
O70    O     0.30940   0.13930   0.28166   0.01267  Uiso   1.00
O71    O     0.53850   0.15390   0.38023   0.01267  Uiso   1.00
O72    O     0.66040   0.84940   0.10931   0.01267  Uiso   1.00
O73    O     0.63160   0.90060   0.45380   0.01267  Uiso   1.00
O74    O     0.07200   0.12320   0.73350   0.01267  Uiso   1.00
O75    O     0.69060   0.86070   0.71834   0.01267  Uiso   1.00
O76    O     0.92800   0.87680   0.26650   0.01267  Uiso   1.00
O77    O     0.46150   0.84610   0.61977   0.01267  Uiso   1.00
O78    O     0.60130   0.79830   0.42945   0.01267  Uiso   1.00
O79    O     0.37550   0.60870   0.86364   0.01267  Uiso   1.00
O80    O     0.89200   0.37800   0.33688   0.01267  Uiso   1.00
O81    O     0.90840   0.76980   0.28399   0.01267  Uiso   1.00
O82    O     0.12340   0.66680   0.18051   0.01267  Uiso   1.00
O83    O     0.41820   0.21890   0.30863   0.01267  Uiso   1.00
O84    O     0.91670   0.75430   0.60797   0.01267  Uiso   1.00
O85    O     0.90040   0.21760   0.64652   0.01267  Uiso   1.00
O86    O     0.16880   0.32510   0.54165   0.01267  Uiso   1.00
O87    O     0.41860   0.76690   0.52825   0.01267  Uiso   1.00
O88    O     0.13160   0.40060   0.04620   0.01267  Uiso   1.00
O89    O     0.08180   0.28110   0.80863   0.01267  Uiso   1.00
O90    O     0.40390   0.07280   0.64403   0.01267  Uiso   1.00
O91    O     0.07910   0.32110   0.48270   0.01267  Uiso   1.00
O92    O     0.78810   0.48660   0.84530   0.01267  Uiso   1.00
O93    O     0.59920   0.12730   0.47245   0.01267  Uiso   1.00
O94    O     0.36840   0.09940   0.54620   0.01267  Uiso   1.00
O95    O     0.59960   0.28240   0.14652   0.01267  Uiso   1.00
O96    O     0.62340   0.16680   0.31949   0.01267  Uiso   1.00
