data_QOSJUF_clean
_audit_creation_date              2015-10-16
_audit_creation_method            'Materials Studio'
_symmetry_space_group_name_H-M    'P1'
_symmetry_Int_Tables_number       1
_symmetry_cell_setting            triclinic
loop_
_symmetry_equiv_pos_as_xyz
  x,y,z
_cell_length_a                    10.7920
_cell_length_b                    13.8890
_cell_length_c                    19.7390
_cell_angle_alpha                 90.0000
_cell_angle_beta                  100.9100
_cell_angle_gamma                 90.0000
loop_
_atom_site_label
_atom_site_type_symbol
_atom_site_fract_x
_atom_site_fract_y
_atom_site_fract_z
_atom_site_U_iso_or_equiv
_atom_site_adp_type
_atom_site_occupancy
Ho1    Ho    0.15432   0.56839   0.05714   0.01267  Uiso   1.00
Ho2    Ho    0.84568   0.43161   0.94285   0.01267  Uiso   1.00
Ho3    Ho    0.15432   0.93161   0.55714   0.01267  Uiso   1.00
Ho4    Ho    0.84568   0.06839   0.44285   0.01267  Uiso   1.00
Cu1    Cu    0.75762   0.56994   0.28501   0.01267  Uiso   1.00
Cu2    Cu    0.75762   0.93006   0.78501   0.01267  Uiso   1.00
Cu3    Cu    0.24238   0.06994   0.21499   0.01267  Uiso   1.00
Cu4    Cu    0.24238   0.43006   0.71499   0.01267  Uiso   1.00
H1     H     0.21790   0.24720   0.95360   0.01267  Uiso   1.00
H2     H     0.78210   0.75280   0.04640   0.01267  Uiso   1.00
H3     H     0.10420   0.73740   0.71280   0.01267  Uiso   1.00
H4     H     0.78210   0.74720   0.54640   0.01267  Uiso   1.00
H5     H     0.89580   0.26260   0.28720   0.01267  Uiso   1.00
H6     H     0.78620   0.73760   0.83680   0.01267  Uiso   1.00
H7     H     0.23350   0.88710   0.14010   0.01267  Uiso   1.00
H8     H     0.73290   0.65290   0.06730   0.01267  Uiso   1.00
H9     H     0.50000   0.99900   0.28000   0.01267  Uiso   1.00
H10    H     0.78620   0.76240   0.33680   0.01267  Uiso   1.00
H11    H     0.27110   0.17720   0.51070   0.01267  Uiso   1.00
H12    H     0.23350   0.61290   0.64010   0.01267  Uiso   1.00
H13    H     0.21380   0.23760   0.66320   0.01267  Uiso   1.00
H14    H     0.27110   0.32280   0.01070   0.01267  Uiso   1.00
H15    H     0.76650   0.11290   0.85990   0.01267  Uiso   1.00
H16    H     0.76650   0.38710   0.35990   0.01267  Uiso   1.00
H17    H     0.21380   0.26240   0.16320   0.01267  Uiso   1.00
H18    H     0.50000   0.49900   0.22000   0.01267  Uiso   1.00
H19    H     0.97350   0.62980   0.21370   0.01267  Uiso   1.00
H20    H     0.50000   0.50100   0.78000   0.01267  Uiso   1.00
H21    H     0.73290   0.84710   0.56730   0.01267  Uiso   1.00
H22    H     0.97350   0.87020   0.71370   0.01267  Uiso   1.00
H23    H     0.72890   0.67720   0.98930   0.01267  Uiso   1.00
H24    H     0.02650   0.37020   0.78630   0.01267  Uiso   1.00
H25    H     0.02650   0.12980   0.28630   0.01267  Uiso   1.00
H26    H     0.10420   0.76260   0.21280   0.01267  Uiso   1.00
H27    H     0.38580   0.35890   0.21270   0.01267  Uiso   1.00
H28    H     0.26710   0.34710   0.93270   0.01267  Uiso   1.00
H29    H     0.50000   0.00100   0.72000   0.01267  Uiso   1.00
H30    H     0.21790   0.25280   0.45360   0.01267  Uiso   1.00
H31    H     0.38580   0.14110   0.71270   0.01267  Uiso   1.00
H32    H     0.61420   0.64110   0.78730   0.01267  Uiso   1.00
H33    H     0.61420   0.85890   0.28730   0.01267  Uiso   1.00
H34    H     0.72890   0.82280   0.48930   0.01267  Uiso   1.00
H35    H     0.89580   0.23740   0.78720   0.01267  Uiso   1.00
H36    H     0.26710   0.15290   0.43270   0.01267  Uiso   1.00
C1     C     0.96120   0.23530   0.76260   0.01267  Uiso   1.00
C2     C     0.15140   0.26320   0.19000   0.01267  Uiso   1.00
C3     C     0.69040   0.38030   0.32910   0.01267  Uiso   1.00
C4     C     0.46720   0.94680   0.25290   0.01267  Uiso   1.00
C5     C     0.49040   0.78260   0.21810   0.01267  Uiso   1.00
C6     C     0.90320   0.85550   0.54040   0.01267  Uiso   1.00
C7     C     0.01720   0.65220   0.77300   0.01267  Uiso   1.00
C8     C     0.89010   0.06910   0.72590   0.01267  Uiso   1.00
C9     C     0.53640   0.86230   0.25760   0.01267  Uiso   1.00
C10    C     0.46360   0.36230   0.24240   0.01267  Uiso   1.00
C11    C     0.30960   0.61970   0.67090   0.01267  Uiso   1.00
C12    C     0.11930   0.06750   0.65210   0.01267  Uiso   1.00
C13    C     0.69040   0.11970   0.82910   0.01267  Uiso   1.00
C14    C     0.10990   0.93090   0.27410   0.01267  Uiso   1.00
C15    C     0.03880   0.73530   0.73740   0.01267  Uiso   1.00
C16    C     0.90320   0.64450   0.04040   0.01267  Uiso   1.00
C17    C     0.50960   0.28260   0.28190   0.01267  Uiso   1.00
C18    C     0.09680   0.35550   0.95960   0.01267  Uiso   1.00
C19    C     0.03920   0.18410   0.26100   0.01267  Uiso   1.00
C20    C     0.50960   0.21740   0.78190   0.01267  Uiso   1.00
C21    C     0.43250   0.30660   0.78170   0.01267  Uiso   1.00
C22    C     0.10990   0.56910   0.77410   0.01267  Uiso   1.00
C23    C     0.03880   0.76470   0.23740   0.01267  Uiso   1.00
C24    C     0.03920   0.31590   0.76100   0.01267  Uiso   1.00
C25    C     0.46720   0.55320   0.75290   0.01267  Uiso   1.00
C26    C     0.96080   0.81590   0.73900   0.01267  Uiso   1.00
C27    C     0.69350   0.28760   0.86910   0.01267  Uiso   1.00
C28    C     0.91640   0.84830   0.30770   0.01267  Uiso   1.00
C29    C     0.53640   0.63770   0.75760   0.01267  Uiso   1.00
C30    C     0.11930   0.43250   0.15210   0.01267  Uiso   1.00
C31    C     0.53280   0.05320   0.74710   0.01267  Uiso   1.00
C32    C     0.62770   0.20750   0.82590   0.01267  Uiso   1.00
C33    C     0.08360   0.34830   0.19230   0.01267  Uiso   1.00
C34    C     0.56750   0.69340   0.21830   0.01267  Uiso   1.00
C35    C     0.77560   0.68540   0.03540   0.01267  Uiso   1.00
C36    C     0.08360   0.15170   0.69230   0.01267  Uiso   1.00
C37    C     0.88070   0.93250   0.34790   0.01267  Uiso   1.00
C38    C     0.88070   0.56750   0.84790   0.01267  Uiso   1.00
C39    C     0.37230   0.79250   0.17410   0.01267  Uiso   1.00
C40    C     0.30960   0.88030   0.17090   0.01267  Uiso   1.00
C41    C     0.98280   0.34780   0.22700   0.01267  Uiso   1.00
C42    C     0.96080   0.68410   0.23900   0.01267  Uiso   1.00
C43    C     0.30650   0.71240   0.13090   0.01267  Uiso   1.00
C44    C     0.69350   0.21240   0.36910   0.01267  Uiso   1.00
C45    C     0.77560   0.81460   0.53540   0.01267  Uiso   1.00
C46    C     0.53280   0.44680   0.24710   0.01267  Uiso   1.00
C47    C     0.62770   0.29250   0.32590   0.01267  Uiso   1.00
C48    C     0.22440   0.18540   0.46460   0.01267  Uiso   1.00
C49    C     0.22440   0.31460   0.96460   0.01267  Uiso   1.00
C50    C     0.46360   0.13770   0.74240   0.01267  Uiso   1.00
C51    C     0.01720   0.84780   0.27300   0.01267  Uiso   1.00
C52    C     0.96120   0.26470   0.26260   0.01267  Uiso   1.00
C53    C     0.15140   0.23680   0.69000   0.01267  Uiso   1.00
C54    C     0.98280   0.15220   0.72700   0.01267  Uiso   1.00
C55    C     0.09680   0.14450   0.45960   0.01267  Uiso   1.00
C56    C     0.56750   0.80660   0.71830   0.01267  Uiso   1.00
C57    C     0.30650   0.78760   0.63090   0.01267  Uiso   1.00
C58    C     0.84860   0.73680   0.81000   0.01267  Uiso   1.00
C59    C     0.37230   0.70750   0.67410   0.01267  Uiso   1.00
C60    C     0.89010   0.43090   0.22590   0.01267  Uiso   1.00
C61    C     0.84860   0.76320   0.31000   0.01267  Uiso   1.00
C62    C     0.43250   0.19340   0.28170   0.01267  Uiso   1.00
C63    C     0.91640   0.65170   0.80770   0.01267  Uiso   1.00
C64    C     0.49040   0.71740   0.71810   0.01267  Uiso   1.00
N1     N     0.86780   0.68300   0.27620   0.01267  Uiso   1.00
N2     N     0.64510   0.45620   0.28920   0.01267  Uiso   1.00
N3     N     0.35490   0.54380   0.71080   0.01267  Uiso   1.00
N4     N     0.86780   0.81700   0.77620   0.01267  Uiso   1.00
N5     N     0.64510   0.04380   0.78920   0.01267  Uiso   1.00
N6     N     0.13220   0.31700   0.72380   0.01267  Uiso   1.00
N7     N     0.35490   0.95620   0.21080   0.01267  Uiso   1.00
N8     N     0.13220   0.18300   0.22380   0.01267  Uiso   1.00
O1     O     0.94220   0.49090   0.84900   0.01267  Uiso   1.00
O2     O     0.28550   0.86630   0.66110   0.01267  Uiso   1.00
O3     O     0.90080   0.47980   0.28080   0.01267  Uiso   1.00
O4     O     0.78790   0.57640   0.87700   0.01267  Uiso   1.00
O5     O     0.08010   0.43910   0.98210   0.01267  Uiso   1.00
O6     O     0.05780   0.99090   0.65100   0.01267  Uiso   1.00
O7     O     0.61310   0.84050   0.77920   0.01267  Uiso   1.00
O8     O     0.26490   0.77440   0.56840   0.01267  Uiso   1.00
O9     O     0.00070   0.69120   0.06980   0.01267  Uiso   1.00
O10    O     0.41570   0.16000   0.33630   0.01267  Uiso   1.00
O11    O     0.80770   0.44090   0.17460   0.01267  Uiso   1.00
O12    O     0.41570   0.34000   0.83630   0.01267  Uiso   1.00
O13    O     0.71450   0.13370   0.33890   0.01267  Uiso   1.00
O14    O     0.94220   0.00910   0.34900   0.01267  Uiso   1.00
O15    O     0.61310   0.65950   0.27920   0.01267  Uiso   1.00
O16    O     0.80770   0.05910   0.67460   0.01267  Uiso   1.00
O17    O     0.91990   0.56090   0.01790   0.01267  Uiso   1.00
O18    O     0.08010   0.06090   0.48210   0.01267  Uiso   1.00
O19    O     0.73510   0.22560   0.43160   0.01267  Uiso   1.00
O20    O     0.73510   0.27440   0.93160   0.01267  Uiso   1.00
O21    O     0.21210   0.07640   0.62300   0.01267  Uiso   1.00
O22    O     0.99930   0.30880   0.93020   0.01267  Uiso   1.00
O23    O     0.00070   0.80880   0.56980   0.01267  Uiso   1.00
O24    O     0.26490   0.72560   0.06840   0.01267  Uiso   1.00
O25    O     0.09920   0.97980   0.21920   0.01267  Uiso   1.00
O26    O     0.91990   0.93910   0.51790   0.01267  Uiso   1.00
O27    O     0.09920   0.52020   0.71920   0.01267  Uiso   1.00
O28    O     0.19230   0.55910   0.82540   0.01267  Uiso   1.00
O29    O     0.90080   0.02020   0.78080   0.01267  Uiso   1.00
O30    O     0.05780   0.50910   0.15100   0.01267  Uiso   1.00
O31    O     0.19230   0.94090   0.32540   0.01267  Uiso   1.00
O32    O     0.71450   0.36630   0.83890   0.01267  Uiso   1.00
O33    O     0.58430   0.84000   0.66370   0.01267  Uiso   1.00
O34    O     0.78790   0.92360   0.37700   0.01267  Uiso   1.00
O35    O     0.38690   0.15950   0.22080   0.01267  Uiso   1.00
O36    O     0.38690   0.34050   0.72080   0.01267  Uiso   1.00
O37    O     0.99930   0.19120   0.43020   0.01267  Uiso   1.00
O38    O     0.28550   0.63370   0.16110   0.01267  Uiso   1.00
O39    O     0.58430   0.66000   0.16370   0.01267  Uiso   1.00
O40    O     0.21210   0.42360   0.12300   0.01267  Uiso   1.00
