data_QOSJIT_clean
_audit_creation_date              2015-10-16
_audit_creation_method            'Materials Studio'
_symmetry_space_group_name_H-M    'P1'
_symmetry_Int_Tables_number       1
_symmetry_cell_setting            triclinic
loop_
_symmetry_equiv_pos_as_xyz
  x,y,z
_cell_length_a                    13.9450
_cell_length_b                    20.5850
_cell_length_c                    30.6330
_cell_angle_alpha                 90.0000
_cell_angle_beta                  90.0000
_cell_angle_gamma                 98.7900
loop_
_atom_site_label
_atom_site_type_symbol
_atom_site_fract_x
_atom_site_fract_y
_atom_site_fract_z
_atom_site_U_iso_or_equiv
_atom_site_adp_type
_atom_site_occupancy
Eu1    Eu    0.97610   0.62514   0.44875   0.01267  Uiso   1.00
Eu2    Eu    0.53894   0.89492   0.69023   0.01267  Uiso   1.00
Eu3    Eu    0.02390   0.37486   0.55125   0.01267  Uiso   1.00
Eu4    Eu    0.96106   0.60508   0.19023   0.01267  Uiso   1.00
Eu5    Eu    0.46106   0.10508   0.30977   0.01267  Uiso   1.00
Eu6    Eu    0.47610   0.12514   0.05125   0.01267  Uiso   1.00
Eu7    Eu    0.52390   0.87486   0.94875   0.01267  Uiso   1.00
Eu8    Eu    0.03894   0.39492   0.80977   0.01267  Uiso   1.00
Cu1    Cu    0.50428   0.24137   0.84256   0.01267  Uiso   1.00
Cu2    Cu    0.99572   0.25863   0.34256   0.01267  Uiso   1.00
Cu3    Cu    0.50815   0.78061   0.47785   0.01267  Uiso   1.00
Cu4    Cu    0.00428   0.74137   0.65744   0.01267  Uiso   1.00
Cu5    Cu    0.47311   0.61097   0.81540   0.01267  Uiso   1.00
Cu6    Cu    0.97311   0.11097   0.68460   0.01267  Uiso   1.00
Cu7    Cu    0.52689   0.38903   0.18460   0.01267  Uiso   1.00
Cu8    Cu    0.02689   0.88903   0.31540   0.01267  Uiso   1.00
Cu9    Cu    0.00815   0.28061   0.02215   0.01267  Uiso   1.00
Cu10   Cu    0.49185   0.21939   0.52215   0.01267  Uiso   1.00
Cu11   Cu    0.99185   0.71939   0.97785   0.01267  Uiso   1.00
Cu12   Cu    0.49572   0.75863   0.15744   0.01267  Uiso   1.00
H1     H     0.69400   0.70420   0.93360   0.01267  Uiso   1.00
H2     H     0.93070   0.20550   0.75320   0.01267  Uiso   1.00
H3     H     0.32010   0.91130   0.38000   0.01267  Uiso   1.00
H4     H     0.64240   0.54610   0.82670   0.01267  Uiso   1.00
H5     H     0.34160   0.30490   0.82000   0.01267  Uiso   1.00
H6     H     0.90690   0.63390   0.71820   0.01267  Uiso   1.00
H7     H     0.07460   0.29500   0.92700   0.01267  Uiso   1.00
H8     H     0.81350   0.22150   0.03980   0.01267  Uiso   1.00
H9     H     0.31350   0.72150   0.46020   0.01267  Uiso   1.00
H10    H     0.30370   0.72950   0.01890   0.01267  Uiso   1.00
H11    H     0.15840   0.19510   0.32000   0.01267  Uiso   1.00
H12    H     0.73860   0.89060   0.25580   0.01267  Uiso   1.00
H13    H     0.22150   0.95750   0.29350   0.01267  Uiso   1.00
H14    H     0.35760   0.45390   0.17330   0.01267  Uiso   1.00
H15    H     0.85760   0.95390   0.32670   0.01267  Uiso   1.00
H16    H     0.29970   0.23070   0.38460   0.01267  Uiso   1.00
H17    H     0.29820   0.72680   0.70640   0.01267  Uiso   1.00
H18    H     0.76140   0.60940   0.75580   0.01267  Uiso   1.00
H19    H     0.81740   0.78040   0.96880   0.01267  Uiso   1.00
H20    H     0.57460   0.79500   0.57300   0.01267  Uiso   1.00
H21    H     0.43070   0.70550   0.74680   0.01267  Uiso   1.00
H22    H     0.94700   0.81170   0.39340   0.01267  Uiso   1.00
H23    H     0.55300   0.68830   0.89340   0.01267  Uiso   1.00
H24    H     0.72150   0.45750   0.20650   0.01267  Uiso   1.00
H25    H     0.27850   0.54250   0.79350   0.01267  Uiso   1.00
H26    H     0.94100   0.25880   0.43910   0.01267  Uiso   1.00
H27    H     0.77850   0.04250   0.70650   0.01267  Uiso   1.00
H28    H     0.44100   0.75880   0.06090   0.01267  Uiso   1.00
H29    H     0.59310   0.86610   0.21820   0.01267  Uiso   1.00
H30    H     0.17990   0.58870   0.88000   0.01267  Uiso   1.00
H31    H     0.44700   0.31170   0.10660   0.01267  Uiso   1.00
H32    H     0.45770   0.88870   0.41620   0.01267  Uiso   1.00
H33    H     0.18650   0.77850   0.96020   0.01267  Uiso   1.00
H34    H     0.31740   0.28040   0.53120   0.01267  Uiso   1.00
H35    H     0.09310   0.36610   0.28180   0.01267  Uiso   1.00
H36    H     0.19630   0.77050   0.51890   0.01267  Uiso   1.00
H37    H     0.26140   0.10940   0.74420   0.01267  Uiso   1.00
H38    H     0.05900   0.74120   0.56090   0.01267  Uiso   1.00
H39    H     0.92540   0.70500   0.07300   0.01267  Uiso   1.00
H40    H     0.69630   0.27050   0.98110   0.01267  Uiso   1.00
H41    H     0.79400   0.20550   0.33230   0.01267  Uiso   1.00
H42    H     0.68650   0.27850   0.53980   0.01267  Uiso   1.00
H43    H     0.79970   0.73070   0.11540   0.01267  Uiso   1.00
H44    H     0.04230   0.61130   0.91620   0.01267  Uiso   1.00
H45    H     0.20180   0.77320   0.20640   0.01267  Uiso   1.00
H46    H     0.23860   0.39060   0.24420   0.01267  Uiso   1.00
H47    H     0.14240   0.04610   0.67330   0.01267  Uiso   1.00
H48    H     0.19400   0.20420   0.56640   0.01267  Uiso   1.00
H49    H     0.67990   0.08870   0.62000   0.01267  Uiso   1.00
H50    H     0.20030   0.26930   0.88460   0.01267  Uiso   1.00
H51    H     0.18260   0.21960   0.03120   0.01267  Uiso   1.00
H52    H     0.40690   0.13390   0.78180   0.01267  Uiso   1.00
H53    H     0.29400   0.70550   0.16770   0.01267  Uiso   1.00
H54    H     0.95770   0.38870   0.08380   0.01267  Uiso   1.00
H55    H     0.80370   0.22950   0.48110   0.01267  Uiso   1.00
H56    H     0.54230   0.11130   0.58380   0.01267  Uiso   1.00
H57    H     0.56930   0.29450   0.25320   0.01267  Uiso   1.00
H58    H     0.79820   0.22680   0.79360   0.01267  Uiso   1.00
H59    H     0.55900   0.24120   0.93910   0.01267  Uiso   1.00
H60    H     0.20600   0.79450   0.66770   0.01267  Uiso   1.00
H61    H     0.30600   0.29580   0.06640   0.01267  Uiso   1.00
H62    H     0.82010   0.41130   0.12000   0.01267  Uiso   1.00
H63    H     0.80600   0.79580   0.43360   0.01267  Uiso   1.00
H64    H     0.65840   0.69510   0.18000   0.01267  Uiso   1.00
H65    H     0.70030   0.76930   0.61540   0.01267  Uiso   1.00
H66    H     0.42540   0.20500   0.42700   0.01267  Uiso   1.00
H67    H     0.68260   0.71960   0.46880   0.01267  Uiso   1.00
H68    H     0.84160   0.80490   0.68000   0.01267  Uiso   1.00
H69    H     0.70180   0.27320   0.29360   0.01267  Uiso   1.00
H70    H     0.70600   0.29450   0.83230   0.01267  Uiso   1.00
H71    H     0.06930   0.79450   0.24680   0.01267  Uiso   1.00
H72    H     0.05300   0.18830   0.60660   0.01267  Uiso   1.00
C1     C     0.81440   0.26073   0.05620   0.01267  Uiso   1.00
C2     C     0.62230   0.18308   0.45961   0.01267  Uiso   1.00
C3     C     0.76670   0.74827   0.21479   0.01267  Uiso   1.00
C4     C     0.11670   0.18197   0.73505   0.01267  Uiso   1.00
C5     C     0.67610   0.73578   0.19465   0.01267  Uiso   1.00
C6     C     0.62650   0.15778   0.80512   0.01267  Uiso   1.00
C7     C     0.74200   0.58584   0.87092   0.01267  Uiso   1.00
C8     C     0.79290   0.18843   0.77595   0.01267  Uiso   1.00
C9     C     0.86250   0.66456   0.71759   0.01267  Uiso   1.00
C10    C     0.62360   0.77427   0.55976   0.01267  Uiso   1.00
C11    C     0.83490   0.69951   0.20854   0.01267  Uiso   1.00
C12    C     0.76640   0.71612   0.52237   0.01267  Uiso   1.00
C13    C     0.22850   0.27047   0.43355   0.01267  Uiso   1.00
C14    C     0.89930   0.35828   0.08198   0.01267  Uiso   1.00
C15    C     0.38240   0.82945   0.63966   0.01267  Uiso   1.00
C16    C     0.16510   0.30049   0.79146   0.01267  Uiso   1.00
C17    C     0.10070   0.64172   0.91802   0.01267  Uiso   1.00
C18    C     0.28920   0.79886   0.56902   0.01267  Uiso   1.00
C19    C     0.87350   0.34222   0.30512   0.01267  Uiso   1.00
C20    C     0.34570   0.42091   0.15142   0.01267  Uiso   1.00
C21    C     0.73160   0.32813   0.10163   0.01267  Uiso   1.00
C22    C     0.10990   0.54105   0.75702   0.01267  Uiso   1.00
C23    C     0.82390   0.76422   0.69465   0.01267  Uiso   1.00
C24    C     0.84570   0.92091   0.34858   0.01267  Uiso   1.00
C25    C     0.27560   0.14927   0.76022   0.01267  Uiso   1.00
C26    C     0.34340   0.18727   0.00190   0.01267  Uiso   1.00
C27    C     0.63750   0.83544   0.21759   0.01267  Uiso   1.00
C28    C     0.66510   0.80049   0.70854   0.01267  Uiso   1.00
C29    C     0.87150   0.17572   0.75160   0.01267  Uiso   1.00
C30    C     0.20050   0.77499   0.54969   0.01267  Uiso   1.00
C31    C     0.74140   0.86702   0.40333   0.01267  Uiso   1.00
C32    C     0.73330   0.75173   0.71479   0.01267  Uiso   1.00
C33    C     0.20790   0.69480   0.11463   0.01267  Uiso   1.00
C34    C     0.87640   0.72573   0.05976   0.01267  Uiso   1.00
C35    C     0.31660   0.04385   0.64278   0.01267  Uiso   1.00
C36    C     0.38140   0.74225   0.07487   0.01267  Uiso   1.00
C37    C     0.75860   0.63298   0.90333   0.01267  Uiso   1.00
C38    C     0.31440   0.76073   0.44380   0.01267  Uiso   1.00
C39    C     0.64360   0.33534   0.12957   0.01267  Uiso   1.00
C40    C     0.34920   0.14301   0.56923   0.01267  Uiso   1.00
C41    C     0.88140   0.24225   0.42513   0.01267  Uiso   1.00
C42    C     0.77000   0.22826   0.57657   0.01267  Uiso   1.00
C43    C     0.30160   0.24069   0.41489   0.01267  Uiso   1.00
C44    C     0.35970   0.77710   0.93096   0.01267  Uiso   1.00
C45    C     0.61670   0.68197   0.76495   0.01267  Uiso   1.00
C46    C     0.25800   0.41416   0.12908   0.01267  Uiso   1.00
C47    C     0.20670   0.64549   0.72540   0.01267  Uiso   1.00
C48    C     0.18530   0.17148   0.58851   0.01267  Uiso   1.00
C49    C     0.15100   0.29126   0.40393   0.01267  Uiso   1.00
C50    C     0.18270   0.62820   0.89633   0.01267  Uiso   1.00
C51    C     0.84900   0.70874   0.59607   0.01267  Uiso   1.00
C52    C     0.15430   0.07909   0.65142   0.01267  Uiso   1.00
C53    C     0.79060   0.80672   0.23826   0.01267  Uiso   1.00
C54    C     0.61760   0.17055   0.36034   0.01267  Uiso   1.00
C55    C     0.23360   0.28388   0.47763   0.01267  Uiso   1.00
C56    C     0.88240   0.32945   0.86034   0.01267  Uiso   1.00
C57    C     0.20520   0.78820   0.63701   0.01267  Uiso   1.00
C58    C     0.70710   0.31157   0.27595   0.01267  Uiso   1.00
C59    C     0.20170   0.58988   0.75187   0.01267  Uiso   1.00
C60    C     0.60070   0.14172   0.58198   0.01267  Uiso   1.00
C61    C     0.79330   0.35451   0.27460   0.01267  Uiso   1.00
C62    C     0.69840   0.75931   0.58511   0.01267  Uiso   1.00
C63    C     0.29060   0.30672   0.26174   0.01267  Uiso   1.00
C64    C     0.81260   0.76906   0.99891   0.01267  Uiso   1.00
C65    C     0.87770   0.31692   0.95961   0.01267  Uiso   1.00
C66    C     0.11860   0.75775   0.57487   0.01267  Uiso   1.00
C67    C     0.27000   0.72826   0.92343   0.01267  Uiso   1.00
C68    C     0.76840   0.17187   0.60163   0.01267  Uiso   1.00
C69    C     0.12360   0.27427   0.94024   0.01267  Uiso   1.00
C70    C     0.60990   0.04105   0.74298   0.01267  Uiso   1.00
C71    C     0.60160   0.66177   0.88753   0.01267  Uiso   1.00
C72    C     0.78920   0.29886   0.93098   0.01267  Uiso   1.00
C73    C     0.39840   0.33823   0.11247   0.01267  Uiso   1.00
C74    C     0.36250   0.16456   0.78241   0.01267  Uiso   1.00
C75    C     0.24200   0.08584   0.62908   0.01267  Uiso   1.00
C76    C     0.61860   0.25775   0.92513   0.01267  Uiso   1.00
C77    C     0.81470   0.82852   0.41149   0.01267  Uiso   1.00
C78    C     0.29830   0.91012   0.25187   0.01267  Uiso   1.00
C79    C     0.21760   0.91963   0.27548   0.01267  Uiso   1.00
C80    C     0.18740   0.23094   0.00109   0.01267  Uiso   1.00
C81    C     0.29210   0.80520   0.61463   0.01267  Uiso   1.00
C82    C     0.84340   0.68727   0.49810   0.01267  Uiso   1.00
C83    C     0.62850   0.32428   0.25160   0.01267  Uiso   1.00
C84    C     0.11760   0.67055   0.13966   0.01267  Uiso   1.00
C85    C     0.68530   0.67148   0.91149   0.01267  Uiso   1.00
C86    C     0.29330   0.85451   0.22540   0.01267  Uiso   1.00
C87    C     0.65100   0.79126   0.09607   0.01267  Uiso   1.00
C88    C     0.22440   0.35073   0.26022   0.01267  Uiso   1.00
C89    C     0.71760   0.41963   0.22452   0.01267  Uiso   1.00
C90    C     0.20940   0.19328   0.76174   0.01267  Uiso   1.00
C91    C     0.75800   0.91416   0.37092   0.01267  Uiso   1.00
C92    C     0.37150   0.67572   0.74840   0.01267  Uiso   1.00
C93    C     0.73000   0.27174   0.07657   0.01267  Uiso   1.00
C94    C     0.78240   0.08037   0.72452   0.01267  Uiso   1.00
C95    C     0.31470   0.32852   0.08851   0.01267  Uiso   1.00
C96    C     0.10160   0.16177   0.61247   0.01267  Uiso   1.00
C97    C     0.77150   0.72953   0.56645   0.01267  Uiso   1.00
C98    C     0.27150   0.22953   0.93355   0.01267  Uiso   1.00
C99    C     0.70170   0.08988   0.74813   0.01267  Uiso   1.00
C100   C     0.39010   0.95895   0.25702   0.01267  Uiso   1.00
C101   C     0.65080   0.85699   0.43077   0.01267  Uiso   1.00
C102   C     0.20710   0.81157   0.22405   0.01267  Uiso   1.00
C103   C     0.34900   0.20874   0.90393   0.01267  Uiso   1.00
C104   C     0.29290   0.68843   0.72405   0.01267  Uiso   1.00
C105   C     0.18340   0.45615   0.14278   0.01267  Uiso   1.00
C106   C     0.79830   0.41012   0.24813   0.01267  Uiso   1.00
C107   C     0.80160   0.74069   0.08511   0.01267  Uiso   1.00
C108   C     0.37770   0.81692   0.54039   0.01267  Uiso   1.00
C109   C     0.84920   0.64301   0.93077   0.01267  Uiso   1.00
C110   C     0.23000   0.77174   0.42343   0.01267  Uiso   1.00
C111   C     0.79480   0.21180   0.36299   0.01267  Uiso   1.00
C112   C     0.70790   0.19480   0.38537   0.01267  Uiso   1.00
C113   C     0.89840   0.83823   0.38753   0.01267  Uiso   1.00
C114   C     0.15660   0.31273   0.50190   0.01267  Uiso   1.00
C115   C     0.72850   0.77047   0.06645   0.01267  Uiso   1.00
C116   C     0.15080   0.35699   0.06923   0.01267  Uiso   1.00
C117   C     0.29480   0.71180   0.13701   0.01267  Uiso   1.00
C118   C     0.85640   0.16466   0.62957   0.01267  Uiso   1.00
C119   C     0.68340   0.95615   0.35722   0.01267  Uiso   1.00
C120   C     0.88330   0.81803   0.26495   0.01267  Uiso   1.00
C121   C     0.77560   0.64927   0.73978   0.01267  Uiso   1.00
C122   C     0.70050   0.27499   0.95031   0.01267  Uiso   1.00
C123   C     0.14030   0.72290   0.43096   0.01267  Uiso   1.00
C124   C     0.23330   0.25173   0.78521   0.01267  Uiso   1.00
C125   C     0.72440   0.85073   0.23978   0.01267  Uiso   1.00
C126   C     0.18560   0.73927   0.94380   0.01267  Uiso   1.00
C127   C     0.65430   0.57909   0.84858   0.01267  Uiso   1.00
C128   C     0.37350   0.84222   0.19488   0.01267  Uiso   1.00
C129   C     0.68740   0.73094   0.49891   0.01267  Uiso   1.00
C130   C     0.12650   0.65778   0.69488   0.01267  Uiso   1.00
C131   C     0.79950   0.22501   0.45031   0.01267  Uiso   1.00
C132   C     0.26640   0.21612   0.97763   0.01267  Uiso   1.00
C133   C     0.70940   0.69328   0.73826   0.01267  Uiso   1.00
C134   C     0.64030   0.22290   0.06904   0.01267  Uiso   1.00
C135   C     0.31260   0.26906   0.50109   0.01267  Uiso   1.00
C136   C     0.24140   0.36702   0.09667   0.01267  Uiso   1.00
C137   C     0.29950   0.72501   0.04969   0.01267  Uiso   1.00
C138   C     0.73360   0.78388   0.02237   0.01267  Uiso   1.00
C139   C     0.79210   0.30520   0.88537   0.01267  Uiso   1.00
C140   C     0.71080   0.20114   0.43098   0.01267  Uiso   1.00
C141   C     0.23160   0.82813   0.39837   0.01267  Uiso   1.00
C142   C     0.17610   0.23578   0.30535   0.01267  Uiso   1.00
C143   C     0.81730   0.37180   0.10367   0.01267  Uiso   1.00
C144   C     0.39930   0.85828   0.41802   0.01267  Uiso   1.00
C145   C     0.35640   0.66466   0.87043   0.01267  Uiso   1.00
C146   C     0.12850   0.82428   0.24840   0.01267  Uiso   1.00
C147   C     0.25860   0.13298   0.59667   0.01267  Uiso   1.00
C148   C     0.70520   0.28820   0.86299   0.01267  Uiso   1.00
C149   C     0.70670   0.14549   0.77460   0.01267  Uiso   1.00
C150   C     0.65660   0.81273   0.99810   0.01267  Uiso   1.00
C151   C     0.33490   0.19951   0.29146   0.01267  Uiso   1.00
C152   C     0.26670   0.24827   0.28521   0.01267  Uiso   1.00
C153   C     0.37640   0.22573   0.44024   0.01267  Uiso   1.00
C154   C     0.21080   0.70114   0.06902   0.01267  Uiso   1.00
C155   C     0.68560   0.23927   0.55620   0.01267  Uiso   1.00
C156   C     0.81660   0.54385   0.85722   0.01267  Uiso   1.00
C157   C     0.13750   0.33544   0.28241   0.01267  Uiso   1.00
C158   C     0.28240   0.58037   0.77548   0.01267  Uiso   1.00
C159   C     0.68270   0.12820   0.60367   0.01267  Uiso   1.00
C160   C     0.14360   0.83534   0.37043   0.01267  Uiso   1.00
C161   C     0.19840   0.25931   0.91489   0.01267  Uiso   1.00
C162   C     0.31730   0.87180   0.39633   0.01267  Uiso   1.00
C163   C     0.38330   0.31803   0.23505   0.01267  Uiso   1.00
C164   C     0.12230   0.68308   0.04039   0.01267  Uiso   1.00
C165   C     0.89010   0.45895   0.24298   0.01267  Uiso   1.00
C166   C     0.26840   0.67187   0.89837   0.01267  Uiso   1.00
C167   C     0.85970   0.27710   0.56904   0.01267  Uiso   1.00
C168   C     0.32390   0.26422   0.80535   0.01267  Uiso   1.00
N1     N     0.58584   0.61657   0.85628   0.01267  Uiso   1.00
N2     N     0.87947   0.23641   0.38150   0.01267  Uiso   1.00
N3     N     0.36663   0.62223   0.77433   0.01267  Uiso   1.00
N4     N     0.61719   0.76055   0.51675   0.01267  Uiso   1.00
N5     N     0.12053   0.76359   0.61850   0.01267  Uiso   1.00
N6     N     0.38281   0.23945   0.48325   0.01267  Uiso   1.00
N7     N     0.08584   0.11657   0.64372   0.01267  Uiso   1.00
N8     N     0.91416   0.88343   0.35628   0.01267  Uiso   1.00
N9     N     0.89757   0.30309   0.05854   0.01267  Uiso   1.00
N10    N     0.41416   0.38343   0.14372   0.01267  Uiso   1.00
N11    N     0.88281   0.73945   0.01675   0.01267  Uiso   1.00
N12    N     0.10243   0.69691   0.94146   0.01267  Uiso   1.00
N13    N     0.60243   0.19691   0.55854   0.01267  Uiso   1.00
N14    N     0.11719   0.26055   0.98325   0.01267  Uiso   1.00
N15    N     0.11282   0.27895   0.30490   0.01267  Uiso   1.00
N16    N     0.39757   0.80309   0.44146   0.01267  Uiso   1.00
N17    N     0.38718   0.22105   0.80490   0.01267  Uiso   1.00
N18    N     0.63337   0.37777   0.22567   0.01267  Uiso   1.00
N19    N     0.13337   0.87777   0.27433   0.01267  Uiso   1.00
N20    N     0.37947   0.73641   0.11850   0.01267  Uiso   1.00
N21    N     0.86663   0.12223   0.72567   0.01267  Uiso   1.00
N22    N     0.88718   0.72105   0.69510   0.01267  Uiso   1.00
N23    N     0.62053   0.26359   0.88150   0.01267  Uiso   1.00
N24    N     0.61282   0.77895   0.19510   0.01267  Uiso   1.00
O1     O     0.40071   0.87388   0.52806   0.01267  Uiso   1.00
O2     O     0.62456   0.39274   0.13610   0.01267  Uiso   1.00
O3     O     0.41648   0.25396   0.89204   0.01267  Uiso   1.00
O4     O     0.53110   0.06047   0.75030   0.01267  Uiso   1.00
O5     O     0.83858   0.65080   0.60907   0.01267  Uiso   1.00
O6     O     0.64185   0.16359   0.07952   0.01267  Uiso   1.00
O7     O     0.37651   0.83262   0.68091   0.01267  Uiso   1.00
O8     O     0.59134   0.72969   0.78405   0.01267  Uiso   1.00
O9     O     0.58352   0.74604   0.10796   0.01267  Uiso   1.00
O10    O     0.21370   0.51476   0.15328   0.01267  Uiso   1.00
O11    O     0.46890   0.93953   0.24970   0.01267  Uiso   1.00
O12    O     0.88860   0.37902   0.33748   0.01267  Uiso   1.00
O13    O     0.42754   0.37697   0.23335   0.01267  Uiso   1.00
O14    O     0.43195   0.75911   0.94912   0.01267  Uiso   1.00
O15    O     0.16142   0.34920   0.39093   0.01267  Uiso   1.00
O16    O     0.58069   0.82164   0.01696   0.01267  Uiso   1.00
O17    O     0.53825   0.15444   0.37989   0.01267  Uiso   1.00
O18    O     0.58135   0.23194   0.47167   0.01267  Uiso   1.00
O19    O     0.57246   0.62303   0.76665   0.01267  Uiso   1.00
O20    O     0.41684   0.21897   0.30860   0.01267  Uiso   1.00
O21    O     0.58316   0.78103   0.69140   0.01267  Uiso   1.00
O22    O     0.03825   0.65444   0.12011   0.01267  Uiso   1.00
O23    O     0.19236   0.35961   0.78166   0.01267  Uiso   1.00
O24    O     0.58405   0.20674   0.79697   0.01267  Uiso   1.00
O25    O     0.11140   0.62098   0.66252   0.01267  Uiso   1.00
O26    O     0.08069   0.32164   0.48304   0.01267  Uiso   1.00
O27    O     0.93195   0.25911   0.55088   0.01267  Uiso   1.00
O28    O     0.17151   0.32649   0.54210   0.01267  Uiso   1.00
O29    O     0.67151   0.82649   0.95790   0.01267  Uiso   1.00
O30    O     0.92754   0.87697   0.26665   0.01267  Uiso   1.00
O31    O     0.08405   0.70674   0.70303   0.01267  Uiso   1.00
O32    O     0.41595   0.79326   0.20303   0.01267  Uiso   1.00
O33    O     0.06805   0.74089   0.44912   0.01267  Uiso   1.00
O34    O     0.12456   0.89274   0.36390   0.01267  Uiso   1.00
O35    O     0.80764   0.64039   0.21834   0.01267  Uiso   1.00
O36    O     0.63196   0.90188   0.45452   0.01267  Uiso   1.00
O37    O     0.38860   0.87902   0.16252   0.01267  Uiso   1.00
O38    O     0.62349   0.16738   0.31909   0.01267  Uiso   1.00
O39    O     0.28630   0.98524   0.65328   0.01267  Uiso   1.00
O40    O     0.07246   0.12303   0.73335   0.01267  Uiso   1.00
O41    O     0.41865   0.76806   0.52833   0.01267  Uiso   1.00
O42    O     0.59964   0.28410   0.14607   0.01267  Uiso   1.00
O43    O     0.08352   0.24604   0.39204   0.01267  Uiso   1.00
O44    O     0.87651   0.33262   0.81909   0.01267  Uiso   1.00
O45    O     0.10157   0.29958   0.07107   0.01267  Uiso   1.00
O46    O     0.78630   0.48524   0.84672   0.01267  Uiso   1.00
O47    O     0.59711   0.92877   0.35641   0.01267  Uiso   1.00
O48    O     0.09134   0.22969   0.71595   0.01267  Uiso   1.00
O49    O     0.37544   0.60726   0.86390   0.01267  Uiso   1.00
O50    O     0.35815   0.83641   0.92048   0.01267  Uiso   1.00
O51    O     0.12349   0.66738   0.18091   0.01267  Uiso   1.00
O52    O     0.12044   0.48451   0.76939   0.01267  Uiso   1.00
O53    O     0.91648   0.75396   0.60796   0.01267  Uiso   1.00
O54    O     0.56805   0.24089   0.05088   0.01267  Uiso   1.00
O55    O     0.89843   0.70042   0.92893   0.01267  Uiso   1.00
O56    O     0.90036   0.21590   0.64607   0.01267  Uiso   1.00
O57    O     0.30764   0.14039   0.28166   0.01267  Uiso   1.00
O58    O     0.91865   0.26806   0.97167   0.01267  Uiso   1.00
O59    O     0.41931   0.17836   0.98304   0.01267  Uiso   1.00
O60    O     0.96175   0.34556   0.87989   0.01267  Uiso   1.00
O61    O     0.90289   0.57123   0.85641   0.01267  Uiso   1.00
O62    O     0.90866   0.77031   0.28405   0.01267  Uiso   1.00
O63    O     0.36804   0.09812   0.54548   0.01267  Uiso   1.00
O64    O     0.08316   0.28103   0.80860   0.01267  Uiso   1.00
O65    O     0.59929   0.12612   0.47194   0.01267  Uiso   1.00
O66    O     0.33858   0.15080   0.89093   0.01267  Uiso   1.00
O67    O     0.66142   0.84920   0.10907   0.01267  Uiso   1.00
O68    O     0.37956   0.01549   0.26939   0.01267  Uiso   1.00
O69    O     0.14185   0.66359   0.42048   0.01267  Uiso   1.00
O70    O     0.09929   0.62612   0.02806   0.01267  Uiso   1.00
O71    O     0.40289   0.07123   0.64359   0.01267  Uiso   1.00
O72    O     0.32849   0.17351   0.04210   0.01267  Uiso   1.00
O73    O     0.09711   0.42877   0.14359   0.01267  Uiso   1.00
O74    O     0.91684   0.71897   0.19140   0.01267  Uiso   1.00
O75    O     0.08135   0.73194   0.02833   0.01267  Uiso   1.00
O76    O     0.87956   0.51549   0.23061   0.01267  Uiso   1.00
O77    O     0.39843   0.20042   0.57107   0.01267  Uiso   1.00
O78    O     0.13196   0.40188   0.04548   0.01267  Uiso   1.00
O79    O     0.46175   0.84556   0.62011   0.01267  Uiso   1.00
O80    O     0.85815   0.33641   0.57952   0.01267  Uiso   1.00
O81    O     0.40866   0.27031   0.21595   0.01267  Uiso   1.00
O82    O     0.91931   0.67836   0.51696   0.01267  Uiso   1.00
O83    O     0.03110   0.56047   0.74970   0.01267  Uiso   1.00
O84    O     0.71370   0.01476   0.34672   0.01267  Uiso   1.00
O85    O     0.62044   0.98451   0.73061   0.01267  Uiso   1.00
O86    O     0.60157   0.79958   0.42893   0.01267  Uiso   1.00
O87    O     0.86804   0.59812   0.95452   0.01267  Uiso   1.00
O88    O     0.91595   0.29326   0.29697   0.01267  Uiso   1.00
O89    O     0.40036   0.71590   0.85393   0.01267  Uiso   1.00
O90    O     0.69236   0.85961   0.71834   0.01267  Uiso   1.00
O91    O     0.87544   0.10726   0.63610   0.01267  Uiso   1.00
O92    O     0.61140   0.12098   0.83748   0.01267  Uiso   1.00
O93    O     0.82849   0.67351   0.45790   0.01267  Uiso   1.00
O94    O     0.09964   0.78410   0.35393   0.01267  Uiso   1.00
O95    O     0.96890   0.43953   0.25030   0.01267  Uiso   1.00
O96    O     0.90071   0.37388   0.97194   0.01267  Uiso   1.00
