data_QOSKAM_clean
_audit_creation_date              2015-10-16
_audit_creation_method            'Materials Studio'
_symmetry_space_group_name_H-M    'P1'
_symmetry_Int_Tables_number       1
_symmetry_cell_setting            triclinic
loop_
_symmetry_equiv_pos_as_xyz
  x,y,z
_cell_length_a                    13.9340
_cell_length_b                    20.4940
_cell_length_c                    30.7220
_cell_angle_alpha                 90.0000
_cell_angle_beta                  90.0000
_cell_angle_gamma                 98.7100
loop_
_atom_site_label
_atom_site_type_symbol
_atom_site_fract_x
_atom_site_fract_y
_atom_site_fract_z
_atom_site_U_iso_or_equiv
_atom_site_adp_type
_atom_site_occupancy
Tb1    Tb    0.46102   0.60445   0.81033   0.01267  Uiso   1.00
Tb2    Tb    0.53898   0.39555   0.18967   0.01267  Uiso   1.00
Tb3    Tb    0.96102   0.10445   0.68967   0.01267  Uiso   1.00
Tb4    Tb    0.02372   0.87476   0.05070   0.01267  Uiso   1.00
Tb5    Tb    0.47628   0.62524   0.55070   0.01267  Uiso   1.00
Tb6    Tb    0.03898   0.89555   0.31033   0.01267  Uiso   1.00
Tb7    Tb    0.52372   0.37476   0.44930   0.01267  Uiso   1.00
Tb8    Tb    0.97628   0.12524   0.94930   0.01267  Uiso   1.00
Cu1    Cu    0.49162   0.72003   0.02191   0.01267  Uiso   1.00
Cu2    Cu    0.99162   0.22003   0.47809   0.01267  Uiso   1.00
Cu3    Cu    0.00473   0.24205   0.15768   0.01267  Uiso   1.00
Cu4    Cu    0.50473   0.74205   0.34232   0.01267  Uiso   1.00
Cu5    Cu    0.97341   0.61174   0.18444   0.01267  Uiso   1.00
Cu6    Cu    0.52659   0.88826   0.68444   0.01267  Uiso   1.00
Cu7    Cu    0.99527   0.75795   0.84232   0.01267  Uiso   1.00
Cu8    Cu    0.00838   0.77997   0.52191   0.01267  Uiso   1.00
Cu9    Cu    0.50838   0.27997   0.97809   0.01267  Uiso   1.00
Cu10   Cu    0.47341   0.11174   0.31556   0.01267  Uiso   1.00
Cu11   Cu    0.02659   0.38826   0.81556   0.01267  Uiso   1.00
Cu12   Cu    0.49527   0.25795   0.65768   0.01267  Uiso   1.00
H1     H     0.70740   0.79500   0.33150   0.01267  Uiso   1.00
H2     H     0.40830   0.63510   0.28150   0.01267  Uiso   1.00
H3     H     0.18430   0.71990   0.53090   0.01267  Uiso   1.00
H4     H     0.20100   0.77000   0.38480   0.01267  Uiso   1.00
H5     H     0.80430   0.29450   0.93330   0.01267  Uiso   1.00
H6     H     0.22060   0.45750   0.79420   0.01267  Uiso   1.00
H7     H     0.35610   0.95230   0.67410   0.01267  Uiso   1.00
H8     H     0.31390   0.22060   0.96090   0.01267  Uiso   1.00
H9     H     0.59170   0.36490   0.71850   0.01267  Uiso   1.00
H10    H     0.19570   0.70550   0.06670   0.01267  Uiso   1.00
H11    H     0.14390   0.54770   0.17410   0.01267  Uiso   1.00
H12    H     0.32080   0.41090   0.87940   0.01267  Uiso   1.00
H13    H     0.81390   0.72060   0.53910   0.01267  Uiso   1.00
H14    H     0.07470   0.79470   0.42730   0.01267  Uiso   1.00
H15    H     0.01200   0.03600   0.90900   0.01267  Uiso   1.00
H16    H     0.84010   0.30560   0.17900   0.01267  Uiso   1.00
H17    H     0.29900   0.73000   0.88480   0.01267  Uiso   1.00
H18    H     0.31570   0.78010   0.03090   0.01267  Uiso   1.00
H19    H     0.19780   0.27000   0.01910   0.01267  Uiso   1.00
H20    H     0.92990   0.70560   0.25270   0.01267  Uiso   1.00
H21    H     0.98800   0.96400   0.09100   0.01267  Uiso   1.00
H22    H     0.72060   0.95750   0.70580   0.01267  Uiso   1.00
H23    H     0.79900   0.23000   0.61520   0.01267  Uiso   1.00
H24    H     0.76180   0.11020   0.25570   0.01267  Uiso   1.00
H25    H     0.88600   0.95300   0.08100   0.01267  Uiso   1.00
H26    H     0.45770   0.38790   0.91600   0.01267  Uiso   1.00
H27    H     0.70100   0.27000   0.11520   0.01267  Uiso   1.00
H28    H     0.30430   0.79450   0.56670   0.01267  Uiso   1.00
H29    H     0.61400   0.54700   0.58100   0.01267  Uiso   1.00
H30    H     0.69780   0.77000   0.48090   0.01267  Uiso   1.00
H31    H     0.26180   0.61020   0.24430   0.01267  Uiso   1.00
H32    H     0.57010   0.79440   0.75270   0.01267  Uiso   1.00
H33    H     0.70070   0.77260   0.79400   0.01267  Uiso   1.00
H34    H     0.27940   0.04250   0.29420   0.01267  Uiso   1.00
H35    H     0.11400   0.04700   0.91900   0.01267  Uiso   1.00
H36    H     0.07010   0.29440   0.74730   0.01267  Uiso   1.00
H37    H     0.06010   0.24040   0.06130   0.01267  Uiso   1.00
H38    H     0.04230   0.11210   0.41600   0.01267  Uiso   1.00
H39    H     0.44750   0.81120   0.60630   0.01267  Uiso   1.00
H40    H     0.34010   0.80560   0.32100   0.01267  Uiso   1.00
H41    H     0.82080   0.91090   0.62060   0.01267  Uiso   1.00
H42    H     0.81570   0.28010   0.46910   0.01267  Uiso   1.00
H43    H     0.90830   0.13510   0.21850   0.01267  Uiso   1.00
H44    H     0.51200   0.53600   0.59100   0.01267  Uiso   1.00
H45    H     0.00600   0.20200   0.86900   0.01267  Uiso   1.00
H46    H     0.57470   0.29470   0.07270   0.01267  Uiso   1.00
H47    H     0.30220   0.23000   0.51910   0.01267  Uiso   1.00
H48    H     0.77940   0.54250   0.20580   0.01267  Uiso   1.00
H49    H     0.79260   0.70500   0.83150   0.01267  Uiso   1.00
H50    H     0.20740   0.29500   0.16850   0.01267  Uiso   1.00
H51    H     0.56010   0.74040   0.43870   0.01267  Uiso   1.00
H52    H     0.94750   0.31120   0.89370   0.01267  Uiso   1.00
H53    H     0.48800   0.46400   0.40900   0.01267  Uiso   1.00
H54    H     0.65990   0.19440   0.67900   0.01267  Uiso   1.00
H55    H     0.49400   0.29800   0.36900   0.01267  Uiso   1.00
H56    H     0.67920   0.58910   0.12060   0.01267  Uiso   1.00
H57    H     0.64390   0.04770   0.32590   0.01267  Uiso   1.00
H58    H     0.68430   0.21990   0.96910   0.01267  Uiso   1.00
H59    H     0.20070   0.27260   0.70600   0.01267  Uiso   1.00
H60    H     0.50600   0.70200   0.63100   0.01267  Uiso   1.00
H61    H     0.73820   0.38980   0.75570   0.01267  Uiso   1.00
H62    H     0.69570   0.20550   0.43330   0.01267  Uiso   1.00
H63    H     0.42530   0.70530   0.92730   0.01267  Uiso   1.00
H64    H     0.95770   0.88790   0.58400   0.01267  Uiso   1.00
H65    H     0.80220   0.73000   0.98090   0.01267  Uiso   1.00
H66    H     0.68610   0.77940   0.03910   0.01267  Uiso   1.00
H67    H     0.55250   0.18880   0.39370   0.01267  Uiso   1.00
H68    H     0.09170   0.86490   0.78150   0.01267  Uiso   1.00
H69    H     0.15990   0.69440   0.82100   0.01267  Uiso   1.00
H70    H     0.29930   0.22740   0.20600   0.01267  Uiso   1.00
H71    H     0.92530   0.20530   0.57270   0.01267  Uiso   1.00
H72    H     0.79930   0.72740   0.29400   0.01267  Uiso   1.00
H73    H     0.99400   0.79800   0.13100   0.01267  Uiso   1.00
H74    H     0.18610   0.27940   0.46090   0.01267  Uiso   1.00
H75    H     0.23820   0.88980   0.74430   0.01267  Uiso   1.00
H76    H     0.42990   0.20560   0.24730   0.01267  Uiso   1.00
H77    H     0.43990   0.25960   0.56130   0.01267  Uiso   1.00
H78    H     0.29260   0.20500   0.66850   0.01267  Uiso   1.00
H79    H     0.17920   0.08910   0.37940   0.01267  Uiso   1.00
H80    H     0.05250   0.68880   0.10630   0.01267  Uiso   1.00
H81    H     0.38600   0.45300   0.41900   0.01267  Uiso   1.00
H82    H     0.85610   0.45230   0.82590   0.01267  Uiso   1.00
H83    H     0.54230   0.61210   0.08400   0.01267  Uiso   1.00
H84    H     0.93990   0.75960   0.93870   0.01267  Uiso   1.00
C1     C     0.20620   0.14560   0.22570   0.01267  Uiso   1.00
C2     C     0.13660   0.83440   0.78240   0.01267  Uiso   1.00
C3     C     0.74190   0.08680   0.37070   0.01267  Uiso   1.00
C4     C     0.85020   0.20890   0.09610   0.01267  Uiso   1.00
C5     C     0.84940   0.14400   0.43080   0.01267  Uiso   1.00
C6     C     0.19930   0.75940   0.41500   0.01267  Uiso   1.00
C7     C     0.20930   0.69440   0.26180   0.01267  Uiso   1.00
C8     C     0.88390   0.82960   0.36010   0.01267  Uiso   1.00
C9     C     0.68850   0.23090   0.99920   0.01267  Uiso   1.00
C10    C     0.60980   0.54140   0.24170   0.01267  Uiso   1.00
C11    C     0.88050   0.74270   0.92480   0.01267  Uiso   1.00
C12    C     0.65060   0.35600   0.93080   0.01267  Uiso   1.00
C13    C     0.76750   0.21590   0.02260   0.01267  Uiso   1.00
C14    C     0.60090   0.64240   0.08210   0.01267  Uiso   1.00
C15    C     0.14980   0.79110   0.90390   0.01267  Uiso   1.00
C16    C     0.76710   0.24770   0.71420   0.01267  Uiso   1.00
C17    C     0.72740   0.27050   0.56690   0.01267  Uiso   1.00
C18    C     0.79070   0.30560   0.73820   0.01267  Uiso   1.00
C19    C     0.11610   0.17040   0.63990   0.01267  Uiso   1.00
C20    C     0.13960   0.22180   0.93150   0.01267  Uiso   1.00
C21    C     0.29380   0.35440   0.72570   0.01267  Uiso   1.00
C22    C     0.84500   0.41990   0.84810   0.01267  Uiso   1.00
C23    C     0.31460   0.26000   0.94450   0.01267  Uiso   1.00
C24    C     0.75910   0.13460   0.40310   0.01267  Uiso   1.00
C25    C     0.10150   0.66250   0.11250   0.01267  Uiso   1.00
C26    C     0.29070   0.80560   0.76180   0.01267  Uiso   1.00
C27    C     0.26710   0.74770   0.78580   0.01267  Uiso   1.00
C28    C     0.68250   0.62840   0.10400   0.01267  Uiso   1.00
C29    C     0.89020   0.95860   0.74170   0.01267  Uiso   1.00
C30    C     0.88300   0.31710   0.76470   0.01267  Uiso   1.00
C31    C     0.27260   0.72950   0.43310   0.01267  Uiso   1.00
C32    C     0.68540   0.74000   0.05550   0.01267  Uiso   1.00
C33    C     0.87790   0.81590   0.45950   0.01267  Uiso   1.00
C34    C     0.77060   0.72880   0.07580   0.01267  Uiso   1.00
C35    C     0.12210   0.18410   0.54050   0.01267  Uiso   1.00
C36    C     0.62400   0.27400   0.05960   0.01267  Uiso   1.00
C37    C     0.15490   0.81260   0.00170   0.01267  Uiso   1.00
C38    C     0.61700   0.18290   0.26470   0.01267  Uiso   1.00
C39    C     0.17700   0.73490   0.80590   0.01267  Uiso   1.00
C40    C     0.23250   0.78410   0.97740   0.01267  Uiso   1.00
C41    C     0.31150   0.76910   0.00080   0.01267  Uiso   1.00
C42    C     0.77590   0.15020   0.23970   0.01267  Uiso   1.00
C43    C     0.29380   0.21140   0.63790   0.01267  Uiso   1.00
C44    C     0.76940   0.67220   0.10160   0.01267  Uiso   1.00
C45    C     0.34940   0.64400   0.06920   0.01267  Uiso   1.00
C46    C     0.18540   0.24000   0.44450   0.01267  Uiso   1.00
C47    C     0.24190   0.58680   0.12930   0.01267  Uiso   1.00
C48    C     0.27590   0.65020   0.26030   0.01267  Uiso   1.00
C49    C     0.15060   0.85600   0.56920   0.01267  Uiso   1.00
C50    C     0.18340   0.95570   0.64290   0.01267  Uiso   1.00
C51    C     0.62920   0.82420   0.75130   0.01267  Uiso   1.00
C52    C     0.38390   0.32960   0.13990   0.01267  Uiso   1.00
C53    C     0.62210   0.68410   0.95950   0.01267  Uiso   1.00
C54    C     0.37080   0.17580   0.24870   0.01267  Uiso   1.00
C55    C     0.18850   0.73090   0.50080   0.01267  Uiso   1.00
C56    C     0.26750   0.71590   0.47740   0.01267  Uiso   1.00
C57    C     0.15500   0.58010   0.15190   0.01267  Uiso   1.00
C58    C     0.79040   0.79850   0.43080   0.01267  Uiso   1.00
C59    C     0.74090   0.36540   0.90310   0.01267  Uiso   1.00
C60    C     0.20670   0.31080   0.72390   0.01267  Uiso   1.00
C61    C     0.32300   0.76510   0.30590   0.01267  Uiso   1.00
C62    C     0.11950   0.25730   0.07520   0.01267  Uiso   1.00
C63    C     0.29330   0.18920   0.22390   0.01267  Uiso   1.00
C64    C     0.81750   0.87160   0.60400   0.01267  Uiso   1.00
C65    C     0.70670   0.69430   0.88550   0.01267  Uiso   1.00
C66    C     0.20670   0.19430   0.61450   0.01267  Uiso   1.00
C67    C     0.20620   0.28860   0.13790   0.01267  Uiso   1.00
C68    C     0.81460   0.76000   0.55550   0.01267  Uiso   1.00
C69    C     0.85610   0.66550   0.12950   0.01267  Uiso   1.00
C70    C     0.67700   0.23490   0.69410   0.01267  Uiso   1.00
C71    C     0.20140   0.09030   0.25240   0.01267  Uiso   1.00
C72    C     0.79330   0.80570   0.38550   0.01267  Uiso   1.00
C73    C     0.87600   0.22600   0.55960   0.01267  Uiso   1.00
C74    C     0.78310   0.58040   0.22380   0.01267  Uiso   1.00
C75    C     0.64980   0.29110   0.59610   0.01267  Uiso   1.00
C76    C     0.37790   0.31590   0.04050   0.01267  Uiso   1.00
C77    C     0.82300   0.26510   0.19410   0.01267  Uiso   1.00
C78    C     0.12400   0.77400   0.44040   0.01267  Uiso   1.00
C79    C     0.34500   0.91990   0.65190   0.01267  Uiso   1.00
C80    C     0.70670   0.81080   0.77610   0.01267  Uiso   1.00
C81    C     0.81660   0.04430   0.35710   0.01267  Uiso   1.00
C82    C     0.89850   0.33750   0.88750   0.01267  Uiso   1.00
C83    C     0.79380   0.85440   0.77430   0.01267  Uiso   1.00
C84    C     0.31660   0.54430   0.14290   0.01267  Uiso   1.00
C85    C     0.39850   0.83750   0.61250   0.01267  Uiso   1.00
C86    C     0.80070   0.24060   0.58500   0.01267  Uiso   1.00
C87    C     0.39020   0.45860   0.75830   0.01267  Uiso   1.00
C88    C     0.72410   0.34980   0.73970   0.01267  Uiso   1.00
C89    C     0.70140   0.59030   0.24760   0.01267  Uiso   1.00
C90    C     0.68670   0.17260   0.41130   0.01267  Uiso   1.00
C91    C     0.23290   0.75230   0.28580   0.01267  Uiso   1.00
C92    C     0.81150   0.26910   0.49920   0.01267  Uiso   1.00
C93    C     0.65500   0.08010   0.34810   0.01267  Uiso   1.00
C94    C     0.14390   0.33450   0.87050   0.01267  Uiso   1.00
C95    C     0.71690   0.91960   0.72380   0.01267  Uiso   1.00
C96    C     0.87080   0.67580   0.25130   0.01267  Uiso   1.00
C97    C     0.21690   0.41960   0.77620   0.01267  Uiso   1.00
C98    C     0.39910   0.35760   0.91790   0.01267  Uiso   1.00
C99    C     0.25810   0.91320   0.62930   0.01267  Uiso   1.00
C100   C     0.18250   0.12840   0.39600   0.01267  Uiso   1.00
C101   C     0.83590   0.19840   0.70810   0.01267  Uiso   1.00
C102   C     0.73060   0.82780   0.60160   0.01267  Uiso   1.00
C103   C     0.28310   0.08040   0.27620   0.01267  Uiso   1.00
C104   C     0.27060   0.22880   0.42420   0.01267  Uiso   1.00
C105   C     0.64390   0.83450   0.62950   0.01267  Uiso   1.00
C106   C     0.73250   0.28410   0.52260   0.01267  Uiso   1.00
C107   C     0.12920   0.32420   0.74870   0.01267  Uiso   1.00
C108   C     0.81330   0.32740   0.91130   0.01267  Uiso   1.00
C109   C     0.36340   0.66560   0.28240   0.01267  Uiso   1.00
C110   C     0.37500   0.34200   0.69550   0.01267  Uiso   1.00
C111   C     0.75810   0.41320   0.87070   0.01267  Uiso   1.00
C112   C     0.73290   0.25230   0.21420   0.01267  Uiso   1.00
C113   C     0.23060   0.32780   0.89840   0.01267  Uiso   1.00
C114   C     0.79330   0.68920   0.27610   0.01267  Uiso   1.00
C115   C     0.22410   0.84980   0.76030   0.01267  Uiso   1.00
C116   C     0.38050   0.24270   0.57520   0.01267  Uiso   1.00
C117   C     0.62500   0.65800   0.30450   0.01267  Uiso   1.00
C118   C     0.35610   0.16550   0.37050   0.01267  Uiso   1.00
C119   C     0.38300   0.81710   0.73530   0.01267  Uiso   1.00
C120   C     0.25910   0.63460   0.09690   0.01267  Uiso   1.00
C121   C     0.29040   0.29850   0.06920   0.01267  Uiso   1.00
C122   C     0.63660   0.33440   0.71760   0.01267  Uiso   1.00
C123   C     0.16410   0.80160   0.29190   0.01267  Uiso   1.00
C124   C     0.29810   0.22540   0.54990   0.01267  Uiso   1.00
C125   C     0.79810   0.72540   0.95010   0.01267  Uiso   1.00
C126   C     0.79380   0.71140   0.86210   0.01267  Uiso   1.00
C127   C     0.70190   0.77460   0.45010   0.01267  Uiso   1.00
C128   C     0.29860   0.40970   0.75240   0.01267  Uiso   1.00
C129   C     0.61610   0.67040   0.86010   0.01267  Uiso   1.00
C130   C     0.70960   0.70150   0.93080   0.01267  Uiso   1.00
C131   C     0.79860   0.90970   0.74760   0.01267  Uiso   1.00
C132   C     0.63960   0.72180   0.56850   0.01267  Uiso   1.00
C133   C     0.35020   0.70890   0.40390   0.01267  Uiso   1.00
C134   C     0.10090   0.14240   0.41790   0.01267  Uiso   1.00
C135   C     0.37600   0.72600   0.94040   0.01267  Uiso   1.00
C136   C     0.34510   0.68740   0.50170   0.01267  Uiso   1.00
C137   C     0.20190   0.27460   0.04990   0.01267  Uiso   1.00
C138   C     0.33590   0.69840   0.79190   0.01267  Uiso   1.00
C139   C     0.61950   0.75730   0.42480   0.01267  Uiso   1.00
C140   C     0.36040   0.27820   0.43150   0.01267  Uiso   1.00
C141   C     0.69930   0.25940   0.08500   0.01267  Uiso   1.00
C142   C     0.84510   0.18740   0.99830   0.01267  Uiso   1.00
C143   C     0.77260   0.22950   0.06690   0.01267  Uiso   1.00
C144   C     0.70930   0.19440   0.23820   0.01267  Uiso   1.00
C145   C     0.22740   0.77050   0.93310   0.01267  Uiso   1.00
C146   C     0.29330   0.30570   0.11450   0.01267  Uiso   1.00
C147   C     0.24090   0.86540   0.59690   0.01267  Uiso   1.00
C148   C     0.22940   0.27120   0.92420   0.01267  Uiso   1.00
C149   C     0.26940   0.17220   0.39840   0.01267  Uiso   1.00
C150   C     0.10980   0.04140   0.25830   0.01267  Uiso   1.00
C151   C     0.20960   0.20150   0.56920   0.01267  Uiso   1.00
C152   C     0.66410   0.30160   0.20810   0.01267  Uiso   1.00
C153   C     0.31330   0.82740   0.58870   0.01267  Uiso   1.00
C154   C     0.89910   0.85760   0.58210   0.01267  Uiso   1.00
C155   C     0.70620   0.78860   0.36210   0.01267  Uiso   1.00
C156   C     0.18670   0.67260   0.08870   0.01267  Uiso   1.00
C157   C     0.30070   0.74060   0.91500   0.01267  Uiso   1.00
C158   C     0.86340   0.16560   0.21760   0.01267  Uiso   1.00
C159   C     0.12500   0.15800   0.19550   0.01267  Uiso   1.00
C160   C     0.65490   0.31260   0.49830   0.01267  Uiso   1.00
C161   C     0.11700   0.68290   0.23530   0.01267  Uiso   1.00
C162   C     0.68340   0.45570   0.85710   0.01267  Uiso   1.00
C163   C     0.31750   0.37160   0.89600   0.01267  Uiso   1.00
C164   C     0.86040   0.77820   0.06850   0.01267  Uiso   1.00
C165   C     0.60150   0.16250   0.38750   0.01267  Uiso   1.00
C166   C     0.70620   0.64560   0.27430   0.01267  Uiso   1.00
C167   C     0.87500   0.84200   0.80450   0.01267  Uiso   1.00
C168   C     0.72940   0.77120   0.57580   0.01267  Uiso   1.00
N1     N     0.37890   0.23630   0.61888   0.01267  Uiso   1.00
N2     N     0.11290   0.77810   0.80488   0.01267  Uiso   1.00
N3     N     0.63340   0.87760   0.72541   0.01267  Uiso   1.00
N4     N     0.13340   0.37760   0.77459   0.01267  Uiso   1.00
N5     N     0.61290   0.27810   0.69512   0.01267  Uiso   1.00
N6     N     0.88220   0.24010   0.51670   0.01267  Uiso   1.00
N7     N     0.88710   0.22190   0.19512   0.01267  Uiso   1.00
N8     N     0.87890   0.73630   0.88112   0.01267  Uiso   1.00
N9     N     0.36660   0.12240   0.27459   0.01267  Uiso   1.00
N10    N     0.10230   0.19770   0.44194   0.01267  Uiso   1.00
N11    N     0.38220   0.74010   0.98330   0.01267  Uiso   1.00
N12    N     0.91430   0.38260   0.85626   0.01267  Uiso   1.00
N13    N     0.08570   0.61740   0.14374   0.01267  Uiso   1.00
N14    N     0.61780   0.25990   0.01670   0.01267  Uiso   1.00
N15    N     0.39770   0.30230   0.94194   0.01267  Uiso   1.00
N16    N     0.41430   0.88260   0.64374   0.01267  Uiso   1.00
N17    N     0.12110   0.26370   0.11888   0.01267  Uiso   1.00
N18    N     0.60230   0.69770   0.05806   0.01267  Uiso   1.00
N19    N     0.86660   0.62240   0.22541   0.01267  Uiso   1.00
N20    N     0.89770   0.80230   0.55806   0.01267  Uiso   1.00
N21    N     0.38710   0.72190   0.30488   0.01267  Uiso   1.00
N22    N     0.62110   0.76370   0.38112   0.01267  Uiso   1.00
N23    N     0.11780   0.75990   0.48330   0.01267  Uiso   1.00
N24    N     0.58570   0.11740   0.35626   0.01267  Uiso   1.00
O1     O     0.14100   0.16250   0.92160   0.01267  Uiso   1.00
O2     O     0.93270   0.75980   0.05032   0.01267  Uiso   1.00
O3     O     0.57890   0.32190   0.51734   0.01267  Uiso   1.00
O4     O     0.62070   0.48470   0.22870   0.01267  Uiso   1.00
O5     O     0.41550   0.29260   0.70336   0.01267  Uiso   1.00
O6     O     0.12070   0.98470   0.27130   0.01267  Uiso   1.00
O7     O     0.61010   0.62080   0.33670   0.01267  Uiso   1.00
O8     O     0.85900   0.83750   0.07840   0.01267  Uiso   1.00
O9     O     0.58130   0.73230   0.97132   0.01267  Uiso   1.00
O10    O     0.80840   0.13900   0.71750   0.01267  Uiso   1.00
O11    O     0.58450   0.70740   0.29664   0.01267  Uiso   1.00
O12    O     0.36880   0.59910   0.04590   0.01267  Uiso   1.00
O13    O     0.62420   0.89170   0.63593   0.01267  Uiso   1.00
O14    O     0.10000   0.28260   0.85418   0.01267  Uiso   1.00
O15    O     0.05640   0.03450   0.92730   0.01267  Uiso   1.00
O16    O     0.56730   0.74020   0.55032   0.01267  Uiso   1.00
O17    O     0.60100   0.29870   0.92926   0.01267  Uiso   1.00
O18    O     0.53770   0.65430   0.88001   0.01267  Uiso   1.00
O19    O     0.12420   0.39170   0.86407   0.01267  Uiso   1.00
O20    O     0.91730   0.25410   0.10779   0.01267  Uiso   1.00
O21    O     0.21300   0.01410   0.65370   0.01267  Uiso   1.00
O22    O     0.87930   0.01530   0.72870   0.01267  Uiso   1.00
O23    O     0.16050   0.84910   0.89090   0.01267  Uiso   1.00
O24    O     0.37580   0.10830   0.36407   0.01267  Uiso   1.00
O25    O     0.37930   0.51530   0.77130   0.01267  Uiso   1.00
O26    O     0.09680   0.92820   0.64370   0.01267  Uiso   1.00
O27    O     0.66050   0.34910   0.60910   0.01267  Uiso   1.00
O28    O     0.03050   0.06040   0.25010   0.01267  Uiso   1.00
O29    O     0.53820   0.32750   0.37833   0.01267  Uiso   1.00
O30    O     0.41870   0.26770   0.02868   0.01267  Uiso   1.00
O31    O     0.46180   0.67250   0.62167   0.01267  Uiso   1.00
O32    O     0.11010   0.12080   0.16330   0.01267  Uiso   1.00
O33    O     0.08130   0.23230   0.52868   0.01267  Uiso   1.00
O34    O     0.53050   0.56040   0.24990   0.01267  Uiso   1.00
O35    O     0.06730   0.24020   0.94968   0.01267  Uiso   1.00
O36    O     0.41730   0.75410   0.39221   0.01267  Uiso   1.00
O37    O     0.96230   0.84570   0.38001   0.01267  Uiso   1.00
O38    O     0.92110   0.17810   0.01734   0.01267  Uiso   1.00
O39    O     0.03820   0.82750   0.12167   0.01267  Uiso   1.00
O40    O     0.87800   0.83290   0.31916   0.01267  Uiso   1.00
O41    O     0.09860   0.12680   0.52795   0.01267  Uiso   1.00
O42    O     0.91800   0.21780   0.69113   0.01267  Uiso   1.00
O43    O     0.30840   0.63900   0.78250   0.01267  Uiso   1.00
O44    O     0.91870   0.76770   0.47132   0.01267  Uiso   1.00
O45    O     0.07230   0.62400   0.23319   0.01267  Uiso   1.00
O46    O     0.35900   0.33750   0.42160   0.01267  Uiso   1.00
O47    O     0.94360   0.96550   0.07270   0.01267  Uiso   1.00
O48    O     0.90000   0.71740   0.14582   0.01267  Uiso   1.00
O49    O     0.43270   0.25980   0.44968   0.01267  Uiso   1.00
O50    O     0.39900   0.70130   0.07074   0.01267  Uiso   1.00
O51    O     0.38990   0.37920   0.66330   0.01267  Uiso   1.00
O52    O     0.28700   0.48590   0.15370   0.01267  Uiso   1.00
O53    O     0.08450   0.20740   0.20336   0.01267  Uiso   1.00
O54    O     0.88990   0.87920   0.83670   0.01267  Uiso   1.00
O55    O     0.59140   0.23110   0.28364   0.01267  Uiso   1.00
O56    O     0.86880   0.09910   0.45410   0.01267  Uiso   1.00
O57    O     0.07890   0.82190   0.98266   0.01267  Uiso   1.00
O58    O     0.10100   0.79870   0.57074   0.01267  Uiso   1.00
O59    O     0.71300   0.51410   0.84630   0.01267  Uiso   1.00
O60    O     0.59860   0.62680   0.97205   0.01267  Uiso   1.00
O61    O     0.13120   0.90090   0.54590   0.01267  Uiso   1.00
O62    O     0.57230   0.12400   0.26681   0.01267  Uiso   1.00
O63    O     0.58270   0.24590   0.60779   0.01267  Uiso   1.00
O64    O     0.33950   0.65090   0.39090   0.01267  Uiso   1.00
O65    O     0.60000   0.78260   0.64582   0.01267  Uiso   1.00
O66    O     0.46950   0.43960   0.75010   0.01267  Uiso   1.00
O67    O     0.59680   0.42820   0.85630   0.01267  Uiso   1.00
O68    O     0.40320   0.57180   0.14370   0.01267  Uiso   1.00
O69    O     0.90860   0.26890   0.78364   0.01267  Uiso   1.00
O70    O     0.33180   0.67420   0.54152   0.01267  Uiso   1.00
O71    O     0.62200   0.66710   0.81916   0.01267  Uiso   1.00
O72    O     0.55640   0.53450   0.57270   0.01267  Uiso   1.00
O73    O     0.41800   0.71780   0.80887   0.01267  Uiso   1.00
O74    O     0.08200   0.78220   0.30887   0.01267  Uiso   1.00
O75    O     0.66820   0.32580   0.45848   0.01267  Uiso   1.00
O76    O     0.16820   0.82580   0.04152   0.01267  Uiso   1.00
O77    O     0.63120   0.40090   0.95410   0.01267  Uiso   1.00
O78    O     0.78700   0.98590   0.34630   0.01267  Uiso   1.00
O79    O     0.46230   0.34570   0.11999   0.01267  Uiso   1.00
O80    O     0.12200   0.16710   0.68084   0.01267  Uiso   1.00
O81    O     0.69160   0.36100   0.21750   0.01267  Uiso   1.00
O82    O     0.90320   0.07180   0.35630   0.01267  Uiso   1.00
O83    O     0.19160   0.86100   0.28250   0.01267  Uiso   1.00
O84    O     0.89900   0.20130   0.42926   0.01267  Uiso   1.00
O85    O     0.91550   0.79260   0.79664   0.01267  Uiso   1.00
O86    O     0.40000   0.21740   0.35418   0.01267  Uiso   1.00
O87    O     0.37800   0.33290   0.18084   0.01267  Uiso   1.00
O88    O     0.42110   0.67810   0.48266   0.01267  Uiso   1.00
O89    O     0.58200   0.28220   0.19113   0.01267  Uiso   1.00
O90    O     0.87580   0.60830   0.13593   0.01267  Uiso   1.00
O91    O     0.96950   0.93960   0.74990   0.01267  Uiso   1.00
O92    O     0.40860   0.76890   0.71636   0.01267  Uiso   1.00
O93    O     0.44360   0.46550   0.42730   0.01267  Uiso   1.00
O94    O     0.92770   0.37600   0.76681   0.01267  Uiso   1.00
O95    O     0.09140   0.73110   0.21636   0.01267  Uiso   1.00
O96    O     0.96180   0.17250   0.87833   0.01267  Uiso   1.00
O97    O     0.64100   0.66250   0.57840   0.01267  Uiso   1.00
O98    O     0.03770   0.15430   0.61999   0.01267  Uiso   1.00
O99    O     0.83180   0.17420   0.95848   0.01267  Uiso   1.00
O100   O     0.83950   0.15090   0.10910   0.01267  Uiso   1.00
O101   O     0.42770   0.87600   0.73319   0.01267  Uiso   1.00
O102   O     0.90140   0.87320   0.47205   0.01267  Uiso   1.00
O103   O     0.08270   0.74590   0.89221   0.01267  Uiso   1.00
O104   O     0.40140   0.37320   0.02795   0.01267  Uiso   1.00
