data_QOTWON_clean
_audit_creation_date              2015-10-16
_audit_creation_method            'Materials Studio'
_symmetry_space_group_name_H-M    'P1'
_symmetry_Int_Tables_number       1
_symmetry_cell_setting            triclinic
loop_
_symmetry_equiv_pos_as_xyz
  x,y,z
_cell_length_a                    12.7228
_cell_length_b                    18.1372
_cell_length_c                    18.1372
_cell_angle_alpha                 82.9338
_cell_angle_beta                  69.4676
_cell_angle_gamma                 69.4677
loop_
_atom_site_label
_atom_site_type_symbol
_atom_site_fract_x
_atom_site_fract_y
_atom_site_fract_z
_atom_site_U_iso_or_equiv
_atom_site_adp_type
_atom_site_occupancy
Mn1    Mn    0.96519   0.17360   0.90792   0.01267  Uiso   1.00
Mn2    Mn    0.87311   0.09208   0.67360   0.01267  Uiso   1.00
Mn3    Mn    0.20174   0.21831   0.81758   0.01267  Uiso   1.00
Mn4    Mn    0.98067   0.81758   0.28170   0.01267  Uiso   1.00
Mn5    Mn    0.03481   0.82640   0.09208   0.01267  Uiso   1.00
Mn6    Mn    0.45329   0.67360   0.40792   0.01267  Uiso   1.00
Mn7    Mn    0.50000   0.50000   0.50000   0.01267  Uiso   1.00
Mn8    Mn    0.57995   0.68242   0.21830   0.01267  Uiso   1.00
Mn9    Mn    0.26236   0.71831   0.31758   0.01267  Uiso   1.00
Mn10   Mn    0.86121   0.59208   0.17360   0.01267  Uiso   1.00
Mn11   Mn    0.00000   0.50000   0.00000   0.01267  Uiso   1.00
Mn12   Mn    0.73764   0.28169   0.68242   0.01267  Uiso   1.00
Mn13   Mn    0.12689   0.90792   0.32640   0.01267  Uiso   1.00
Mn14   Mn    0.42005   0.31758   0.78170   0.01267  Uiso   1.00
Mn15   Mn    0.00000   0.00000   0.00000   0.01267  Uiso   1.00
Mn16   Mn    0.00000   0.00000   0.50000   0.01267  Uiso   1.00
Mn17   Mn    0.54671   0.32640   0.59208   0.01267  Uiso   1.00
Mn18   Mn    0.13879   0.40792   0.82640   0.01267  Uiso   1.00
Mn19   Mn    0.01933   0.18242   0.71830   0.01267  Uiso   1.00
Mn20   Mn    0.79826   0.78169   0.18242   0.01267  Uiso   1.00
H1     H     0.67910   0.09870   0.89190   0.01267  Uiso   1.00
H2     H     0.55110   0.88680   0.41180   0.01267  Uiso   1.00
H3     H     0.69680   0.04990   0.44690   0.01267  Uiso   1.00
H4     H     0.89510   0.68620   0.81300   0.01267  Uiso   1.00
H5     H     0.20560   0.35140   0.17740   0.01267  Uiso   1.00
H6     H     0.73530   0.51640   0.48980   0.01267  Uiso   1.00
H7     H     0.16480   0.56430   0.69890   0.01267  Uiso   1.00
H8     H     0.14010   0.86460   0.58440   0.01267  Uiso   1.00
H9     H     0.22220   0.60810   0.09870   0.01267  Uiso   1.00
H10    H     0.45950   0.75380   0.62940   0.01267  Uiso   1.00
H11    H     0.94170   0.20510   0.60310   0.01267  Uiso   1.00
H12    H     0.10570   0.18620   0.31300   0.01267  Uiso   1.00
H13    H     0.63390   0.53230   0.01630   0.01267  Uiso   1.00
H14    H     0.92800   0.93570   0.80110   0.01267  Uiso   1.00
H15    H     0.26250   0.67870   0.04930   0.01267  Uiso   1.00
H16    H     0.89430   0.81380   0.68700   0.01267  Uiso   1.00
H17    H     0.06650   0.92510   0.77370   0.01267  Uiso   1.00
H18    H     0.26530   0.57490   0.72630   0.01267  Uiso   1.00
H19    H     0.27090   0.80110   0.56430   0.01267  Uiso   1.00
H20    H     0.16970   0.40130   0.60810   0.01267  Uiso   1.00
H21    H     0.22510   0.51020   0.01640   0.01267  Uiso   1.00
H22    H     0.05830   0.79490   0.39690   0.01267  Uiso   1.00
H23    H     0.44300   0.32260   0.35140   0.01267  Uiso   1.00
H24    H     0.29190   0.81300   0.81380   0.01267  Uiso   1.00
H25    H     0.73750   0.32130   0.95070   0.01267  Uiso   1.00
H26    H     0.54480   0.39690   0.70510   0.01267  Uiso   1.00
H27    H     0.07200   0.06430   0.19890   0.01267  Uiso   1.00
H28    H     0.91090   0.36460   0.08440   0.01267  Uiso   1.00
H29    H     0.93350   0.07490   0.22630   0.01267  Uiso   1.00
H30    H     0.54050   0.24620   0.37060   0.01267  Uiso   1.00
H31    H     0.49050   0.82130   0.45070   0.01267  Uiso   1.00
H32    H     0.77780   0.39190   0.90130   0.01267  Uiso   1.00
H33    H     0.65730   0.25380   0.12940   0.01267  Uiso   1.00
H34    H     0.42900   0.89190   0.40130   0.01267  Uiso   1.00
H35    H     0.05880   0.45070   0.67870   0.01267  Uiso   1.00
H36    H     0.34970   0.61320   0.08820   0.01267  Uiso   1.00
H37    H     0.84020   0.22630   0.42510   0.01267  Uiso   1.00
H38    H     0.83030   0.59870   0.39190   0.01267  Uiso   1.00
H39    H     0.23440   0.14860   0.32260   0.01267  Uiso   1.00
H40    H     0.00840   0.72630   0.92510   0.01267  Uiso   1.00
H41    H     0.78670   0.87060   0.75380   0.01267  Uiso   1.00
H42    H     0.79440   0.64860   0.82260   0.01267  Uiso   1.00
H43    H     0.94120   0.54930   0.32130   0.01267  Uiso   1.00
H44    H     0.21330   0.12940   0.24620   0.01267  Uiso   1.00
H45    H     0.68250   0.96770   0.48370   0.01267  Uiso   1.00
H46    H     0.24150   0.98360   0.01020   0.01267  Uiso   1.00
H47    H     0.72450   0.41560   0.36460   0.01267  Uiso   1.00
H48    H     0.76560   0.85140   0.67740   0.01267  Uiso   1.00
H49    H     0.50950   0.17870   0.54930   0.01267  Uiso   1.00
H50    H     0.85630   0.44690   0.45010   0.01267  Uiso   1.00
H51    H     0.99160   0.27370   0.07490   0.01267  Uiso   1.00
H52    H     0.57100   0.10810   0.59870   0.01267  Uiso   1.00
H53    H     0.36610   0.46770   0.98370   0.01267  Uiso   1.00
H54    H     0.38300   0.82260   0.85140   0.01267  Uiso   1.00
H55    H     0.99530   0.91560   0.86460   0.01267  Uiso   1.00
H56    H     0.73470   0.42510   0.27370   0.01267  Uiso   1.00
H57    H     0.00470   0.08440   0.13540   0.01267  Uiso   1.00
H58    H     0.77490   0.48980   0.98360   0.01267  Uiso   1.00
H59    H     0.91110   0.62940   0.74620   0.01267  Uiso   1.00
H60    H     0.83520   0.43570   0.30110   0.01267  Uiso   1.00
H61    H     0.08910   0.63540   0.91560   0.01267  Uiso   1.00
H62    H     0.83380   0.48370   0.53230   0.01267  Uiso   1.00
H63    H     0.25330   0.05310   0.04990   0.01267  Uiso   1.00
H64    H     0.61700   0.17740   0.14860   0.01267  Uiso   1.00
H65    H     0.65030   0.38680   0.91180   0.01267  Uiso   1.00
H66    H     0.58130   0.31300   0.31380   0.01267  Uiso   1.00
H67    H     0.24990   0.29490   0.89690   0.01267  Uiso   1.00
H68    H     0.27550   0.58440   0.63540   0.01267  Uiso   1.00
H69    H     0.16620   0.51630   0.46770   0.01267  Uiso   1.00
H70    H     0.14680   0.10310   0.79490   0.01267  Uiso   1.00
H71    H     0.70810   0.18700   0.18620   0.01267  Uiso   1.00
H72    H     0.03710   0.41180   0.61320   0.01267  Uiso   1.00
H73    H     0.96290   0.58820   0.38680   0.01267  Uiso   1.00
H74    H     0.14370   0.55310   0.54990   0.01267  Uiso   1.00
H75    H     0.55700   0.67740   0.64860   0.01267  Uiso   1.00
H76    H     0.31750   0.03230   0.51630   0.01267  Uiso   1.00
H77    H     0.08890   0.37060   0.25380   0.01267  Uiso   1.00
H78    H     0.86370   0.30110   0.06430   0.01267  Uiso   1.00
H79    H     0.30640   0.54990   0.94690   0.01267  Uiso   1.00
H80    H     0.25170   0.98980   0.48360   0.01267  Uiso   1.00
H81    H     0.74830   0.01020   0.51640   0.01267  Uiso   1.00
H82    H     0.34980   0.01630   0.96770   0.01267  Uiso   1.00
H83    H     0.85990   0.13540   0.41560   0.01267  Uiso   1.00
H84    H     0.74670   0.94690   0.95010   0.01267  Uiso   1.00
H85    H     0.26470   0.48360   0.51020   0.01267  Uiso   1.00
H86    H     0.65020   0.98370   0.03230   0.01267  Uiso   1.00
H87    H     0.34270   0.74620   0.87060   0.01267  Uiso   1.00
H88    H     0.85320   0.89690   0.20510   0.01267  Uiso   1.00
H89    H     0.72910   0.19890   0.43570   0.01267  Uiso   1.00
H90    H     0.69360   0.45010   0.05310   0.01267  Uiso   1.00
H91    H     0.44890   0.11320   0.58820   0.01267  Uiso   1.00
H92    H     0.32090   0.90130   0.10810   0.01267  Uiso   1.00
H93    H     0.31180   0.95070   0.17870   0.01267  Uiso   1.00
H94    H     0.45520   0.60310   0.29490   0.01267  Uiso   1.00
H95    H     0.13630   0.69890   0.93570   0.01267  Uiso   1.00
H96    H     0.75850   0.01640   0.98980   0.01267  Uiso   1.00
H97    H     0.30320   0.95010   0.55310   0.01267  Uiso   1.00
H98    H     0.41870   0.68700   0.68620   0.01267  Uiso   1.00
H99    H     0.75010   0.70510   0.10310   0.01267  Uiso   1.00
H100   H     0.43790   0.91180   0.11320   0.01267  Uiso   1.00
H101   H     0.15980   0.77370   0.57490   0.01267  Uiso   1.00
H102   H     0.56210   0.08820   0.88680   0.01267  Uiso   1.00
H103   H     0.10490   0.31380   0.18700   0.01267  Uiso   1.00
H104   H     0.68820   0.04930   0.82130   0.01267  Uiso   1.00
C1     C     0.79602   0.46940   0.50016   0.01267  Uiso   1.00
C2     C     0.38138   0.83178   0.19226   0.01267  Uiso   1.00
C3     C     0.73442   0.96940   0.00016   0.01267  Uiso   1.00
C4     C     0.21377   0.84458   0.93068   0.01267  Uiso   1.00
C5     C     0.14445   0.06932   0.34458   0.01267  Uiso   1.00
C6     C     0.31692   0.80293   0.86043   0.01267  Uiso   1.00
C7     C     0.26542   0.00016   0.53060   0.01267  Uiso   1.00
C8     C     0.95909   0.03102   0.82860   0.01267  Uiso   1.00
C9     C     0.85555   0.93068   0.65542   0.01267  Uiso   1.00
C10    C     0.04091   0.96898   0.17140   0.01267  Uiso   1.00
C11    C     0.00989   0.67140   0.03102   0.01267  Uiso   1.00
C12    C     0.26647   0.64388   0.09478   0.01267  Uiso   1.00
C13    C     0.61862   0.16822   0.80774   0.01267  Uiso   1.00
C14    C     0.73458   0.99984   0.46940   0.01267  Uiso   1.00
C15    C     0.01009   0.05574   0.18408   0.01267  Uiso   1.00
C16    C     0.51097   0.34458   0.43068   0.01267  Uiso   1.00
C17    C     0.20398   0.53060   0.49984   0.01267  Uiso   1.00
C18    C     0.48028   0.69707   0.63957   0.01267  Uiso   1.00
C19    C     0.90542   0.66822   0.30774   0.01267  Uiso   1.00
C20    C     0.73353   0.35612   0.90522   0.01267  Uiso   1.00
C21    C     0.98991   0.94426   0.81592   0.01267  Uiso   1.00
C22    C     0.80783   0.90978   0.04336   0.01267  Uiso   1.00
C23    C     0.06583   0.68408   0.94426   0.01267  Uiso   1.00
C24    C     0.80583   0.18408   0.44426   0.01267  Uiso   1.00
C25    C     0.31871   0.46898   0.67140   0.01267  Uiso   1.00
C26    C     0.85119   0.95664   0.40978   0.01267  Uiso   1.00
C27    C     0.48903   0.65542   0.56932   0.01267  Uiso   1.00
C28    C     0.14881   0.04336   0.59022   0.01267  Uiso   1.00
C29    C     0.78684   0.30774   0.83178   0.01267  Uiso   1.00
C30    C     0.88015   0.63957   0.80293   0.01267  Uiso   1.00
C31    C     0.26097   0.59022   0.45664   0.01267  Uiso   1.00
C32    C     0.21231   0.82860   0.46898   0.01267  Uiso   1.00
C33    C     0.94165   0.56932   0.84458   0.01267  Uiso   1.00
C34    C     0.50513   0.85612   0.40522   0.01267  Uiso   1.00
C35    C     0.57364   0.80774   0.33178   0.01267  Uiso   1.00
C36    C     0.74991   0.44426   0.31592   0.01267  Uiso   1.00
C37    C     0.29618   0.49984   0.96940   0.01267  Uiso   1.00
C38    C     0.73903   0.40978   0.54336   0.01267  Uiso   1.00
C39    C     0.19217   0.09022   0.95664   0.01267  Uiso   1.00
C40    C     0.19417   0.81592   0.55574   0.01267  Uiso   1.00
C41    C     0.70382   0.50016   0.03060   0.01267  Uiso   1.00
C42    C     0.91035   0.59478   0.35612   0.01267  Uiso   1.00
C43    C     0.26558   0.03060   0.99984   0.01267  Uiso   1.00
C44    C     0.21316   0.69226   0.16822   0.01267  Uiso   1.00
C45    C     0.93417   0.31592   0.05574   0.01267  Uiso   1.00
C46    C     0.05835   0.43068   0.15542   0.01267  Uiso   1.00
C47    C     0.71761   0.54336   0.09022   0.01267  Uiso   1.00
C48    C     0.63875   0.09478   0.85612   0.01267  Uiso   1.00
C49    C     0.08965   0.40522   0.64388   0.01267  Uiso   1.00
C50    C     0.28239   0.45664   0.90978   0.01267  Uiso   1.00
C51    C     0.25009   0.55574   0.68408   0.01267  Uiso   1.00
C52    C     0.42636   0.19226   0.66822   0.01267  Uiso   1.00
C53    C     0.49487   0.14388   0.59478   0.01267  Uiso   1.00
C54    C     0.82265   0.86043   0.69707   0.01267  Uiso   1.00
C55    C     0.51972   0.30293   0.36043   0.01267  Uiso   1.00
C56    C     0.99011   0.32860   0.96898   0.01267  Uiso   1.00
C57    C     0.36125   0.90522   0.14388   0.01267  Uiso   1.00
C58    C     0.09458   0.33178   0.69226   0.01267  Uiso   1.00
C59    C     0.11985   0.36043   0.19707   0.01267  Uiso   1.00
C60    C     0.78769   0.17140   0.53102   0.01267  Uiso   1.00
C61    C     0.68308   0.19707   0.13957   0.01267  Uiso   1.00
C62    C     0.68129   0.53102   0.32860   0.01267  Uiso   1.00
C63    C     0.17735   0.13957   0.30293   0.01267  Uiso   1.00
C64    C     0.78623   0.15542   0.06932   0.01267  Uiso   1.00
O1     O     0.91511   0.90832   0.02918   0.01267  Uiso   1.00
O2     O     0.25923   0.30056   0.84826   0.01267  Uiso   1.00
O3     O     0.88301   0.67204   0.24438   0.01267  Uiso   1.00
O4     O     0.47713   0.77793   0.16601   0.01267  Uiso   1.00
O5     O     0.55979   0.34826   0.69944   0.01267  Uiso   1.00
O6     O     0.28660   0.77441   0.42175   0.01267  Uiso   1.00
O7     O     0.01724   0.27441   0.92175   0.01267  Uiso   1.00
O8     O     0.21668   0.63458   0.41012   0.01267  Uiso   1.00
O9     O     0.09195   0.80056   0.34826   0.01267  Uiso   1.00
O10    O     0.64314   0.83399   0.27793   0.01267  Uiso   1.00
O11    O     0.52469   0.30278   0.48900   0.01267  Uiso   1.00
O12    O     0.17253   0.01100   0.30278   0.01267  Uiso   1.00
O13    O     0.07893   0.27793   0.66601   0.01267  Uiso   1.00
O14    O     0.00817   0.39380   0.94596   0.01267  Uiso   1.00
O15    O     0.17657   0.47082   0.90832   0.01267  Uiso   1.00
O16    O     0.01369   0.51100   0.80278   0.01267  Uiso   1.00
O17    O     0.59803   0.55404   0.39380   0.01267  Uiso   1.00
O18    O     0.52287   0.22207   0.83399   0.01267  Uiso   1.00
O19    O     0.76138   0.86542   0.08988   0.01267  Uiso   1.00
O20    O     0.47531   0.69722   0.51100   0.01267  Uiso   1.00
O21    O     0.35686   0.16601   0.72207   0.01267  Uiso   1.00
O22    O     0.16413   0.91787   0.92577   0.01267  Uiso   1.00
O23    O     0.82343   0.52918   0.09168   0.01267  Uiso   1.00
O24    O     0.14874   0.08988   0.63458   0.01267  Uiso   1.00
O25    O     0.98631   0.48900   0.19722   0.01267  Uiso   1.00
O26    O     0.70057   0.17204   0.74438   0.01267  Uiso   1.00
O27    O     0.15207   0.89380   0.44596   0.01267  Uiso   1.00
O28    O     0.84793   0.10620   0.55404   0.01267  Uiso   1.00
O29    O     0.55505   0.74438   0.32796   0.01267  Uiso   1.00
O30    O     0.23862   0.13458   0.91012   0.01267  Uiso   1.00
O31    O     0.87261   0.24438   0.82796   0.01267  Uiso   1.00
O32    O     0.10749   0.15174   0.80056   0.01267  Uiso   1.00
O33    O     0.91010   0.92577   0.58213   0.01267  Uiso   1.00
O34    O     0.83587   0.08213   0.07423   0.01267  Uiso   1.00
O35    O     0.64739   0.40832   0.52918   0.01267  Uiso   1.00
O36    O     0.70835   0.57825   0.27441   0.01267  Uiso   1.00
O37    O     0.18353   0.80278   0.98900   0.01267  Uiso   1.00
O38    O     0.85126   0.91012   0.36542   0.01267  Uiso   1.00
O39    O     0.74077   0.69944   0.15174   0.01267  Uiso   1.00
O40    O     0.78332   0.36542   0.58988   0.01267  Uiso   1.00
O41    O     0.99183   0.60620   0.05404   0.01267  Uiso   1.00
O42    O     0.92107   0.72207   0.33399   0.01267  Uiso   1.00
O43    O     0.35261   0.59168   0.47082   0.01267  Uiso   1.00
O44    O     0.40197   0.44596   0.60620   0.01267  Uiso   1.00
O45    O     0.71340   0.22559   0.57825   0.01267  Uiso   1.00
O46    O     0.37320   0.41012   0.86542   0.01267  Uiso   1.00
O47    O     0.11699   0.32796   0.75562   0.01267  Uiso   1.00
O48    O     0.82747   0.98900   0.69722   0.01267  Uiso   1.00
O49    O     0.25506   0.66601   0.22207   0.01267  Uiso   1.00
O50    O     0.74494   0.33399   0.77793   0.01267  Uiso   1.00
O51    O     0.29943   0.82796   0.25562   0.01267  Uiso   1.00
O52    O     0.08200   0.42577   0.08213   0.01267  Uiso   1.00
O53    O     0.05571   0.02918   0.59168   0.01267  Uiso   1.00
O54    O     0.98276   0.72559   0.07825   0.01267  Uiso   1.00
O55    O     0.89251   0.84826   0.19944   0.01267  Uiso   1.00
O56    O     0.08990   0.07423   0.41787   0.01267  Uiso   1.00
O57    O     0.81647   0.19722   0.01100   0.01267  Uiso   1.00
O58    O     0.06101   0.92175   0.22559   0.01267  Uiso   1.00
O59    O     0.04587   0.94596   0.10620   0.01267  Uiso   1.00
O60    O     0.08489   0.09168   0.97082   0.01267  Uiso   1.00
O61    O     0.91800   0.57423   0.91787   0.01267  Uiso   1.00
O62    O     0.90805   0.19944   0.65174   0.01267  Uiso   1.00
O63    O     0.44495   0.25562   0.67204   0.01267  Uiso   1.00
O64    O     0.95413   0.05404   0.89380   0.01267  Uiso   1.00
O65    O     0.29165   0.42175   0.72559   0.01267  Uiso   1.00
O66    O     0.50777   0.58213   0.57423   0.01267  Uiso   1.00
O67    O     0.62680   0.58988   0.13458   0.01267  Uiso   1.00
O68    O     0.93899   0.07825   0.77441   0.01267  Uiso   1.00
O69    O     0.49223   0.41787   0.42577   0.01267  Uiso   1.00
O70    O     0.44021   0.65174   0.30056   0.01267  Uiso   1.00
O71    O     0.94429   0.97082   0.40832   0.01267  Uiso   1.00
O72    O     0.12739   0.75562   0.17204   0.01267  Uiso   1.00
