data_QOTZEG_clean
_audit_creation_date              2015-10-16
_audit_creation_method            'Materials Studio'
_symmetry_space_group_name_H-M    'P1'
_symmetry_Int_Tables_number       1
_symmetry_cell_setting            triclinic
loop_
_symmetry_equiv_pos_as_xyz
  x,y,z
_cell_length_a                    10.4380
_cell_length_b                    10.4380
_cell_length_c                    13.8530
_cell_angle_alpha                 90.0000
_cell_angle_beta                  90.0000
_cell_angle_gamma                 90.0000
loop_
_atom_site_label
_atom_site_type_symbol
_atom_site_fract_x
_atom_site_fract_y
_atom_site_fract_z
_atom_site_U_iso_or_equiv
_atom_site_adp_type
_atom_site_occupancy
La1    La    0.39317   0.63319   0.81087   0.01267  Uiso   1.00
La2    La    0.63319   0.60683   0.56087   0.01267  Uiso   1.00
La3    La    0.60683   0.36681   0.31087   0.01267  Uiso   1.00
La4    La    0.36681   0.39317   0.06087   0.01267  Uiso   1.00
H1     H     0.61030   0.03010   0.56600   0.01267  Uiso   1.00
H2     H     0.50880   0.04610   0.84740   0.01267  Uiso   1.00
H3     H     0.63430   0.50830   0.93440   0.01267  Uiso   1.00
H4     H     0.04610   0.49120   0.59740   0.01267  Uiso   1.00
H5     H     0.49170   0.63430   0.18440   0.01267  Uiso   1.00
H6     H     0.96990   0.61030   0.81600   0.01267  Uiso   1.00
H7     H     0.03010   0.38970   0.31600   0.01267  Uiso   1.00
H8     H     0.36570   0.49170   0.43440   0.01267  Uiso   1.00
H9     H     0.50830   0.36570   0.68440   0.01267  Uiso   1.00
H10    H     0.49120   0.95390   0.34740   0.01267  Uiso   1.00
H11    H     0.95390   0.50880   0.09740   0.01267  Uiso   1.00
H12    H     0.38970   0.96990   0.06600   0.01267  Uiso   1.00
C1     C     0.41170   0.73260   0.01570   0.01267  Uiso   1.00
C2     C     0.58830   0.26740   0.51570   0.01267  Uiso   1.00
C3     C     0.07760   0.41650   0.37000   0.01267  Uiso   1.00
C4     C     0.91280   0.52420   0.03820   0.01267  Uiso   1.00
C5     C     0.56630   0.20620   0.61270   0.01267  Uiso   1.00
C6     C     0.50990   0.21940   0.78120   0.01267  Uiso   1.00
C7     C     0.70790   0.47230   0.11790   0.01267  Uiso   1.00
C8     C     0.72220   0.52540   0.94160   0.01267  Uiso   1.00
C9     C     0.43880   0.98430   0.20840   0.01267  Uiso   1.00
C10    C     0.56120   0.01570   0.70840   0.01267  Uiso   1.00
C11    C     0.29210   0.52770   0.61790   0.01267  Uiso   1.00
C12    C     0.26740   0.41170   0.26570   0.01267  Uiso   1.00
C13    C     0.43370   0.79380   0.11270   0.01267  Uiso   1.00
C14    C     0.52540   0.27780   0.69160   0.01267  Uiso   1.00
C15    C     0.47580   0.91280   0.28820   0.01267  Uiso   1.00
C16    C     0.56890   0.87070   0.71410   0.01267  Uiso   1.00
C17    C     0.52770   0.70790   0.36790   0.01267  Uiso   1.00
C18    C     0.87070   0.43110   0.46410   0.01267  Uiso   1.00
C19    C     0.49010   0.78060   0.28120   0.01267  Uiso   1.00
C20    C     0.12930   0.56890   0.96410   0.01267  Uiso   1.00
C21    C     0.47460   0.72220   0.19160   0.01267  Uiso   1.00
C22    C     0.58350   0.07760   0.62000   0.01267  Uiso   1.00
C23    C     0.20620   0.43370   0.36270   0.01267  Uiso   1.00
C24    C     0.27780   0.47460   0.44160   0.01267  Uiso   1.00
C25    C     0.73260   0.58830   0.76570   0.01267  Uiso   1.00
C26    C     0.01570   0.43880   0.45840   0.01267  Uiso   1.00
C27    C     0.43110   0.12930   0.21410   0.01267  Uiso   1.00
C28    C     0.79380   0.56630   0.86270   0.01267  Uiso   1.00
C29    C     0.47230   0.29210   0.86790   0.01267  Uiso   1.00
C30    C     0.21940   0.49010   0.53120   0.01267  Uiso   1.00
C31    C     0.98430   0.56120   0.95840   0.01267  Uiso   1.00
C32    C     0.92240   0.58350   0.87000   0.01267  Uiso   1.00
C33    C     0.52420   0.08720   0.78820   0.01267  Uiso   1.00
C34    C     0.41650   0.92240   0.12000   0.01267  Uiso   1.00
C35    C     0.08720   0.47580   0.53820   0.01267  Uiso   1.00
C36    C     0.78060   0.50990   0.03120   0.01267  Uiso   1.00
O1     O     0.61260   0.55750   0.75320   0.01267  Uiso   1.00
O2     O     0.18080   0.54030   0.04450   0.01267  Uiso   1.00
O3     O     0.50780   0.75650   0.45060   0.01267  Uiso   1.00
O4     O     0.54030   0.81920   0.79450   0.01267  Uiso   1.00
O5     O     0.57940   0.59560   0.36160   0.01267  Uiso   1.00
O6     O     0.75650   0.49220   0.20060   0.01267  Uiso   1.00
O7     O     0.44250   0.61260   0.00320   0.01267  Uiso   1.00
O8     O     0.42060   0.40440   0.86160   0.01267  Uiso   1.00
O9     O     0.40390   0.18880   0.13960   0.01267  Uiso   1.00
O10    O     0.18880   0.59610   0.88960   0.01267  Uiso   1.00
O11    O     0.55750   0.38740   0.50320   0.01267  Uiso   1.00
O12    O     0.79800   0.63180   0.69830   0.01267  Uiso   1.00
O13    O     0.81120   0.40390   0.38960   0.01267  Uiso   1.00
O14    O     0.40440   0.57940   0.61160   0.01267  Uiso   1.00
O15    O     0.63180   0.20200   0.44830   0.01267  Uiso   1.00
O16    O     0.36820   0.79800   0.94830   0.01267  Uiso   1.00
O17    O     0.38740   0.44250   0.25320   0.01267  Uiso   1.00
O18    O     0.49220   0.24350   0.95060   0.01267  Uiso   1.00
O19    O     0.45970   0.18080   0.29450   0.01267  Uiso   1.00
O20    O     0.24350   0.50780   0.70060   0.01267  Uiso   1.00
O21    O     0.81920   0.45970   0.54450   0.01267  Uiso   1.00
O22    O     0.59560   0.42060   0.11160   0.01267  Uiso   1.00
O23    O     0.59610   0.81120   0.63960   0.01267  Uiso   1.00
O24    O     0.20200   0.36820   0.19830   0.01267  Uiso   1.00
