data_image0
_cell_length_a       27.8342
_cell_length_b       27.8342
_cell_length_c       6.2421
_cell_angle_alpha    90
_cell_angle_beta     90
_cell_angle_gamma    120

_symmetry_space_group_name_H-M    "P 1"
_symmetry_int_tables_number       1

loop_
  _symmetry_equiv_pos_as_xyz
  'x, y, z'

loop_
  _atom_site_label
  _atom_site_occupancy
  _atom_site_fract_x
  _atom_site_fract_y
  _atom_site_fract_z
  _atom_site_thermal_displace_type
  _atom_site_B_iso_or_equiv
  _atom_site_type_symbol
  Ni1      1.0000 0.30346  0.02706  0.71921  Biso   1.000  Ni
  P1       1.0000 0.29402  0.05095  0.23750  Biso   1.000  P
  O1       1.0000 0.24067  0.05063  0.18310  Biso   1.000  O
  O2       1.0000 0.32394  0.04578  0.04960  Biso   1.000  O
  N1       1.0000 0.32491  0.11125  0.62300  Biso   1.000  N
  C1       1.0000 0.27810  0.11980  0.64500  Biso   1.000  C
  O3       1.0000 0.28276  0.00262  0.39790  Biso   1.000  O
  C2       1.0000 0.37743  0.15730  0.74490  Biso   1.000  C
  C3       1.0000 0.34670  0.11700  0.39490  Biso   1.000  C
  Ni2      1.0000 0.97013  0.36039  0.05254  Biso   1.000  Ni
  P2       1.0000 0.96069  0.38428  0.57083  Biso   1.000  P
  O4       1.0000 0.90734  0.38396  0.51643  Biso   1.000  O
  O5       1.0000 0.99061  0.37911  0.38293  Biso   1.000  O
  N2       1.0000 0.99158  0.44458  0.95633  Biso   1.000  N
  C4       1.0000 0.94477  0.45313  0.97833  Biso   1.000  C
  O6       1.0000 0.94943  0.33595  0.73123  Biso   1.000  O
  C5       1.0000 0.04410  0.49063  0.07823  Biso   1.000  C
  C6       1.0000 0.01337  0.45033  0.72823  Biso   1.000  C
  Ni3      1.0000 0.63679  0.69373  0.38588  Biso   1.000  Ni
  P3       1.0000 0.62735  0.71762  0.90417  Biso   1.000  P
  O7       1.0000 0.57400  0.71730  0.84977  Biso   1.000  O
  O8       1.0000 0.65727  0.71245  0.71627  Biso   1.000  O
  N3       1.0000 0.65824  0.77792  0.28967  Biso   1.000  N
  C7       1.0000 0.61143  0.78647  0.31167  Biso   1.000  C
  O9       1.0000 0.61609  0.66929  0.06457  Biso   1.000  O
  C8       1.0000 0.71076  0.82397  0.41157  Biso   1.000  C
  C9       1.0000 0.68003  0.78367  0.06157  Biso   1.000  C
  Ni4      1.0000 0.97294  0.27640  0.71921  Biso   1.000  Ni
  P4       1.0000 0.94905  0.24307  0.23750  Biso   1.000  P
  O10      1.0000 0.94937  0.19004  0.18310  Biso   1.000  O
  O11      1.0000 0.95422  0.27816  0.04960  Biso   1.000  O
  N4       1.0000 0.88875  0.21366  0.62300  Biso   1.000  N
  C10      1.0000 0.88020  0.15830  0.64500  Biso   1.000  C
  O12      1.0000 0.99738  0.28014  0.39790  Biso   1.000  O
  C11      1.0000 0.84270  0.22013  0.74490  Biso   1.000  C
  C12      1.0000 0.88300  0.22970  0.39490  Biso   1.000  C
  Ni5      1.0000 0.63961  0.60973  0.05254  Biso   1.000  Ni
  P5       1.0000 0.61572  0.57640  0.57083  Biso   1.000  P
  O13      1.0000 0.61604  0.52337  0.51643  Biso   1.000  O
  O14      1.0000 0.62089  0.61149  0.38293  Biso   1.000  O
  N5       1.0000 0.55542  0.54699  0.95633  Biso   1.000  N
  C13      1.0000 0.54687  0.49163  0.97833  Biso   1.000  C
  O15      1.0000 0.66405  0.61347  0.73123  Biso   1.000  O
  C14      1.0000 0.50937  0.55346  0.07823  Biso   1.000  C
  C15      1.0000 0.54967  0.56303  0.72823  Biso   1.000  C
  Ni6      1.0000 0.30627  0.94307  0.38588  Biso   1.000  Ni
  P6       1.0000 0.28238  0.90974  0.90417  Biso   1.000  P
  O16      1.0000 0.28270  0.85671  0.84977  Biso   1.000  O
  O17      1.0000 0.28755  0.94483  0.71627  Biso   1.000  O
  N6       1.0000 0.22208  0.88033  0.28967  Biso   1.000  N
  C16      1.0000 0.21353  0.82497  0.31167  Biso   1.000  C
  O18      1.0000 0.33071  0.94681  0.06457  Biso   1.000  O
  C17      1.0000 0.17603  0.88680  0.41157  Biso   1.000  C
  C18      1.0000 0.21633  0.89637  0.06157  Biso   1.000  C
  Ni7      1.0000 0.72360  0.69654  0.71921  Biso   1.000  Ni
  P7       1.0000 0.75693  0.70598  0.23750  Biso   1.000  P
  O19      1.0000 0.80996  0.75933  0.18310  Biso   1.000  O
  O20      1.0000 0.72184  0.67606  0.04960  Biso   1.000  O
  N7       1.0000 0.78634  0.67509  0.62300  Biso   1.000  N
  C19      1.0000 0.84170  0.72190  0.64500  Biso   1.000  C
  O21      1.0000 0.71986  0.71724  0.39790  Biso   1.000  O
  C20      1.0000 0.77987  0.62257  0.74490  Biso   1.000  C
  C21      1.0000 0.77030  0.65330  0.39490  Biso   1.000  C
  Ni8      1.0000 0.39027  0.02987  0.05254  Biso   1.000  Ni
  P8       1.0000 0.42360  0.03931  0.57083  Biso   1.000  P
  O22      1.0000 0.47663  0.09266  0.51643  Biso   1.000  O
  O23      1.0000 0.38851  0.00939  0.38293  Biso   1.000  O
  N8       1.0000 0.45301  0.00842  0.95633  Biso   1.000  N
  C22      1.0000 0.50837  0.05523  0.97833  Biso   1.000  C
  O24      1.0000 0.38653  0.05057  0.73123  Biso   1.000  O
  C23      1.0000 0.44654  0.95590  0.07823  Biso   1.000  C
  C24      1.0000 0.43697  0.98663  0.72823  Biso   1.000  C
  Ni9      1.0000 0.05693  0.36321  0.38588  Biso   1.000  Ni
  P9       1.0000 0.09026  0.37265  0.90417  Biso   1.000  P
  O25      1.0000 0.14329  0.42600  0.84977  Biso   1.000  O
  O26      1.0000 0.05517  0.34273  0.71627  Biso   1.000  O
  N9       1.0000 0.11967  0.34176  0.28967  Biso   1.000  N
  C25      1.0000 0.17503  0.38857  0.31167  Biso   1.000  C
  O27      1.0000 0.05319  0.38391  0.06457  Biso   1.000  O
  C26      1.0000 0.11320  0.28924  0.41157  Biso   1.000  C
  C27      1.0000 0.10363  0.31997  0.06157  Biso   1.000  C
  Ni10     1.0000 0.69654  0.97294  0.28079  Biso   1.000  Ni
  P10      1.0000 0.70598  0.94905  0.76250  Biso   1.000  P
  O28      1.0000 0.75933  0.94937  0.81690  Biso   1.000  O
  O29      1.0000 0.67606  0.95422  0.95040  Biso   1.000  O
  N10      1.0000 0.67509  0.88875  0.37700  Biso   1.000  N
  C28      1.0000 0.72190  0.88020  0.35500  Biso   1.000  C
  O30      1.0000 0.71724  0.99738  0.60210  Biso   1.000  O
  C29      1.0000 0.62257  0.84270  0.25510  Biso   1.000  C
  C30      1.0000 0.65330  0.88300  0.60510  Biso   1.000  C
  Ni11     1.0000 0.36321  0.30627  0.61412  Biso   1.000  Ni
  P11      1.0000 0.37265  0.28238  0.09583  Biso   1.000  P
  O31      1.0000 0.42600  0.28270  0.15023  Biso   1.000  O
  O32      1.0000 0.34273  0.28755  0.28373  Biso   1.000  O
  N11      1.0000 0.34176  0.22208  0.71033  Biso   1.000  N
  C31      1.0000 0.38857  0.21353  0.68833  Biso   1.000  C
  O33      1.0000 0.38391  0.33071  0.93543  Biso   1.000  O
  C32      1.0000 0.28924  0.17603  0.58843  Biso   1.000  C
  C33      1.0000 0.31997  0.21633  0.93843  Biso   1.000  C
  Ni12     1.0000 0.02987  0.63961  0.94746  Biso   1.000  Ni
  P12      1.0000 0.03931  0.61572  0.42917  Biso   1.000  P
  O34      1.0000 0.09266  0.61604  0.48357  Biso   1.000  O
  O35      1.0000 0.00939  0.62089  0.61707  Biso   1.000  O
  N12      1.0000 0.00842  0.55542  0.04367  Biso   1.000  N
  C34      1.0000 0.05523  0.54687  0.02167  Biso   1.000  C
  O36      1.0000 0.05057  0.66405  0.26877  Biso   1.000  O
  C35      1.0000 0.95590  0.50937  0.92177  Biso   1.000  C
  C36      1.0000 0.98663  0.54967  0.27177  Biso   1.000  C
  Ni13     1.0000 0.02706  0.72360  0.28079  Biso   1.000  Ni
  P13      1.0000 0.05095  0.75693  0.76250  Biso   1.000  P
  O37      1.0000 0.05063  0.80996  0.81690  Biso   1.000  O
  O38      1.0000 0.04578  0.72184  0.95040  Biso   1.000  O
  N13      1.0000 0.11125  0.78634  0.37700  Biso   1.000  N
  C37      1.0000 0.11980  0.84170  0.35500  Biso   1.000  C
  O39      1.0000 0.00262  0.71986  0.60210  Biso   1.000  O
  C38      1.0000 0.15730  0.77987  0.25510  Biso   1.000  C
  C39      1.0000 0.11700  0.77030  0.60510  Biso   1.000  C
  Ni14     1.0000 0.69373  0.05693  0.61412  Biso   1.000  Ni
  P14      1.0000 0.71762  0.09026  0.09583  Biso   1.000  P
  O40      1.0000 0.71730  0.14329  0.15023  Biso   1.000  O
  O41      1.0000 0.71245  0.05517  0.28373  Biso   1.000  O
  N14      1.0000 0.77792  0.11967  0.71033  Biso   1.000  N
  C40      1.0000 0.78647  0.17503  0.68833  Biso   1.000  C
  O42      1.0000 0.66929  0.05319  0.93543  Biso   1.000  O
  C41      1.0000 0.82397  0.11320  0.58843  Biso   1.000  C
  C42      1.0000 0.78367  0.10363  0.93843  Biso   1.000  C
  Ni15     1.0000 0.36039  0.39027  0.94746  Biso   1.000  Ni
  P15      1.0000 0.38428  0.42360  0.42917  Biso   1.000  P
  O43      1.0000 0.38396  0.47663  0.48357  Biso   1.000  O
  O44      1.0000 0.37911  0.38851  0.61707  Biso   1.000  O
  N15      1.0000 0.44458  0.45301  0.04367  Biso   1.000  N
  C43      1.0000 0.45313  0.50837  0.02167  Biso   1.000  C
  O45      1.0000 0.33595  0.38653  0.26877  Biso   1.000  O
  C44      1.0000 0.49063  0.44654  0.92177  Biso   1.000  C
  C45      1.0000 0.45033  0.43697  0.27177  Biso   1.000  C
  Ni16     1.0000 0.27640  0.30346  0.28079  Biso   1.000  Ni
  P16      1.0000 0.24307  0.29402  0.76250  Biso   1.000  P
  O46      1.0000 0.19004  0.24067  0.81690  Biso   1.000  O
  O47      1.0000 0.27816  0.32394  0.95040  Biso   1.000  O
  N16      1.0000 0.21366  0.32491  0.37700  Biso   1.000  N
  C46      1.0000 0.15830  0.27810  0.35500  Biso   1.000  C
  O48      1.0000 0.28014  0.28276  0.60210  Biso   1.000  O
  C47      1.0000 0.22013  0.37743  0.25510  Biso   1.000  C
  C48      1.0000 0.22970  0.34670  0.60510  Biso   1.000  C
  Ni17     1.0000 0.94307  0.63679  0.61412  Biso   1.000  Ni
  P17      1.0000 0.90974  0.62735  0.09583  Biso   1.000  P
  O49      1.0000 0.85671  0.57400  0.15023  Biso   1.000  O
  O50      1.0000 0.94483  0.65727  0.28373  Biso   1.000  O
  N17      1.0000 0.88033  0.65824  0.71033  Biso   1.000  N
  C49      1.0000 0.82497  0.61143  0.68833  Biso   1.000  C
  O51      1.0000 0.94681  0.61609  0.93543  Biso   1.000  O
  C50      1.0000 0.88680  0.71076  0.58843  Biso   1.000  C
  C51      1.0000 0.89637  0.68003  0.93843  Biso   1.000  C
  Ni18     1.0000 0.60973  0.97013  0.94746  Biso   1.000  Ni
  P18      1.0000 0.57640  0.96069  0.42917  Biso   1.000  P
  O52      1.0000 0.52337  0.90734  0.48357  Biso   1.000  O
  O53      1.0000 0.61149  0.99061  0.61707  Biso   1.000  O
  N18      1.0000 0.54699  0.99158  0.04367  Biso   1.000  N
  C52      1.0000 0.49163  0.94477  0.02167  Biso   1.000  C
  O54      1.0000 0.61347  0.94943  0.26877  Biso   1.000  O
  C53      1.0000 0.55346  0.04410  0.92177  Biso   1.000  C
  C54      1.0000 0.56303  0.01337  0.27177  Biso   1.000  C
