data_image0
_cell_length_a       27.9144
_cell_length_b       27.9144
_cell_length_c       6.1655
_cell_angle_alpha    90
_cell_angle_beta     90
_cell_angle_gamma    120

_symmetry_space_group_name_H-M    "P 1"
_symmetry_int_tables_number       1

loop_
  _symmetry_equiv_pos_as_xyz
  'x, y, z'

loop_
  _atom_site_label
  _atom_site_occupancy
  _atom_site_fract_x
  _atom_site_fract_y
  _atom_site_fract_z
  _atom_site_thermal_displace_type
  _atom_site_B_iso_or_equiv
  _atom_site_type_symbol
  Ni1      1.0000 0.30485  0.02863  0.71916  Biso   1.000  Ni
  P1       1.0000 0.42397  0.03900  0.57000  Biso   1.000  P
  O1       1.0000 0.47878  0.09348  0.50180  Biso   1.000  O
  O2       1.0000 0.38754  0.05301  0.73390  Biso   1.000  O
  O3       1.0000 0.39005  0.01154  0.37460  Biso   1.000  O
  N1       1.0000 0.45490  0.00740  0.94650  Biso   1.000  N
  C1       1.0000 0.44640  0.95810  0.09730  Biso   1.000  C
  C2       1.0000 0.51090  0.05620  0.98480  Biso   1.000  C
  C3       1.0000 0.43750  0.98440  0.71610  Biso   1.000  C
  Ni2      1.0000 0.97152  0.36196  0.05249  Biso   1.000  Ni
  P2       1.0000 0.09064  0.37233  0.90333  Biso   1.000  P
  O4       1.0000 0.14545  0.42681  0.83513  Biso   1.000  O
  O5       1.0000 0.05421  0.38634  0.06723  Biso   1.000  O
  O6       1.0000 0.05672  0.34487  0.70793  Biso   1.000  O
  N2       1.0000 0.12157  0.34073  0.27983  Biso   1.000  N
  C4       1.0000 0.11307  0.29143  0.43063  Biso   1.000  C
  C5       1.0000 0.17757  0.38953  0.31813  Biso   1.000  C
  C6       1.0000 0.10417  0.31773  0.04943  Biso   1.000  C
  Ni3      1.0000 0.63818  0.69530  0.38583  Biso   1.000  Ni
  P3       1.0000 0.75730  0.70567  0.23667  Biso   1.000  P
  O7       1.0000 0.81211  0.76015  0.16847  Biso   1.000  O
  O8       1.0000 0.72087  0.71968  0.40057  Biso   1.000  O
  O9       1.0000 0.72338  0.67821  0.04127  Biso   1.000  O
  N3       1.0000 0.78823  0.67407  0.61317  Biso   1.000  N
  C7       1.0000 0.77973  0.62477  0.76397  Biso   1.000  C
  C8       1.0000 0.84423  0.72287  0.65147  Biso   1.000  C
  C9       1.0000 0.77083  0.65107  0.38277  Biso   1.000  C
  Ni4      1.0000 0.97137  0.27622  0.71916  Biso   1.000  Ni
  P4       1.0000 0.96100  0.38497  0.57000  Biso   1.000  P
  O10      1.0000 0.90652  0.38530  0.50180  Biso   1.000  O
  O11      1.0000 0.94699  0.33453  0.73390  Biso   1.000  O
  O12      1.0000 0.98846  0.37851  0.37460  Biso   1.000  O
  N4       1.0000 0.99260  0.44750  0.94650  Biso   1.000  N
  C10      1.0000 0.04190  0.48830  0.09730  Biso   1.000  C
  C11      1.0000 0.94380  0.45470  0.98480  Biso   1.000  C
  C12      1.0000 0.01560  0.45310  0.71610  Biso   1.000  C
  Ni5      1.0000 0.63804  0.60955  0.05249  Biso   1.000  Ni
  P5       1.0000 0.62767  0.71830  0.90333  Biso   1.000  P
  O13      1.0000 0.57319  0.71863  0.83513  Biso   1.000  O
  O14      1.0000 0.61366  0.66786  0.06723  Biso   1.000  O
  O15      1.0000 0.65513  0.71184  0.70793  Biso   1.000  O
  N5       1.0000 0.65927  0.78083  0.27983  Biso   1.000  N
  C13      1.0000 0.70857  0.82163  0.43063  Biso   1.000  C
  C14      1.0000 0.61047  0.78803  0.31813  Biso   1.000  C
  C15      1.0000 0.68227  0.78643  0.04943  Biso   1.000  C
  Ni6      1.0000 0.30470  0.94289  0.38583  Biso   1.000  Ni
  P6       1.0000 0.29433  0.05164  0.23667  Biso   1.000  P
  O16      1.0000 0.23985  0.05197  0.16847  Biso   1.000  O
  O17      1.0000 0.28032  0.00120  0.40057  Biso   1.000  O
  O18      1.0000 0.32179  0.04518  0.04127  Biso   1.000  O
  N6       1.0000 0.32593  0.11417  0.61317  Biso   1.000  N
  C16      1.0000 0.37523  0.15497  0.76397  Biso   1.000  C
  C17      1.0000 0.27713  0.12137  0.65147  Biso   1.000  C
  C18      1.0000 0.34893  0.11977  0.38277  Biso   1.000  C
  Ni7      1.0000 0.72378  0.69515  0.71916  Biso   1.000  Ni
  P7       1.0000 0.61503  0.57603  0.57000  Biso   1.000  P
  O19      1.0000 0.61470  0.52122  0.50180  Biso   1.000  O
  O20      1.0000 0.66547  0.61246  0.73390  Biso   1.000  O
  O21      1.0000 0.62149  0.60995  0.37460  Biso   1.000  O
  N7       1.0000 0.55250  0.54510  0.94650  Biso   1.000  N
  C19      1.0000 0.51170  0.55360  0.09730  Biso   1.000  C
  C20      1.0000 0.54530  0.48910  0.98480  Biso   1.000  C
  C21      1.0000 0.54690  0.56250  0.71610  Biso   1.000  C
  Ni8      1.0000 0.39045  0.02848  0.05249  Biso   1.000  Ni
  P8       1.0000 0.28170  0.90936  0.90333  Biso   1.000  P
  O22      1.0000 0.28137  0.85455  0.83513  Biso   1.000  O
  O23      1.0000 0.33214  0.94579  0.06723  Biso   1.000  O
  O24      1.0000 0.28816  0.94328  0.70793  Biso   1.000  O
  N8       1.0000 0.21917  0.87843  0.27983  Biso   1.000  N
  C22      1.0000 0.17837  0.88693  0.43063  Biso   1.000  C
  C23      1.0000 0.21197  0.82243  0.31813  Biso   1.000  C
  C24      1.0000 0.21357  0.89583  0.04943  Biso   1.000  C
  Ni9      1.0000 0.05711  0.36182  0.38583  Biso   1.000  Ni
  P9       1.0000 0.94836  0.24270  0.23667  Biso   1.000  P
  O25      1.0000 0.94803  0.18789  0.16847  Biso   1.000  O
  O26      1.0000 0.99880  0.27913  0.40057  Biso   1.000  O
  O27      1.0000 0.95482  0.27662  0.04127  Biso   1.000  O
  N9       1.0000 0.88583  0.21177  0.61317  Biso   1.000  N
  C25      1.0000 0.84503  0.22027  0.76397  Biso   1.000  C
  C26      1.0000 0.87863  0.15577  0.65147  Biso   1.000  C
  C27      1.0000 0.88023  0.22917  0.38277  Biso   1.000  C
  Ni10     1.0000 0.69515  0.97137  0.28084  Biso   1.000  Ni
  P10      1.0000 0.57603  0.96100  0.43000  Biso   1.000  P
  O28      1.0000 0.52122  0.90652  0.49820  Biso   1.000  O
  O29      1.0000 0.61246  0.94699  0.26610  Biso   1.000  O
  O30      1.0000 0.60995  0.98846  0.62540  Biso   1.000  O
  N10      1.0000 0.54510  0.99260  0.05350  Biso   1.000  N
  C28      1.0000 0.55360  0.04190  0.90270  Biso   1.000  C
  C29      1.0000 0.48910  0.94380  0.01520  Biso   1.000  C
  C30      1.0000 0.56250  0.01560  0.28390  Biso   1.000  C
  Ni11     1.0000 0.36182  0.30470  0.61417  Biso   1.000  Ni
  P11      1.0000 0.24270  0.29433  0.76333  Biso   1.000  P
  O31      1.0000 0.18789  0.23985  0.83153  Biso   1.000  O
  O32      1.0000 0.27913  0.28032  0.59943  Biso   1.000  O
  O33      1.0000 0.27662  0.32179  0.95873  Biso   1.000  O
  N11      1.0000 0.21177  0.32593  0.38683  Biso   1.000  N
  C31      1.0000 0.22027  0.37523  0.23603  Biso   1.000  C
  C32      1.0000 0.15577  0.27713  0.34853  Biso   1.000  C
  C33      1.0000 0.22917  0.34893  0.61723  Biso   1.000  C
  Ni12     1.0000 0.02848  0.63804  0.94751  Biso   1.000  Ni
  P12      1.0000 0.90936  0.62767  0.09667  Biso   1.000  P
  O34      1.0000 0.85455  0.57319  0.16487  Biso   1.000  O
  O35      1.0000 0.94579  0.61366  0.93277  Biso   1.000  O
  O36      1.0000 0.94328  0.65513  0.29207  Biso   1.000  O
  N12      1.0000 0.87843  0.65927  0.72017  Biso   1.000  N
  C34      1.0000 0.88693  0.70857  0.56937  Biso   1.000  C
  C35      1.0000 0.82243  0.61047  0.68187  Biso   1.000  C
  C36      1.0000 0.89583  0.68227  0.95057  Biso   1.000  C
  Ni13     1.0000 0.02863  0.72378  0.28084  Biso   1.000  Ni
  P13      1.0000 0.03900  0.61503  0.43000  Biso   1.000  P
  O37      1.0000 0.09348  0.61470  0.49820  Biso   1.000  O
  O38      1.0000 0.05301  0.66547  0.26610  Biso   1.000  O
  O39      1.0000 0.01154  0.62149  0.62540  Biso   1.000  O
  N13      1.0000 0.00740  0.55250  0.05350  Biso   1.000  N
  C37      1.0000 0.95810  0.51170  0.90270  Biso   1.000  C
  C38      1.0000 0.05620  0.54530  0.01520  Biso   1.000  C
  C39      1.0000 0.98440  0.54690  0.28390  Biso   1.000  C
  Ni14     1.0000 0.69530  0.05711  0.61417  Biso   1.000  Ni
  P14      1.0000 0.70567  0.94836  0.76333  Biso   1.000  P
  O40      1.0000 0.76015  0.94803  0.83153  Biso   1.000  O
  O41      1.0000 0.71968  0.99880  0.59943  Biso   1.000  O
  O42      1.0000 0.67821  0.95482  0.95873  Biso   1.000  O
  N14      1.0000 0.67407  0.88583  0.38683  Biso   1.000  N
  C40      1.0000 0.62477  0.84503  0.23603  Biso   1.000  C
  C41      1.0000 0.72287  0.87863  0.34853  Biso   1.000  C
  C42      1.0000 0.65107  0.88023  0.61723  Biso   1.000  C
  Ni15     1.0000 0.36196  0.39045  0.94751  Biso   1.000  Ni
  P15      1.0000 0.37233  0.28170  0.09667  Biso   1.000  P
  O43      1.0000 0.42681  0.28137  0.16487  Biso   1.000  O
  O44      1.0000 0.38634  0.33214  0.93277  Biso   1.000  O
  O45      1.0000 0.34487  0.28816  0.29207  Biso   1.000  O
  N15      1.0000 0.34073  0.21917  0.72017  Biso   1.000  N
  C43      1.0000 0.29143  0.17837  0.56937  Biso   1.000  C
  C44      1.0000 0.38953  0.21197  0.68187  Biso   1.000  C
  C45      1.0000 0.31773  0.21357  0.95057  Biso   1.000  C
  Ni16     1.0000 0.27622  0.30485  0.28084  Biso   1.000  Ni
  P16      1.0000 0.38497  0.42397  0.43000  Biso   1.000  P
  O46      1.0000 0.38530  0.47878  0.49820  Biso   1.000  O
  O47      1.0000 0.33453  0.38754  0.26610  Biso   1.000  O
  O48      1.0000 0.37851  0.39005  0.62540  Biso   1.000  O
  N16      1.0000 0.44750  0.45490  0.05350  Biso   1.000  N
  C46      1.0000 0.48830  0.44640  0.90270  Biso   1.000  C
  C47      1.0000 0.45470  0.51090  0.01520  Biso   1.000  C
  C48      1.0000 0.45310  0.43750  0.28390  Biso   1.000  C
  Ni17     1.0000 0.94289  0.63818  0.61417  Biso   1.000  Ni
  P17      1.0000 0.05164  0.75730  0.76333  Biso   1.000  P
  O49      1.0000 0.05197  0.81211  0.83153  Biso   1.000  O
  O50      1.0000 0.00120  0.72087  0.59943  Biso   1.000  O
  O51      1.0000 0.04518  0.72338  0.95873  Biso   1.000  O
  N17      1.0000 0.11417  0.78823  0.38683  Biso   1.000  N
  C49      1.0000 0.15497  0.77973  0.23603  Biso   1.000  C
  C50      1.0000 0.12137  0.84423  0.34853  Biso   1.000  C
  C51      1.0000 0.11977  0.77083  0.61723  Biso   1.000  C
  Ni18     1.0000 0.60955  0.97152  0.94751  Biso   1.000  Ni
  P18      1.0000 0.71830  0.09064  0.09667  Biso   1.000  P
  O52      1.0000 0.71863  0.14545  0.16487  Biso   1.000  O
  O53      1.0000 0.66786  0.05421  0.93277  Biso   1.000  O
  O54      1.0000 0.71184  0.05672  0.29207  Biso   1.000  O
  N18      1.0000 0.78083  0.12157  0.72017  Biso   1.000  N
  C52      1.0000 0.82163  0.11307  0.56937  Biso   1.000  C
  C53      1.0000 0.78803  0.17757  0.68187  Biso   1.000  C
  C54      1.0000 0.78643  0.10417  0.95057  Biso   1.000  C
