data_QOVGOY_clean
_audit_creation_date              2014-07-02
_audit_creation_method            'Materials Studio'
_symmetry_space_group_name_H-M    'P1'
_symmetry_Int_Tables_number       1
_symmetry_cell_setting            triclinic
loop_
_symmetry_equiv_pos_as_xyz
  x,y,z
_cell_length_a                    10.7435
_cell_length_b                    10.7435
_cell_length_c                    10.7435
_cell_angle_alpha                 103.5640
_cell_angle_beta                  112.5030
_cell_angle_gamma                 112.5030
loop_
_atom_site_label
_atom_site_type_symbol
_atom_site_fract_x
_atom_site_fract_y
_atom_site_fract_z
_atom_site_U_iso_or_equiv
_atom_site_adp_type
_atom_site_occupancy
Mn1    Mn    0.10956   0.30316   0.80640   0.01267  Uiso   1.00
Mn2    Mn    0.89044   0.69684   0.19360   0.01267  Uiso   1.00
Mn3    Mn    0.50324   0.80640   0.69684   0.01267  Uiso   1.00
Mn4    Mn    0.49676   0.19360   0.30316   0.01267  Uiso   1.00
Mo1    Mo    0.00000   0.24813   0.24813   0.01267  Uiso   1.00
Mo2    Mo    0.00000   0.75187   0.75187   0.01267  Uiso   1.00
C1     C     0.05306   0.25890   0.46776   0.01267  Uiso   1.00
C2     C     0.09612   0.30341   0.11115   0.01267  Uiso   1.00
C3     C     0.94694   0.41470   0.20584   0.01267  Uiso   1.00
C4     C     0.90388   0.01503   0.20729   0.01267  Uiso   1.00
C5     C     0.20886   0.46776   0.41470   0.01267  Uiso   1.00
C6     C     0.80774   0.11115   0.01503   0.01267  Uiso   1.00
C7     C     0.79114   0.20584   0.25890   0.01267  Uiso   1.00
C8     C     0.19226   0.20729   0.30341   0.01267  Uiso   1.00
C9     C     0.94694   0.74110   0.53224   0.01267  Uiso   1.00
C10    C     0.90388   0.69659   0.88885   0.01267  Uiso   1.00
C11    C     0.05306   0.58530   0.79416   0.01267  Uiso   1.00
C12    C     0.09612   0.98497   0.79271   0.01267  Uiso   1.00
C13    C     0.79114   0.53224   0.58530   0.01267  Uiso   1.00
C14    C     0.19226   0.88885   0.98497   0.01267  Uiso   1.00
C15    C     0.20886   0.79416   0.74110   0.01267  Uiso   1.00
C16    C     0.80774   0.79271   0.69659   0.01267  Uiso   1.00
N1     N     0.07376   0.25711   0.57993   0.01267  Uiso   1.00
N2     N     0.13946   0.33293   0.03319   0.01267  Uiso   1.00
N3     N     0.92624   0.50617   0.18335   0.01267  Uiso   1.00
N4     N     0.86054   0.89373   0.19347   0.01267  Uiso   1.00
N5     N     0.32282   0.57993   0.50617   0.01267  Uiso   1.00
N6     N     0.70026   0.03319   0.89373   0.01267  Uiso   1.00
N7     N     0.67718   0.18335   0.25711   0.01267  Uiso   1.00
N8     N     0.29974   0.19347   0.33293   0.01267  Uiso   1.00
N9     N     0.92624   0.74289   0.42007   0.01267  Uiso   1.00
N10    N     0.86054   0.66707   0.96681   0.01267  Uiso   1.00
N11    N     0.07376   0.49383   0.81665   0.01267  Uiso   1.00
N12    N     0.13946   0.10627   0.80653   0.01267  Uiso   1.00
N13    N     0.67718   0.42007   0.49383   0.01267  Uiso   1.00
N14    N     0.29974   0.96681   0.10627   0.01267  Uiso   1.00
N15    N     0.32282   0.81665   0.74289   0.01267  Uiso   1.00
N16    N     0.70026   0.80653   0.66707   0.01267  Uiso   1.00
