data_QOVGOY01_clean
_audit_creation_date              2014-07-02
_audit_creation_method            'Materials Studio'
_symmetry_space_group_name_H-M    'P1'
_symmetry_Int_Tables_number       1
_symmetry_cell_setting            triclinic
loop_
_symmetry_equiv_pos_as_xyz
  x,y,z
_cell_length_a                    10.7220
_cell_length_b                    10.7220
_cell_length_c                    10.7220
_cell_angle_alpha                 67.5085
_cell_angle_beta                  76.4138
_cell_angle_gamma                 112.4910
loop_
_atom_site_label
_atom_site_type_symbol
_atom_site_fract_x
_atom_site_fract_y
_atom_site_fract_z
_atom_site_U_iso_or_equiv
_atom_site_adp_type
_atom_site_occupancy
Mn1    Mn    0.69413   0.89115   0.80298   0.01267  Uiso   1.00
Mn2    Mn    0.30587   0.10885   0.19702   0.01267  Uiso   1.00
Mn3    Mn    0.80298   0.49711   0.30587   0.01267  Uiso   1.00
Mn4    Mn    0.19702   0.50289   0.69413   0.01267  Uiso   1.00
Mo1    Mo    0.74830   0.00000   0.25170   0.01267  Uiso   1.00
Mo2    Mo    0.25170   0.00000   0.74830   0.01267  Uiso   1.00
C1     C     0.70600   0.94640   0.08600   0.01267  Uiso   1.00
C2     C     0.61080   0.09450   0.19690   0.01267  Uiso   1.00
C3     C     0.96760   0.05360   0.24040   0.01267  Uiso   1.00
C4     C     0.70860   0.90550   0.48370   0.01267  Uiso   1.00
C5     C     0.75960   0.79200   0.29400   0.01267  Uiso   1.00
C6     C     0.51630   0.80770   0.38920   0.01267  Uiso   1.00
C7     C     0.91400   0.20800   0.03240   0.01267  Uiso   1.00
C8     C     0.80310   0.19230   0.29140   0.01267  Uiso   1.00
C9     C     0.29400   0.05360   0.91400   0.01267  Uiso   1.00
C10    C     0.38920   0.90550   0.80310   0.01267  Uiso   1.00
C11    C     0.03240   0.94640   0.75960   0.01267  Uiso   1.00
C12    C     0.29140   0.09450   0.51630   0.01267  Uiso   1.00
C13    C     0.24040   0.20800   0.70600   0.01267  Uiso   1.00
C14    C     0.48370   0.19230   0.61080   0.01267  Uiso   1.00
C15    C     0.08600   0.79200   0.96760   0.01267  Uiso   1.00
C16    C     0.19690   0.80770   0.70860   0.01267  Uiso   1.00
N1     N     0.68350   0.92530   0.99440   0.01267  Uiso   1.00
N2     N     0.53150   0.13720   0.16710   0.01267  Uiso   1.00
N3     N     0.08030   0.07470   0.24180   0.01267  Uiso   1.00
N4     N     0.69570   0.86280   0.60570   0.01267  Uiso   1.00
N5     N     0.75820   0.67790   0.31650   0.01267  Uiso   1.00
N6     N     0.39430   0.69860   0.46850   0.01267  Uiso   1.00
N7     N     0.00560   0.32210   0.91970   0.01267  Uiso   1.00
N8     N     0.83290   0.30140   0.30430   0.01267  Uiso   1.00
N9     N     0.31650   0.07470   0.00560   0.01267  Uiso   1.00
N10    N     0.46850   0.86280   0.83290   0.01267  Uiso   1.00
N11    N     0.91970   0.92530   0.75820   0.01267  Uiso   1.00
N12    N     0.30430   0.13720   0.39430   0.01267  Uiso   1.00
N13    N     0.24180   0.32210   0.68350   0.01267  Uiso   1.00
N14    N     0.60570   0.30140   0.53150   0.01267  Uiso   1.00
N15    N     0.99440   0.67790   0.08030   0.01267  Uiso   1.00
N16    N     0.16710   0.69860   0.69570   0.01267  Uiso   1.00
