data_QOVSOL_clean
_audit_creation_date              2015-10-16
_audit_creation_method            'Materials Studio'
_symmetry_space_group_name_H-M    'P1'
_symmetry_Int_Tables_number       1
_symmetry_cell_setting            triclinic
loop_
_symmetry_equiv_pos_as_xyz
  x,y,z
_cell_length_a                    11.3280
_cell_length_b                    13.6240
_cell_length_c                    24.9510
_cell_angle_alpha                 90.0000
_cell_angle_beta                  90.0000
_cell_angle_gamma                 114.0730
loop_
_atom_site_label
_atom_site_type_symbol
_atom_site_fract_x
_atom_site_fract_y
_atom_site_fract_z
_atom_site_U_iso_or_equiv
_atom_site_adp_type
_atom_site_occupancy
Cd1    Cd    0.35246   0.17473   0.84023   0.01267  Uiso   1.00
Cd2    Cd    0.85246   0.67473   0.65977   0.01267  Uiso   1.00
Cd3    Cd    0.64754   0.82527   0.15977   0.01267  Uiso   1.00
Cd4    Cd    0.14754   0.32527   0.34023   0.01267  Uiso   1.00
H1     H     0.18250   0.79150   0.69730   0.01267  Uiso   1.00
H2     H     0.43870   0.61470   0.84820   0.01267  Uiso   1.00
H3     H     0.36630   0.87670   0.84520   0.01267  Uiso   1.00
H4     H     0.39600   0.43250   0.06010   0.01267  Uiso   1.00
H5     H     0.04820   0.15840   0.22960   0.01267  Uiso   1.00
H6     H     0.13370   0.62330   0.34520   0.01267  Uiso   1.00
H7     H     0.99080   0.93600   0.62560   0.01267  Uiso   1.00
H8     H     0.89000   0.41940   0.20330   0.01267  Uiso   1.00
H9     H     0.66170   0.02530   0.32400   0.01267  Uiso   1.00
H10    H     0.89490   0.04210   0.08810   0.01267  Uiso   1.00
H11    H     0.37520   0.16700   0.67570   0.01267  Uiso   1.00
H12    H     0.83030   0.21250   0.61980   0.01267  Uiso   1.00
H13    H     0.16970   0.78750   0.38020   0.01267  Uiso   1.00
H14    H     0.86630   0.37670   0.65480   0.01267  Uiso   1.00
H15    H     0.80600   0.82720   0.04090   0.01267  Uiso   1.00
H16    H     0.60510   0.45790   0.58810   0.01267  Uiso   1.00
H17    H     0.07660   0.17500   0.72250   0.01267  Uiso   1.00
H18    H     0.53250   0.31290   0.03130   0.01267  Uiso   1.00
H19    H     0.70010   0.97240   0.66470   0.01267  Uiso   1.00
H20    H     0.56250   0.24360   0.94480   0.01267  Uiso   1.00
H21    H     0.43750   0.75640   0.05520   0.01267  Uiso   1.00
H22    H     0.49080   0.43600   0.87440   0.01267  Uiso   1.00
H23    H     0.62480   0.83300   0.32430   0.01267  Uiso   1.00
H24    H     0.54820   0.65840   0.27040   0.01267  Uiso   1.00
H25    H     0.13450   0.12470   0.06300   0.01267  Uiso   1.00
H26    H     0.39490   0.54210   0.41190   0.01267  Uiso   1.00
H27    H     0.06250   0.74360   0.55520   0.01267  Uiso   1.00
H28    H     0.20010   0.47240   0.83530   0.01267  Uiso   1.00
H29    H     0.79990   0.52760   0.16470   0.01267  Uiso   1.00
H30    H     0.64290   0.50940   0.74210   0.01267  Uiso   1.00
H31    H     0.92340   0.82500   0.27750   0.01267  Uiso   1.00
H32    H     0.11000   0.58060   0.79670   0.01267  Uiso   1.00
H33    H     0.19400   0.17280   0.95910   0.01267  Uiso   1.00
H34    H     0.10400   0.06750   0.56010   0.01267  Uiso   1.00
H35    H     0.30600   0.32720   0.45910   0.01267  Uiso   1.00
H36    H     0.63450   0.62470   0.43700   0.01267  Uiso   1.00
H37    H     0.60400   0.56750   0.93990   0.01267  Uiso   1.00
H38    H     0.39000   0.91940   0.29670   0.01267  Uiso   1.00
H39    H     0.89600   0.93250   0.43990   0.01267  Uiso   1.00
H40    H     0.00920   0.06400   0.37440   0.01267  Uiso   1.00
H41    H     0.93750   0.25640   0.44480   0.01267  Uiso   1.00
H42    H     0.33030   0.71250   0.88020   0.01267  Uiso   1.00
H43    H     0.46750   0.68710   0.96870   0.01267  Uiso   1.00
H44    H     0.10510   0.95790   0.91190   0.01267  Uiso   1.00
H45    H     0.56130   0.38530   0.15180   0.01267  Uiso   1.00
H46    H     0.14290   0.00940   0.75790   0.01267  Uiso   1.00
H47    H     0.42340   0.32500   0.22250   0.01267  Uiso   1.00
H48    H     0.16170   0.52530   0.17600   0.01267  Uiso   1.00
H49    H     0.35710   0.49060   0.25790   0.01267  Uiso   1.00
H50    H     0.57660   0.67500   0.77750   0.01267  Uiso   1.00
H51    H     0.03250   0.81290   0.46870   0.01267  Uiso   1.00
H52    H     0.12480   0.33300   0.17570   0.01267  Uiso   1.00
H53    H     0.33830   0.97470   0.67600   0.01267  Uiso   1.00
H54    H     0.45180   0.34160   0.72960   0.01267  Uiso   1.00
H55    H     0.36550   0.37530   0.56300   0.01267  Uiso   1.00
H56    H     0.81750   0.20850   0.30270   0.01267  Uiso   1.00
H57    H     0.96750   0.18710   0.53130   0.01267  Uiso   1.00
H58    H     0.31750   0.70850   0.19730   0.01267  Uiso   1.00
H59    H     0.66970   0.28750   0.11980   0.01267  Uiso   1.00
H60    H     0.87520   0.66700   0.82430   0.01267  Uiso   1.00
H61    H     0.06130   0.88530   0.34820   0.01267  Uiso   1.00
H62    H     0.69400   0.67280   0.54090   0.01267  Uiso   1.00
H63    H     0.85710   0.99060   0.24210   0.01267  Uiso   1.00
H64    H     0.50920   0.56400   0.12560   0.01267  Uiso   1.00
H65    H     0.95180   0.84160   0.77040   0.01267  Uiso   1.00
H66    H     0.63370   0.12330   0.15480   0.01267  Uiso   1.00
H67    H     0.93870   0.11470   0.65180   0.01267  Uiso   1.00
H68    H     0.68250   0.29150   0.80270   0.01267  Uiso   1.00
H69    H     0.83830   0.47470   0.82400   0.01267  Uiso   1.00
H70    H     0.86550   0.87530   0.93700   0.01267  Uiso   1.00
H71    H     0.61000   0.08060   0.70330   0.01267  Uiso   1.00
H72    H     0.29990   0.02760   0.33530   0.01267  Uiso   1.00
C1     C     0.82540   0.87830   0.42387   0.01267  Uiso   1.00
C2     C     0.61110   0.47730   0.70920   0.01267  Uiso   1.00
C3     C     0.96830   0.77630   0.49360   0.01267  Uiso   1.00
C4     C     0.77510   0.77470   0.44461   0.01267  Uiso   1.00
C5     C     0.22490   0.22530   0.55539   0.01267  Uiso   1.00
C6     C     0.29120   0.20690   0.30720   0.01267  Uiso   1.00
C7     C     0.90910   0.33720   0.66910   0.01267  Uiso   1.00
C8     C     0.11190   0.21770   0.12253   0.01267  Uiso   1.00
C9     C     0.97960   0.51790   0.26415   0.01267  Uiso   1.00
C10    C     0.16810   0.19350   0.07762   0.01267  Uiso   1.00
C11    C     0.83670   0.15610   0.31980   0.01267  Uiso   1.00
C12    C     0.13730   0.35370   0.78130   0.01267  Uiso   1.00
C13    C     0.90860   0.05000   0.12489   0.01267  Uiso   1.00
C14    C     0.11160   0.76040   0.35200   0.01267  Uiso   1.00
C15    C     0.00500   0.88460   0.79720   0.01267  Uiso   1.00
C16    C     0.24970   0.55490   0.16830   0.01267  Uiso   1.00
C17    C     0.34800   0.05020   0.30400   0.01267  Uiso   1.00
C18    C     0.02040   0.48210   0.73585   0.01267  Uiso   1.00
C19    C     0.66180   0.81870   0.35501   0.01267  Uiso   1.00
C20    C     0.38840   0.73960   0.85200   0.01267  Uiso   1.00
C21    C     0.79120   0.70690   0.19280   0.01267  Uiso   1.00
C22    C     0.86270   0.64630   0.21870   0.01267  Uiso   1.00
C23    C     0.49500   0.61540   0.29720   0.01267  Uiso   1.00
C24    C     0.46830   0.27630   0.00640   0.01267  Uiso   1.00
C25    C     0.51620   0.76170   0.04140   0.01267  Uiso   1.00
C26    C     0.94280   0.68470   0.26520   0.01267  Uiso   1.00
C27    C     0.27510   0.27470   0.05539   0.01267  Uiso   1.00
C28    C     0.48380   0.23830   0.95860   0.01267  Uiso   1.00
C29    C     0.23160   0.10080   0.62108   0.01267  Uiso   1.00
C30    C     0.03440   0.21640   0.70990   0.01267  Uiso   1.00
C31    C     0.95210   0.18020   0.66760   0.01267  Uiso   1.00
C32    C     0.97020   0.55940   0.71116   0.01267  Uiso   1.00
C33    C     0.52040   0.98210   0.76415   0.01267  Uiso   1.00
C34    C     0.17460   0.12170   0.57613   0.01267  Uiso   1.00
C35    C     0.71770   0.80100   0.03404   0.01267  Uiso   1.00
C36    C     0.70880   0.79310   0.69280   0.01267  Uiso   1.00
C37    C     0.11110   0.97730   0.79080   0.01267  Uiso   1.00
C38    C     0.66810   0.69350   0.42238   0.01267  Uiso   1.00
C39    C     0.47020   0.05940   0.78884   0.01267  Uiso   1.00
C40    C     0.88840   0.23960   0.64800   0.01267  Uiso   1.00
C41    C     0.02980   0.44060   0.28884   0.01267  Uiso   1.00
C42    C     0.75030   0.44510   0.83170   0.01267  Uiso   1.00
C43    C     0.54790   0.31980   0.16760   0.01267  Uiso   1.00
C44    C     0.09090   0.66280   0.33090   0.01267  Uiso   1.00
C45    C     0.50500   0.38460   0.70280   0.01267  Uiso   1.00
C46    C     0.88890   0.02270   0.20920   0.01267  Uiso   1.00
C47    C     0.36270   0.14630   0.28130   0.01267  Uiso   1.00
C48    C     0.15200   0.44980   0.80400   0.01267  Uiso   1.00
C49    C     0.55750   0.42240   0.85920   0.01267  Uiso   1.00
C50    C     0.61160   0.26040   0.14800   0.01267  Uiso   1.00
C51    C     0.32540   0.37830   0.07613   0.01267  Uiso   1.00
C52    C     0.96560   0.78360   0.29010   0.01267  Uiso   1.00
C53    C     0.52980   0.94060   0.21116   0.01267  Uiso   1.00
C54    C     0.28230   0.19900   0.96596   0.01267  Uiso   1.00
C55    C     0.45210   0.68020   0.83240   0.01267  Uiso   1.00
C56    C     0.50400   0.12020   0.21305   0.01267  Uiso   1.00
C57    C     0.46560   0.28360   0.20990   0.01267  Uiso   1.00
C58    C     0.25030   0.94510   0.66830   0.01267  Uiso   1.00
C59    C     0.66330   0.34390   0.81980   0.01267  Uiso   1.00
C60    C     0.33670   0.65610   0.18020   0.01267  Uiso   1.00
C61    C     0.21770   0.30100   0.46596   0.01267  Uiso   1.00
C62    C     0.59600   0.01470   0.71890   0.01267  Uiso   1.00
C63    C     0.44250   0.57760   0.14080   0.01267  Uiso   1.00
C64    C     0.05750   0.92240   0.64080   0.01267  Uiso   1.00
C65    C     0.47960   0.01790   0.23585   0.01267  Uiso   1.00
C66    C     0.74970   0.05490   0.33170   0.01267  Uiso   1.00
C67    C     0.33820   0.18130   0.64499   0.01267  Uiso   1.00
C68    C     0.59090   0.16280   0.16910   0.01267  Uiso   1.00
C69    C     0.67460   0.62170   0.92387   0.01267  Uiso   1.00
C70    C     0.04790   0.81980   0.33240   0.01267  Uiso   1.00
C71    C     0.53440   0.71640   0.79010   0.01267  Uiso   1.00
C72    C     0.55720   0.81530   0.76520   0.01267  Uiso   1.00
C73    C     0.00400   0.62020   0.28695   0.01267  Uiso   1.00
C74    C     0.99500   0.11540   0.20280   0.01267  Uiso   1.00
C75    C     0.38890   0.52270   0.29080   0.01267  Uiso   1.00
C76    C     0.44280   0.18470   0.23480   0.01267  Uiso   1.00
C77    C     0.09140   0.95000   0.87511   0.01267  Uiso   1.00
C78    C     0.40910   0.83720   0.83090   0.01267  Uiso   1.00
C79    C     0.33190   0.30650   0.57762   0.01267  Uiso   1.00
C80    C     0.16180   0.31870   0.14499   0.01267  Uiso   1.00
C81    C     0.03170   0.22370   0.50640   0.01267  Uiso   1.00
C82    C     0.72490   0.72530   0.94461   0.01267  Uiso   1.00
C83    C     0.38810   0.28230   0.62253   0.01267  Uiso   1.00
C84    C     0.83190   0.80650   0.92238   0.01267  Uiso   1.00
C85    C     0.40860   0.55000   0.37511   0.01267  Uiso   1.00
C86    C     0.49600   0.87980   0.78695   0.01267  Uiso   1.00
C87    C     0.40400   0.98530   0.28110   0.01267  Uiso   1.00
C88    C     0.99600   0.37980   0.71305   0.01267  Uiso   1.00
C89    C     0.16330   0.84390   0.68020   0.01267  Uiso   1.00
C90    C     0.63730   0.85370   0.71870   0.01267  Uiso   1.00
C91    C     0.73160   0.60080   0.87892   0.01267  Uiso   1.00
C92    C     0.83820   0.68130   0.85501   0.01267  Uiso   1.00
C93    C     0.01620   0.26170   0.45860   0.01267  Uiso   1.00
C94    C     0.78230   0.69900   0.53404   0.01267  Uiso   1.00
C95    C     0.76840   0.89920   0.37892   0.01267  Uiso   1.00
C96    C     0.20880   0.29310   0.80720   0.01267  Uiso   1.00
C97    C     0.61190   0.71770   0.37747   0.01267  Uiso   1.00
C98    C     0.05720   0.31530   0.73480   0.01267  Uiso   1.00
C99    C     0.53170   0.72370   0.99360   0.01267  Uiso   1.00
C100   C     0.88810   0.78230   0.87747   0.01267  Uiso   1.00
C101   C     0.65200   0.94980   0.69600   0.01267  Uiso   1.00
C102   C     0.98380   0.73830   0.54140   0.01267  Uiso   1.00
C103   C     0.84800   0.55020   0.19600   0.01267  Uiso   1.00
C104   C     0.59140   0.45000   0.62489   0.01267  Uiso   1.00
C105   C     0.26840   0.39920   0.12108   0.01267  Uiso   1.00
C106   C     0.94250   0.07760   0.35920   0.01267  Uiso   1.00
C107   C     0.90400   0.48530   0.21890   0.01267  Uiso   1.00
C108   C     0.09600   0.51470   0.78110   0.01267  Uiso   1.00
N1     N     0.13270   0.30950   0.43276   0.01267  Uiso   1.00
N2     N     0.18230   0.99470   0.64270   0.01267  Uiso   1.00
N3     N     0.68230   0.49470   0.85730   0.01267  Uiso   1.00
N4     N     0.83510   0.98280   0.16080   0.01267  Uiso   1.00
N5     N     0.81770   0.00530   0.35730   0.01267  Uiso   1.00
N6     N     0.86730   0.69050   0.56724   0.01267  Uiso   1.00
N7     N     0.83910   0.75040   0.48877   0.01267  Uiso   1.00
N8     N     0.04240   0.83110   0.66298   0.01267  Uiso   1.00
N9     N     0.45760   0.66890   0.16298   0.01267  Uiso   1.00
N10    N     0.16490   0.01720   0.83920   0.01267  Uiso   1.00
N11    N     0.33910   0.25040   0.01123   0.01267  Uiso   1.00
N12    N     0.33510   0.48280   0.33920   0.01267  Uiso   1.00
N13    N     0.66090   0.74960   0.98877   0.01267  Uiso   1.00
N14    N     0.16090   0.24960   0.51123   0.01267  Uiso   1.00
N15    N     0.31770   0.50530   0.14270   0.01267  Uiso   1.00
N16    N     0.54240   0.33110   0.83702   0.01267  Uiso   1.00
N17    N     0.95760   0.16890   0.33702   0.01267  Uiso   1.00
N18    N     0.49220   0.36710   0.64856   0.01267  Uiso   1.00
N19    N     0.00780   0.13290   0.14856   0.01267  Uiso   1.00
N20    N     0.66490   0.51720   0.66080   0.01267  Uiso   1.00
N21    N     0.99220   0.86710   0.85144   0.01267  Uiso   1.00
N22    N     0.50780   0.63290   0.35144   0.01267  Uiso   1.00
N23    N     0.63270   0.80950   0.06724   0.01267  Uiso   1.00
N24    N     0.36730   0.19050   0.93276   0.01267  Uiso   1.00
O1     O     0.75410   0.74230   0.72241   0.01267  Uiso   1.00
O2     O     0.24590   0.25770   0.27759   0.01267  Uiso   1.00
O3     O     0.74590   0.75770   0.22241   0.01267  Uiso   1.00
O4     O     0.25410   0.24230   0.77759   0.01267  Uiso   1.00
O5     O     0.97510   0.56980   0.66096   0.01267  Uiso   1.00
O6     O     0.77940   0.70350   0.14313   0.01267  Uiso   1.00
O7     O     0.47510   0.06980   0.83904   0.01267  Uiso   1.00
O8     O     0.52490   0.93020   0.16096   0.01267  Uiso   1.00
O9     O     0.92750   0.61020   0.74045   0.01267  Uiso   1.00
O10    O     0.02490   0.43020   0.33904   0.01267  Uiso   1.00
O11    O     0.72060   0.79650   0.64313   0.01267  Uiso   1.00
O12    O     0.42750   0.11020   0.75955   0.01267  Uiso   1.00
O13    O     0.27940   0.20350   0.35687   0.01267  Uiso   1.00
O14    O     0.07250   0.38980   0.25955   0.01267  Uiso   1.00
O15    O     0.57250   0.88980   0.24045   0.01267  Uiso   1.00
O16    O     0.22060   0.29650   0.85687   0.01267  Uiso   1.00
