data_QOVWOO_clean
_audit_creation_date              2015-05-14
_audit_creation_method            'Materials Studio'
_symmetry_space_group_name_H-M    'P1'
_symmetry_Int_Tables_number       1
_symmetry_cell_setting            triclinic
loop_
_symmetry_equiv_pos_as_xyz
  x,y,z
_cell_length_a                    19.2395
_cell_length_b                    15.1642
_cell_length_c                    6.6812
_cell_angle_alpha                 90.0000
_cell_angle_beta                  84.0842
_cell_angle_gamma                 90.0000
loop_
_atom_site_label
_atom_site_type_symbol
_atom_site_fract_x
_atom_site_fract_y
_atom_site_fract_z
_atom_site_U_iso_or_equiv
_atom_site_adp_type
_atom_site_occupancy
Ga1    Ga    0.49568   0.25396   0.51928   0.01267  Uiso   1.00
H2     H     0.78732   0.09372   0.58149   0.01267  Uiso   1.00
H3     H     0.66881   0.12474   0.55727   0.01267  Uiso   1.00
H4     H     0.70824   0.14273   0.94831   0.01267  Uiso   1.00
H5     H     0.82676   0.11171   0.97252   0.01267  Uiso   1.00
H6     H     0.28082   0.17689   0.56010   0.01267  Uiso   1.00
H7     H     0.16320   0.14363   0.52772   0.01267  Uiso   1.00
H8     H     0.21599   0.06812   0.94732   0.01267  Uiso   1.00
H9     H     0.33361   0.10139   0.97970   0.01267  Uiso   1.00
C10    C     0.81687   0.10014   0.27902   0.01267  Uiso   1.00
C11    C     0.77083   0.10394   0.44947   0.01267  Uiso   1.00
C12    C     0.70174   0.12202   0.43535   0.01267  Uiso   1.00
C13    C     0.67869   0.13631   0.25078   0.01267  Uiso   1.00
C14    C     0.72473   0.13251   0.08033   0.01267  Uiso   1.00
C15    C     0.79382   0.11442   0.09445   0.01267  Uiso   1.00
C16    C     0.89151   0.08060   0.29427   0.01267  Uiso   1.00
C17    C     0.60405   0.15584   0.23553   0.01267  Uiso   1.00
C18    C     0.31697   0.14190   0.27259   0.01267  Uiso   1.00
C19    C     0.26730   0.15421   0.43233   0.01267  Uiso   1.00
C20    C     0.19873   0.13482   0.41345   0.01267  Uiso   1.00
C21    C     0.17984   0.10312   0.23483   0.01267  Uiso   1.00
C22    C     0.22951   0.09080   0.07509   0.01267  Uiso   1.00
C23    C     0.29808   0.11019   0.09397   0.01267  Uiso   1.00
C24    C     0.39104   0.16285   0.29299   0.01267  Uiso   1.00
C25    C     0.10577   0.08217   0.21443   0.01267  Uiso   1.00
O26    O     0.49900   0.18900   0.77180   0.01267  Uiso   1.00
O27    O     0.99990   0.06360   0.74650   0.01267  Uiso   1.00
O28    O     0.91268   0.06603   0.46508   0.01267  Uiso   1.00
O29    O     0.93439   0.07842   0.13655   0.01267  Uiso   1.00
O30    O     0.56103   0.15703   0.39300   0.01267  Uiso   1.00
O31    O     0.58303   0.17142   0.06497   0.01267  Uiso   1.00
O32    O     0.40855   0.19231   0.45851   0.01267  Uiso   1.00
O33    O     0.43710   0.15135   0.14496   0.01267  Uiso   1.00
O34    O     0.05926   0.09747   0.35933   0.01267  Uiso   1.00
O35    O     0.08871   0.04890   0.05204   0.01267  Uiso   1.00
H36    H     0.99990   0.37046   0.24650   0.01267  Uiso   1.00
H37    H     0.49900   0.12306   0.77180   0.01267  Uiso   1.00
Ga38   Ga    0.50432   0.75396   0.98072   0.01267  Uiso   1.00
H39    H     0.21268   0.59372   0.91851   0.01267  Uiso   1.00
H40    H     0.33119   0.62474   0.94273   0.01267  Uiso   1.00
H41    H     0.29176   0.64273   0.55169   0.01267  Uiso   1.00
H42    H     0.17324   0.61171   0.52748   0.01267  Uiso   1.00
H43    H     0.71918   0.67689   0.93990   0.01267  Uiso   1.00
H44    H     0.83680   0.64363   0.97228   0.01267  Uiso   1.00
H45    H     0.78401   0.56812   0.55268   0.01267  Uiso   1.00
H46    H     0.66639   0.60139   0.52030   0.01267  Uiso   1.00
C47    C     0.18313   0.60014   0.22098   0.01267  Uiso   1.00
C48    C     0.22917   0.60394   0.05053   0.01267  Uiso   1.00
C49    C     0.29826   0.62202   0.06465   0.01267  Uiso   1.00
C50    C     0.32131   0.63631   0.24922   0.01267  Uiso   1.00
C51    C     0.27527   0.63251   0.41967   0.01267  Uiso   1.00
C52    C     0.20618   0.61442   0.40555   0.01267  Uiso   1.00
C53    C     0.10849   0.58060   0.20573   0.01267  Uiso   1.00
C54    C     0.39595   0.65584   0.26447   0.01267  Uiso   1.00
C55    C     0.68303   0.64190   0.22741   0.01267  Uiso   1.00
C56    C     0.73270   0.65421   0.06767   0.01267  Uiso   1.00
C57    C     0.80127   0.63482   0.08655   0.01267  Uiso   1.00
C58    C     0.82016   0.60312   0.26517   0.01267  Uiso   1.00
C59    C     0.77049   0.59080   0.42491   0.01267  Uiso   1.00
C60    C     0.70192   0.61019   0.40603   0.01267  Uiso   1.00
C61    C     0.60896   0.66285   0.20701   0.01267  Uiso   1.00
C62    C     0.89423   0.58217   0.28557   0.01267  Uiso   1.00
O63    O     0.50100   0.68900   0.72820   0.01267  Uiso   1.00
O64    O     0.00010   0.56360   0.75350   0.01267  Uiso   1.00
O65    O     0.08732   0.56603   0.03492   0.01267  Uiso   1.00
O66    O     0.06561   0.57842   0.36345   0.01267  Uiso   1.00
O67    O     0.43897   0.65703   0.10700   0.01267  Uiso   1.00
O68    O     0.41697   0.67142   0.43503   0.01267  Uiso   1.00
O69    O     0.59145   0.69231   0.04149   0.01267  Uiso   1.00
O70    O     0.56290   0.65135   0.35504   0.01267  Uiso   1.00
O71    O     0.94074   0.59747   0.14067   0.01267  Uiso   1.00
O72    O     0.91129   0.54890   0.44796   0.01267  Uiso   1.00
H73    H     0.00010   0.87046   0.25350   0.01267  Uiso   1.00
H74    H     0.50100   0.62306   0.72820   0.01267  Uiso   1.00
Ga75   Ga    0.50432   0.74604   0.48072   0.01267  Uiso   1.00
H76    H     0.21268   0.90628   0.41851   0.01267  Uiso   1.00
H77    H     0.33119   0.87526   0.44273   0.01267  Uiso   1.00
H78    H     0.29176   0.85727   0.05169   0.01267  Uiso   1.00
H79    H     0.17324   0.88829   0.02748   0.01267  Uiso   1.00
H80    H     0.71918   0.82311   0.43990   0.01267  Uiso   1.00
H81    H     0.83680   0.85637   0.47228   0.01267  Uiso   1.00
H82    H     0.78401   0.93188   0.05268   0.01267  Uiso   1.00
H83    H     0.66639   0.89861   0.02030   0.01267  Uiso   1.00
C84    C     0.18313   0.89986   0.72098   0.01267  Uiso   1.00
C85    C     0.22917   0.89606   0.55053   0.01267  Uiso   1.00
C86    C     0.29826   0.87798   0.56465   0.01267  Uiso   1.00
C87    C     0.32131   0.86369   0.74922   0.01267  Uiso   1.00
C88    C     0.27527   0.86749   0.91967   0.01267  Uiso   1.00
C89    C     0.20618   0.88558   0.90555   0.01267  Uiso   1.00
C90    C     0.10849   0.91940   0.70573   0.01267  Uiso   1.00
C91    C     0.39595   0.84416   0.76447   0.01267  Uiso   1.00
C92    C     0.68303   0.85810   0.72741   0.01267  Uiso   1.00
C93    C     0.73270   0.84579   0.56767   0.01267  Uiso   1.00
C94    C     0.80127   0.86518   0.58655   0.01267  Uiso   1.00
C95    C     0.82016   0.89688   0.76517   0.01267  Uiso   1.00
C96    C     0.77049   0.90920   0.92491   0.01267  Uiso   1.00
C97    C     0.70192   0.88981   0.90603   0.01267  Uiso   1.00
C98    C     0.60896   0.83715   0.70701   0.01267  Uiso   1.00
C99    C     0.89423   0.91783   0.78557   0.01267  Uiso   1.00
O100   O     0.50100   0.81100   0.22820   0.01267  Uiso   1.00
O101   O     0.00010   0.93640   0.25350   0.01267  Uiso   1.00
O102   O     0.08732   0.93397   0.53492   0.01267  Uiso   1.00
O103   O     0.06561   0.92158   0.86345   0.01267  Uiso   1.00
O104   O     0.43897   0.84297   0.60700   0.01267  Uiso   1.00
O105   O     0.41697   0.82858   0.93503   0.01267  Uiso   1.00
O106   O     0.59145   0.80769   0.54149   0.01267  Uiso   1.00
O107   O     0.56290   0.84865   0.85504   0.01267  Uiso   1.00
O108   O     0.94074   0.90253   0.64067   0.01267  Uiso   1.00
O109   O     0.91129   0.95110   0.94796   0.01267  Uiso   1.00
H110   H     0.00010   0.62954   0.75350   0.01267  Uiso   1.00
H111   H     0.50100   0.87694   0.22820   0.01267  Uiso   1.00
Ga112  Ga    0.49568   0.24604   0.01928   0.01267  Uiso   1.00
H113   H     0.78732   0.40628   0.08149   0.01267  Uiso   1.00
H114   H     0.66881   0.37526   0.05727   0.01267  Uiso   1.00
H115   H     0.70824   0.35727   0.44831   0.01267  Uiso   1.00
H116   H     0.82676   0.38829   0.47252   0.01267  Uiso   1.00
H117   H     0.28082   0.32311   0.06010   0.01267  Uiso   1.00
H118   H     0.16320   0.35637   0.02772   0.01267  Uiso   1.00
H119   H     0.21599   0.43188   0.44732   0.01267  Uiso   1.00
H120   H     0.33361   0.39861   0.47970   0.01267  Uiso   1.00
C121   C     0.81687   0.39986   0.77902   0.01267  Uiso   1.00
C122   C     0.77083   0.39606   0.94947   0.01267  Uiso   1.00
C123   C     0.70174   0.37798   0.93535   0.01267  Uiso   1.00
C124   C     0.67869   0.36369   0.75078   0.01267  Uiso   1.00
C125   C     0.72473   0.36749   0.58033   0.01267  Uiso   1.00
C126   C     0.79382   0.38558   0.59445   0.01267  Uiso   1.00
C127   C     0.89151   0.41940   0.79427   0.01267  Uiso   1.00
C128   C     0.60405   0.34416   0.73553   0.01267  Uiso   1.00
C129   C     0.31697   0.35810   0.77259   0.01267  Uiso   1.00
C130   C     0.26730   0.34579   0.93233   0.01267  Uiso   1.00
C131   C     0.19873   0.36518   0.91345   0.01267  Uiso   1.00
C132   C     0.17984   0.39688   0.73483   0.01267  Uiso   1.00
C133   C     0.22951   0.40920   0.57509   0.01267  Uiso   1.00
C134   C     0.29808   0.38981   0.59397   0.01267  Uiso   1.00
C135   C     0.39104   0.33715   0.79299   0.01267  Uiso   1.00
C136   C     0.10577   0.41783   0.71443   0.01267  Uiso   1.00
O137   O     0.49900   0.31100   0.27180   0.01267  Uiso   1.00
O138   O     0.99990   0.43640   0.24650   0.01267  Uiso   1.00
O139   O     0.91268   0.43397   0.96508   0.01267  Uiso   1.00
O140   O     0.93439   0.42158   0.63655   0.01267  Uiso   1.00
O141   O     0.56103   0.34297   0.89300   0.01267  Uiso   1.00
O142   O     0.58303   0.32858   0.56497   0.01267  Uiso   1.00
O143   O     0.40855   0.30769   0.95851   0.01267  Uiso   1.00
O144   O     0.43710   0.34865   0.64496   0.01267  Uiso   1.00
O145   O     0.05926   0.40253   0.85933   0.01267  Uiso   1.00
O146   O     0.08871   0.45110   0.55204   0.01267  Uiso   1.00
H147   H     0.99990   0.12954   0.74650   0.01267  Uiso   1.00
H148   H     0.49900   0.37694   0.27180   0.01267  Uiso   1.00
Ga149  Ga    0.00000   0.00000   0.00000   0.01267  Uiso   1.00
Ga150  Ga    0.00000   0.50000   0.50000   0.01267  Uiso   1.00
Ga151  Ga    0.00000   0.00000   0.50000   0.01267  Uiso   1.00
Ga152  Ga    0.00000   0.50000   0.00000   0.01267  Uiso   1.00
