data_image0
_cell_length_a       19.6801
_cell_length_b       15.1165
_cell_length_c       6.6716
_cell_angle_alpha    90
_cell_angle_beta     103.757
_cell_angle_gamma    90

_symmetry_space_group_name_H-M    "P 1"
_symmetry_int_tables_number       1

loop_
  _symmetry_equiv_pos_as_xyz
  'x, y, z'

loop_
  _atom_site_label
  _atom_site_occupancy
  _atom_site_fract_x
  _atom_site_fract_y
  _atom_site_fract_z
  _atom_site_thermal_displace_type
  _atom_site_B_iso_or_equiv
  _atom_site_type_symbol
  Ga1      1.0000 0.49630  0.25000  0.51410  Biso   1.000  Ga
  O1       1.0000 0.49960  0.31470  0.25810  Biso   1.000  O
  O2       1.0000 0.00090  0.55530  0.25180  Biso   1.000  O
  O3       1.0000 0.91570  0.07770  0.86910  Biso   1.000  O
  O4       1.0000 0.93180  0.08210  0.54930  Biso   1.000  O
  O5       1.0000 0.55590  0.14850  0.44290  Biso   1.000  O
  O6       1.0000 0.58670  0.18360  0.14700  Biso   1.000  O
  C1       1.0000 0.81820  0.10630  0.58750  Biso   1.000  C
  C2       1.0000 0.77080  0.10450  0.71140  Biso   1.000  C
  C3       1.0000 0.69970  0.12010  0.63370  Biso   1.000  C
  C4       1.0000 0.67490  0.13820  0.42660  Biso   1.000  C
  C5       1.0000 0.72150  0.14000  0.30380  Biso   1.000  C
  C6       1.0000 0.79250  0.12450  0.38100  Biso   1.000  C
  C7       1.0000 0.89390  0.08780  0.67590  Biso   1.000  C
  C8       1.0000 0.60040  0.15730  0.33350  Biso   1.000  C
  H1       1.0000 0.78790  0.09130  0.85840  Biso   1.000  H
  H2       1.0000 0.66790  0.11860  0.72690  Biso   1.000  H
  H3       1.0000 0.70390  0.15340  0.15760  Biso   1.000  H
  H4       1.0000 0.82410  0.12620  0.28730  Biso   1.000  H
  O7       1.0000 0.40800  0.30030  0.87120  Biso   1.000  O
  O8       1.0000 0.43570  0.35180  0.57560  Biso   1.000  O
  O9       1.0000 0.05680  0.39930  0.44480  Biso   1.000  O
  O10      1.0000 0.08850  0.43140  0.14050  Biso   1.000  O
  C9       1.0000 0.31750  0.35480  0.59890  Biso   1.000  C
  C10      1.0000 0.26610  0.33900  0.70900  Biso   1.000  C
  C11      1.0000 0.19480  0.35600  0.62370  Biso   1.000  C
  C12      1.0000 0.17600  0.38930  0.42510  Biso   1.000  C
  C13      1.0000 0.22660  0.40490  0.31560  Biso   1.000  C
  C14      1.0000 0.29790  0.38820  0.39930  Biso   1.000  C
  C15      1.0000 0.39300  0.33500  0.68930  Biso   1.000  C
  C16      1.0000 0.10120  0.40850  0.33130  Biso   1.000  C
  H5       1.0000 0.28030  0.31520  0.84920  Biso   1.000  H
  H6       1.0000 0.15940  0.34510  0.70280  Biso   1.000  H
  H7       1.0000 0.21200  0.42880  0.17570  Biso   1.000  H
  H8       1.0000 0.33300  0.39950  0.31910  Biso   1.000  H
  H9       1.0000 0.49500  0.37370  0.27600  Biso   1.000  H
  H10      1.0000 0.99500  0.61460  0.26300  Biso   1.000  H
  Ga2      1.0000 0.50370  0.75000  0.98590  Biso   1.000  Ga
  O11      1.0000 0.50040  0.81470  0.24190  Biso   1.000  O
  O12      1.0000 0.99910  0.05530  0.24820  Biso   1.000  O
  O13      1.0000 0.08430  0.57770  0.63090  Biso   1.000  O
  O14      1.0000 0.06820  0.58210  0.95070  Biso   1.000  O
  O15      1.0000 0.44410  0.64850  0.05710  Biso   1.000  O
  O16      1.0000 0.41330  0.68360  0.35300  Biso   1.000  O
  C17      1.0000 0.18180  0.60630  0.91250  Biso   1.000  C
  C18      1.0000 0.22920  0.60450  0.78860  Biso   1.000  C
  C19      1.0000 0.30030  0.62010  0.86630  Biso   1.000  C
  C20      1.0000 0.32510  0.63820  0.07340  Biso   1.000  C
  C21      1.0000 0.27850  0.64000  0.19620  Biso   1.000  C
  C22      1.0000 0.20750  0.62450  0.11900  Biso   1.000  C
  C23      1.0000 0.10610  0.58780  0.82410  Biso   1.000  C
  C24      1.0000 0.39960  0.65730  0.16650  Biso   1.000  C
  H11      1.0000 0.21210  0.59130  0.64160  Biso   1.000  H
  H12      1.0000 0.33210  0.61860  0.77310  Biso   1.000  H
  H13      1.0000 0.29610  0.65340  0.34240  Biso   1.000  H
  H14      1.0000 0.17590  0.62620  0.21270  Biso   1.000  H
  O17      1.0000 0.59200  0.80030  0.62880  Biso   1.000  O
  O18      1.0000 0.56430  0.85180  0.92440  Biso   1.000  O
  O19      1.0000 0.94320  0.89930  0.05520  Biso   1.000  O
  O20      1.0000 0.91150  0.93140  0.35950  Biso   1.000  O
  C25      1.0000 0.68250  0.85480  0.90110  Biso   1.000  C
  C26      1.0000 0.73390  0.83900  0.79100  Biso   1.000  C
  C27      1.0000 0.80520  0.85600  0.87630  Biso   1.000  C
  C28      1.0000 0.82400  0.88930  0.07490  Biso   1.000  C
  C29      1.0000 0.77340  0.90490  0.18440  Biso   1.000  C
  C30      1.0000 0.70210  0.88820  0.10070  Biso   1.000  C
  C31      1.0000 0.60700  0.83500  0.81070  Biso   1.000  C
  C32      1.0000 0.89880  0.90850  0.16870  Biso   1.000  C
  H15      1.0000 0.71970  0.81520  0.65080  Biso   1.000  H
  H16      1.0000 0.84060  0.84510  0.79720  Biso   1.000  H
  H17      1.0000 0.78800  0.92880  0.32430  Biso   1.000  H
  H18      1.0000 0.66700  0.89950  0.18090  Biso   1.000  H
  H19      1.0000 0.50500  0.87370  0.22400  Biso   1.000  H
  H20      1.0000 0.00500  0.11460  0.23700  Biso   1.000  H
  Ga3      1.0000 0.50370  0.75000  0.48590  Biso   1.000  Ga
  O21      1.0000 0.50040  0.68530  0.74190  Biso   1.000  O
  O22      1.0000 0.99910  0.44470  0.74820  Biso   1.000  O
  O23      1.0000 0.08430  0.92230  0.13090  Biso   1.000  O
  O24      1.0000 0.06820  0.91790  0.45070  Biso   1.000  O
  O25      1.0000 0.44410  0.85150  0.55710  Biso   1.000  O
  O26      1.0000 0.41330  0.81640  0.85300  Biso   1.000  O
  C33      1.0000 0.18180  0.89370  0.41250  Biso   1.000  C
  C34      1.0000 0.22920  0.89550  0.28860  Biso   1.000  C
  C35      1.0000 0.30030  0.87990  0.36630  Biso   1.000  C
  C36      1.0000 0.32510  0.86180  0.57340  Biso   1.000  C
  C37      1.0000 0.27850  0.86000  0.69620  Biso   1.000  C
  C38      1.0000 0.20750  0.87550  0.61900  Biso   1.000  C
  C39      1.0000 0.10610  0.91220  0.32410  Biso   1.000  C
  C40      1.0000 0.39960  0.84270  0.66650  Biso   1.000  C
  H21      1.0000 0.21210  0.90870  0.14160  Biso   1.000  H
  H22      1.0000 0.33210  0.88140  0.27310  Biso   1.000  H
  H23      1.0000 0.29610  0.84660  0.84240  Biso   1.000  H
  H24      1.0000 0.17590  0.87380  0.71270  Biso   1.000  H
  O27      1.0000 0.59200  0.69970  0.12880  Biso   1.000  O
  O28      1.0000 0.56430  0.64820  0.42440  Biso   1.000  O
  O29      1.0000 0.94320  0.60070  0.55520  Biso   1.000  O
  O30      1.0000 0.91150  0.56860  0.85950  Biso   1.000  O
  C41      1.0000 0.68250  0.64520  0.40110  Biso   1.000  C
  C42      1.0000 0.73390  0.66100  0.29100  Biso   1.000  C
  C43      1.0000 0.80520  0.64400  0.37630  Biso   1.000  C
  C44      1.0000 0.82400  0.61070  0.57490  Biso   1.000  C
  C45      1.0000 0.77340  0.59510  0.68440  Biso   1.000  C
  C46      1.0000 0.70210  0.61180  0.60070  Biso   1.000  C
  C47      1.0000 0.60700  0.66500  0.31070  Biso   1.000  C
  C48      1.0000 0.89880  0.59150  0.66870  Biso   1.000  C
  H25      1.0000 0.71970  0.68480  0.15080  Biso   1.000  H
  H26      1.0000 0.84060  0.65490  0.29720  Biso   1.000  H
  H27      1.0000 0.78800  0.57120  0.82430  Biso   1.000  H
  H28      1.0000 0.66700  0.60050  0.68090  Biso   1.000  H
  H29      1.0000 0.50500  0.62630  0.72400  Biso   1.000  H
  H30      1.0000 0.00500  0.38540  0.73700  Biso   1.000  H
  Ga4      1.0000 0.49630  0.25000  0.01410  Biso   1.000  Ga
  O31      1.0000 0.49960  0.18530  0.75810  Biso   1.000  O
  O32      1.0000 0.00090  0.94470  0.75180  Biso   1.000  O
  O33      1.0000 0.91570  0.42230  0.36910  Biso   1.000  O
  O34      1.0000 0.93180  0.41790  0.04930  Biso   1.000  O
  O35      1.0000 0.55590  0.35150  0.94290  Biso   1.000  O
  O36      1.0000 0.58670  0.31640  0.64700  Biso   1.000  O
  C49      1.0000 0.81820  0.39370  0.08750  Biso   1.000  C
  C50      1.0000 0.77080  0.39550  0.21140  Biso   1.000  C
  C51      1.0000 0.69970  0.37990  0.13370  Biso   1.000  C
  C52      1.0000 0.67490  0.36180  0.92660  Biso   1.000  C
  C53      1.0000 0.72150  0.36000  0.80380  Biso   1.000  C
  C54      1.0000 0.79250  0.37550  0.88100  Biso   1.000  C
  C55      1.0000 0.89390  0.41220  0.17590  Biso   1.000  C
  C56      1.0000 0.60040  0.34270  0.83350  Biso   1.000  C
  H31      1.0000 0.78790  0.40870  0.35840  Biso   1.000  H
  H32      1.0000 0.66790  0.38140  0.22690  Biso   1.000  H
  H33      1.0000 0.70390  0.34660  0.65760  Biso   1.000  H
  H34      1.0000 0.82410  0.37380  0.78730  Biso   1.000  H
  O37      1.0000 0.40800  0.19970  0.37120  Biso   1.000  O
  O38      1.0000 0.43570  0.14820  0.07560  Biso   1.000  O
  O39      1.0000 0.05680  0.10070  0.94480  Biso   1.000  O
  O40      1.0000 0.08850  0.06860  0.64050  Biso   1.000  O
  C57      1.0000 0.31750  0.14520  0.09890  Biso   1.000  C
  C58      1.0000 0.26610  0.16100  0.20900  Biso   1.000  C
  C59      1.0000 0.19480  0.14400  0.12370  Biso   1.000  C
  C60      1.0000 0.17600  0.11070  0.92510  Biso   1.000  C
  C61      1.0000 0.22660  0.09510  0.81560  Biso   1.000  C
  C62      1.0000 0.29790  0.11180  0.89930  Biso   1.000  C
  C63      1.0000 0.39300  0.16500  0.18930  Biso   1.000  C
  C64      1.0000 0.10120  0.09150  0.83130  Biso   1.000  C
  H35      1.0000 0.28030  0.18480  0.34920  Biso   1.000  H
  H36      1.0000 0.15940  0.15490  0.20280  Biso   1.000  H
  H37      1.0000 0.21200  0.07120  0.67570  Biso   1.000  H
  H38      1.0000 0.33300  0.10050  0.81910  Biso   1.000  H
  H39      1.0000 0.49500  0.12630  0.77600  Biso   1.000  H
  H40      1.0000 0.99500  0.88540  0.76300  Biso   1.000  H
  Ga5      1.0000 0.00000  0.50000  0.00000  Biso   1.000  Ga
  Ga6      1.0000 0.00000  0.00000  0.50000  Biso   1.000  Ga
  Ga7      1.0000 0.00000  0.50000  0.50000  Biso   1.000  Ga
  Ga8      1.0000 0.00000  0.00000  0.00000  Biso   1.000  Ga
