data_image0
_cell_length_a       34.074
_cell_length_b       16.2211
_cell_length_c       28.278
_cell_angle_alpha    90
_cell_angle_beta     124.743
_cell_angle_gamma    90

_symmetry_space_group_name_H-M    "P 1"
_symmetry_int_tables_number       1

loop_
  _symmetry_equiv_pos_as_xyz
  'x, y, z'

loop_
  _atom_site_label
  _atom_site_occupancy
  _atom_site_fract_x
  _atom_site_fract_y
  _atom_site_fract_z
  _atom_site_thermal_displace_type
  _atom_site_B_iso_or_equiv
  _atom_site_type_symbol
  U1       1.0000 0.05624  0.27184  0.56129  Biso   1.000  U
  U2       1.0000 0.27433  0.37983  0.91234  Biso   1.000  U
  U3       1.0000 0.20866  0.14399  0.86225  Biso   1.000  U
  U4       1.0000 0.11978  0.50386  0.61115  Biso   1.000  U
  I1       1.0000 0.09800  0.17183  0.70752  Biso   1.000  I
  I2       1.0000 0.18518  0.50641  0.77507  Biso   1.000  I
  O1       1.0000 0.01500  0.34070  0.55960  Biso   1.000  O
  O2       1.0000 0.09960  0.38010  0.55640  Biso   1.000  O
  O3       1.0000 0.15030  0.21370  0.77250  Biso   1.000  O
  O4       1.0000 0.12140  0.35860  0.61770  Biso   1.000  O
  O5       1.0000 0.27290  0.23500  0.90830  Biso   1.000  O
  O6       1.0000 0.02830  0.31130  0.46380  Biso   1.000  O
  O7       1.0000 0.06270  0.51160  0.59790  Biso   1.000  O
  O8       1.0000 0.23800  0.26790  0.85000  Biso   1.000  O
  O9       1.0000 0.16560  0.18070  0.99530  Biso   1.000  O
  O10      1.0000 0.91830  0.39740  0.55830  Biso   1.000  O
  O11      1.0000 0.02070  0.16420  0.58680  Biso   1.000  O
  O12      1.0000 0.91630  0.46730  0.48850  Biso   1.000  O
  O13      1.0000 0.85540  0.38960  0.31480  Biso   1.000  O
  O14      1.0000 0.09210  0.25850  0.66380  Biso   1.000  O
  O15      1.0000 0.05260  0.19760  0.71870  Biso   1.000  O
  O16      1.0000 0.23150  0.37920  0.92920  Biso   1.000  O
  O17      1.0000 0.27300  0.09520  0.95500  Biso   1.000  O
  O18      1.0000 0.13370  0.06670  0.79770  Biso   1.000  O
  O19      1.0000 0.32220  0.00170  0.01770  Biso   1.000  O
  O20      1.0000 0.09210  0.18490  0.91390  Biso   1.000  O
  O21      1.0000 0.15300  0.45270  0.70730  Biso   1.000  O
  O22      1.0000 0.24300  0.97120  0.10410  Biso   1.000  O
  O23      1.0000 0.98920  0.03800  0.57320  Biso   1.000  O
  O24      1.0000 0.21610  0.41380  0.81350  Biso   1.000  O
  O25      1.0000 0.18050  0.18890  0.89350  Biso   1.000  O
  O26      1.0000 0.14020  0.50850  0.78860  Biso   1.000  O
  O27      1.0000 0.99840  0.28400  0.37390  Biso   1.000  O
  O28      1.0000 0.81500  0.27440  0.26850  Biso   1.000  O
  O29      1.0000 0.22050  0.83900  0.08770  Biso   1.000  O
  O30      1.0000 0.09930  0.94950  0.74460  Biso   1.000  O
  N1       1.0000 0.98300  0.18540  0.47420  Biso   1.000  N
  N2       1.0000 0.16970  0.01570  0.00000  Biso   1.000  N
  N3       1.0000 0.20240  0.98960  0.89040  Biso   1.000  N
  N4       1.0000 0.87920  0.33910  0.41580  Biso   1.000  N
  C1       1.0000 0.99960  0.09740  0.55700  Biso   1.000  C
  C2       1.0000 0.87270  0.34000  0.46280  Biso   1.000  C
  C3       1.0000 0.28510  0.02080  0.97070  Biso   1.000  C
  C4       1.0000 0.92630  0.30600  0.43330  Biso   1.000  C
  C5       1.0000 0.83870  0.29680  0.36570  Biso   1.000  C
  C6       1.0000 0.93480  0.21700  0.45610  Biso   1.000  C
  C7       1.0000 0.98750  0.09920  0.49400  Biso   1.000  C
  C8       1.0000 0.90510  0.40490  0.50650  Biso   1.000  C
  C9       1.0000 0.12660  0.14670  0.95520  Biso   1.000  C
  C10      1.0000 0.98730  0.18210  0.42520  Biso   1.000  C
  C11      1.0000 0.00530  0.26460  0.41930  Biso   1.000  C
  C12      1.0000 0.25200  0.95520  0.93030  Biso   1.000  C
  C13      1.0000 0.12120  0.05410  0.96250  Biso   1.000  C
  C14      1.0000 0.19750  0.01700  0.97190  Biso   1.000  C
  C15      1.0000 0.83710  0.32440  0.31250  Biso   1.000  C
  C16      1.0000 0.17710  0.94110  0.83580  Biso   1.000  C
  C17      1.0000 0.16520  0.93710  0.01910  Biso   1.000  C
  C18      1.0000 0.21380  0.91470  0.07610  Biso   1.000  C
  C19      1.0000 0.17300  0.97230  0.91300  Biso   1.000  C
  C20      1.0000 0.13250  0.98990  0.79150  Biso   1.000  C
  K1       1.0000 0.15850  0.32592  0.93719  Biso   1.000  K
  K2       1.0000 0.98413  0.28740  0.63093  Biso   1.000  K
  K3       1.0000 0.19686  0.29650  0.73157  Biso   1.000  K
  K4       1.0000 0.98173  0.53830  0.59460  Biso   1.000  K
  O31      1.0000 0.04800  0.41890  0.68400  Biso   1.000  O
  U5       1.0000 0.55624  0.77184  0.56129  Biso   1.000  U
  U6       1.0000 0.77433  0.87983  0.91234  Biso   1.000  U
  U7       1.0000 0.70866  0.64399  0.86225  Biso   1.000  U
  U8       1.0000 0.61978  0.00386  0.61115  Biso   1.000  U
  I3       1.0000 0.59800  0.67183  0.70752  Biso   1.000  I
  I4       1.0000 0.68518  0.00641  0.77507  Biso   1.000  I
  O32      1.0000 0.51500  0.84070  0.55960  Biso   1.000  O
  O33      1.0000 0.59960  0.88010  0.55640  Biso   1.000  O
  O34      1.0000 0.65030  0.71370  0.77250  Biso   1.000  O
  O35      1.0000 0.62140  0.85860  0.61770  Biso   1.000  O
  O36      1.0000 0.77290  0.73500  0.90830  Biso   1.000  O
  O37      1.0000 0.52830  0.81130  0.46380  Biso   1.000  O
  O38      1.0000 0.56270  0.01160  0.59790  Biso   1.000  O
  O39      1.0000 0.73800  0.76790  0.85000  Biso   1.000  O
  O40      1.0000 0.66560  0.68070  0.99530  Biso   1.000  O
  O41      1.0000 0.41830  0.89740  0.55830  Biso   1.000  O
  O42      1.0000 0.52070  0.66420  0.58680  Biso   1.000  O
  O43      1.0000 0.41630  0.96730  0.48850  Biso   1.000  O
  O44      1.0000 0.35540  0.88960  0.31480  Biso   1.000  O
  O45      1.0000 0.59210  0.75850  0.66380  Biso   1.000  O
  O46      1.0000 0.55260  0.69760  0.71870  Biso   1.000  O
  O47      1.0000 0.73150  0.87920  0.92920  Biso   1.000  O
  O48      1.0000 0.77300  0.59520  0.95500  Biso   1.000  O
  O49      1.0000 0.63370  0.56670  0.79770  Biso   1.000  O
  O50      1.0000 0.82220  0.50170  0.01770  Biso   1.000  O
  O51      1.0000 0.59210  0.68490  0.91390  Biso   1.000  O
  O52      1.0000 0.65300  0.95270  0.70730  Biso   1.000  O
  O53      1.0000 0.74300  0.47120  0.10410  Biso   1.000  O
  O54      1.0000 0.48920  0.53800  0.57320  Biso   1.000  O
  O55      1.0000 0.71610  0.91380  0.81350  Biso   1.000  O
  O56      1.0000 0.68050  0.68890  0.89350  Biso   1.000  O
  O57      1.0000 0.64020  0.00850  0.78860  Biso   1.000  O
  O58      1.0000 0.49840  0.78400  0.37390  Biso   1.000  O
  O59      1.0000 0.31500  0.77440  0.26850  Biso   1.000  O
  O60      1.0000 0.72050  0.33900  0.08770  Biso   1.000  O
  O61      1.0000 0.59930  0.44950  0.74460  Biso   1.000  O
  N5       1.0000 0.48300  0.68540  0.47420  Biso   1.000  N
  N6       1.0000 0.66970  0.51570  0.00000  Biso   1.000  N
  N7       1.0000 0.70240  0.48960  0.89040  Biso   1.000  N
  N8       1.0000 0.37920  0.83910  0.41580  Biso   1.000  N
  C21      1.0000 0.49960  0.59740  0.55700  Biso   1.000  C
  C22      1.0000 0.37270  0.84000  0.46280  Biso   1.000  C
  C23      1.0000 0.78510  0.52080  0.97070  Biso   1.000  C
  C24      1.0000 0.42630  0.80600  0.43330  Biso   1.000  C
  C25      1.0000 0.33870  0.79680  0.36570  Biso   1.000  C
  C26      1.0000 0.43480  0.71700  0.45610  Biso   1.000  C
  C27      1.0000 0.48750  0.59920  0.49400  Biso   1.000  C
  C28      1.0000 0.40510  0.90490  0.50650  Biso   1.000  C
  C29      1.0000 0.62660  0.64670  0.95520  Biso   1.000  C
  C30      1.0000 0.48730  0.68210  0.42520  Biso   1.000  C
  C31      1.0000 0.50530  0.76460  0.41930  Biso   1.000  C
  C32      1.0000 0.75200  0.45520  0.93030  Biso   1.000  C
  C33      1.0000 0.62120  0.55410  0.96250  Biso   1.000  C
  C34      1.0000 0.69750  0.51700  0.97190  Biso   1.000  C
  C35      1.0000 0.33710  0.82440  0.31250  Biso   1.000  C
  C36      1.0000 0.67710  0.44110  0.83580  Biso   1.000  C
  C37      1.0000 0.66520  0.43710  0.01910  Biso   1.000  C
  C38      1.0000 0.71380  0.41470  0.07610  Biso   1.000  C
  C39      1.0000 0.67300  0.47230  0.91300  Biso   1.000  C
  C40      1.0000 0.63250  0.48990  0.79150  Biso   1.000  C
  K5       1.0000 0.65850  0.82592  0.93719  Biso   1.000  K
  K6       1.0000 0.48413  0.78740  0.63093  Biso   1.000  K
  K7       1.0000 0.69686  0.79650  0.73157  Biso   1.000  K
  K8       1.0000 0.48173  0.03830  0.59460  Biso   1.000  K
  O62      1.0000 0.54800  0.91890  0.68400  Biso   1.000  O
  U9       1.0000 0.94376  0.27184  0.93871  Biso   1.000  U
  U10      1.0000 0.72567  0.37983  0.58766  Biso   1.000  U
  U11      1.0000 0.79134  0.14399  0.63775  Biso   1.000  U
  U12      1.0000 0.88022  0.50386  0.88885  Biso   1.000  U
  I5       1.0000 0.90200  0.17183  0.79248  Biso   1.000  I
  I6       1.0000 0.81482  0.50641  0.72493  Biso   1.000  I
  O63      1.0000 0.98500  0.34070  0.94040  Biso   1.000  O
  O64      1.0000 0.90040  0.38010  0.94360  Biso   1.000  O
  O65      1.0000 0.84970  0.21370  0.72750  Biso   1.000  O
  O66      1.0000 0.87860  0.35860  0.88230  Biso   1.000  O
  O67      1.0000 0.72710  0.23500  0.59170  Biso   1.000  O
  O68      1.0000 0.97170  0.31130  0.03620  Biso   1.000  O
  O69      1.0000 0.93730  0.51160  0.90210  Biso   1.000  O
  O70      1.0000 0.76200  0.26790  0.65000  Biso   1.000  O
  O71      1.0000 0.83440  0.18070  0.50470  Biso   1.000  O
  O72      1.0000 0.08170  0.39740  0.94170  Biso   1.000  O
  O73      1.0000 0.97930  0.16420  0.91320  Biso   1.000  O
  O74      1.0000 0.08370  0.46730  0.01150  Biso   1.000  O
  O75      1.0000 0.14460  0.38960  0.18520  Biso   1.000  O
  O76      1.0000 0.90790  0.25850  0.83620  Biso   1.000  O
  O77      1.0000 0.94740  0.19760  0.78130  Biso   1.000  O
  O78      1.0000 0.76850  0.37920  0.57080  Biso   1.000  O
  O79      1.0000 0.72700  0.09520  0.54500  Biso   1.000  O
  O80      1.0000 0.86630  0.06670  0.70230  Biso   1.000  O
  O81      1.0000 0.67780  0.00170  0.48230  Biso   1.000  O
  O82      1.0000 0.90790  0.18490  0.58610  Biso   1.000  O
  O83      1.0000 0.84700  0.45270  0.79270  Biso   1.000  O
  O84      1.0000 0.75700  0.97120  0.39590  Biso   1.000  O
  O85      1.0000 0.01080  0.03800  0.92680  Biso   1.000  O
  O86      1.0000 0.78390  0.41380  0.68650  Biso   1.000  O
  O87      1.0000 0.81950  0.18890  0.60650  Biso   1.000  O
  O88      1.0000 0.85980  0.50850  0.71140  Biso   1.000  O
  O89      1.0000 0.00160  0.28400  0.12610  Biso   1.000  O
  O90      1.0000 0.18500  0.27440  0.23150  Biso   1.000  O
  O91      1.0000 0.77950  0.83900  0.41230  Biso   1.000  O
  O92      1.0000 0.90070  0.94950  0.75540  Biso   1.000  O
  N9       1.0000 0.01700  0.18540  0.02580  Biso   1.000  N
  N10      1.0000 0.83030  0.01570  0.50000  Biso   1.000  N
  N11      1.0000 0.79760  0.98960  0.60960  Biso   1.000  N
  N12      1.0000 0.12080  0.33910  0.08420  Biso   1.000  N
  C41      1.0000 0.00040  0.09740  0.94300  Biso   1.000  C
  C42      1.0000 0.12730  0.34000  0.03720  Biso   1.000  C
  C43      1.0000 0.71490  0.02080  0.52930  Biso   1.000  C
  C44      1.0000 0.07370  0.30600  0.06670  Biso   1.000  C
  C45      1.0000 0.16130  0.29680  0.13430  Biso   1.000  C
  C46      1.0000 0.06520  0.21700  0.04390  Biso   1.000  C
  C47      1.0000 0.01250  0.09920  0.00600  Biso   1.000  C
  C48      1.0000 0.09490  0.40490  0.99350  Biso   1.000  C
  C49      1.0000 0.87340  0.14670  0.54480  Biso   1.000  C
  C50      1.0000 0.01270  0.18210  0.07480  Biso   1.000  C
  C51      1.0000 0.99470  0.26460  0.08070  Biso   1.000  C
  C52      1.0000 0.74800  0.95520  0.56970  Biso   1.000  C
  C53      1.0000 0.87880  0.05410  0.53750  Biso   1.000  C
  C54      1.0000 0.80250  0.01700  0.52810  Biso   1.000  C
  C55      1.0000 0.16290  0.32440  0.18750  Biso   1.000  C
  C56      1.0000 0.82290  0.94110  0.66420  Biso   1.000  C
  C57      1.0000 0.83480  0.93710  0.48090  Biso   1.000  C
  C58      1.0000 0.78620  0.91470  0.42390  Biso   1.000  C
  C59      1.0000 0.82700  0.97230  0.58700  Biso   1.000  C
  C60      1.0000 0.86750  0.98990  0.70850  Biso   1.000  C
  K9       1.0000 0.84150  0.32592  0.56281  Biso   1.000  K
  K10      1.0000 0.01587  0.28740  0.86907  Biso   1.000  K
  K11      1.0000 0.80314  0.29650  0.76843  Biso   1.000  K
  K12      1.0000 0.01827  0.53830  0.90540  Biso   1.000  K
  O93      1.0000 0.95200  0.41890  0.81600  Biso   1.000  O
  U13      1.0000 0.44376  0.77184  0.93871  Biso   1.000  U
  U14      1.0000 0.22567  0.87983  0.58766  Biso   1.000  U
  U15      1.0000 0.29134  0.64399  0.63775  Biso   1.000  U
  U16      1.0000 0.38022  0.00386  0.88885  Biso   1.000  U
  I7       1.0000 0.40200  0.67183  0.79248  Biso   1.000  I
  I8       1.0000 0.31482  0.00641  0.72493  Biso   1.000  I
  O94      1.0000 0.48500  0.84070  0.94040  Biso   1.000  O
  O95      1.0000 0.40040  0.88010  0.94360  Biso   1.000  O
  O96      1.0000 0.34970  0.71370  0.72750  Biso   1.000  O
  O97      1.0000 0.37860  0.85860  0.88230  Biso   1.000  O
  O98      1.0000 0.22710  0.73500  0.59170  Biso   1.000  O
  O99      1.0000 0.47170  0.81130  0.03620  Biso   1.000  O
  O100     1.0000 0.43730  0.01160  0.90210  Biso   1.000  O
  O101     1.0000 0.26200  0.76790  0.65000  Biso   1.000  O
  O102     1.0000 0.33440  0.68070  0.50470  Biso   1.000  O
  O103     1.0000 0.58170  0.89740  0.94170  Biso   1.000  O
  O104     1.0000 0.47930  0.66420  0.91320  Biso   1.000  O
  O105     1.0000 0.58370  0.96730  0.01150  Biso   1.000  O
  O106     1.0000 0.64460  0.88960  0.18520  Biso   1.000  O
  O107     1.0000 0.40790  0.75850  0.83620  Biso   1.000  O
  O108     1.0000 0.44740  0.69760  0.78130  Biso   1.000  O
  O109     1.0000 0.26850  0.87920  0.57080  Biso   1.000  O
  O110     1.0000 0.22700  0.59520  0.54500  Biso   1.000  O
  O111     1.0000 0.36630  0.56670  0.70230  Biso   1.000  O
  O112     1.0000 0.17780  0.50170  0.48230  Biso   1.000  O
  O113     1.0000 0.40790  0.68490  0.58610  Biso   1.000  O
  O114     1.0000 0.34700  0.95270  0.79270  Biso   1.000  O
  O115     1.0000 0.25700  0.47120  0.39590  Biso   1.000  O
  O116     1.0000 0.51080  0.53800  0.92680  Biso   1.000  O
  O117     1.0000 0.28390  0.91380  0.68650  Biso   1.000  O
  O118     1.0000 0.31950  0.68890  0.60650  Biso   1.000  O
  O119     1.0000 0.35980  0.00850  0.71140  Biso   1.000  O
  O120     1.0000 0.50160  0.78400  0.12610  Biso   1.000  O
  O121     1.0000 0.68500  0.77440  0.23150  Biso   1.000  O
  O122     1.0000 0.27950  0.33900  0.41230  Biso   1.000  O
  O123     1.0000 0.40070  0.44950  0.75540  Biso   1.000  O
  N13      1.0000 0.51700  0.68540  0.02580  Biso   1.000  N
  N14      1.0000 0.33030  0.51570  0.50000  Biso   1.000  N
  N15      1.0000 0.29760  0.48960  0.60960  Biso   1.000  N
  N16      1.0000 0.62080  0.83910  0.08420  Biso   1.000  N
  C61      1.0000 0.50040  0.59740  0.94300  Biso   1.000  C
  C62      1.0000 0.62730  0.84000  0.03720  Biso   1.000  C
  C63      1.0000 0.21490  0.52080  0.52930  Biso   1.000  C
  C64      1.0000 0.57370  0.80600  0.06670  Biso   1.000  C
  C65      1.0000 0.66130  0.79680  0.13430  Biso   1.000  C
  C66      1.0000 0.56520  0.71700  0.04390  Biso   1.000  C
  C67      1.0000 0.51250  0.59920  0.00600  Biso   1.000  C
  C68      1.0000 0.59490  0.90490  0.99350  Biso   1.000  C
  C69      1.0000 0.37340  0.64670  0.54480  Biso   1.000  C
  C70      1.0000 0.51270  0.68210  0.07480  Biso   1.000  C
  C71      1.0000 0.49470  0.76460  0.08070  Biso   1.000  C
  C72      1.0000 0.24800  0.45520  0.56970  Biso   1.000  C
  C73      1.0000 0.37880  0.55410  0.53750  Biso   1.000  C
  C74      1.0000 0.30250  0.51700  0.52810  Biso   1.000  C
  C75      1.0000 0.66290  0.82440  0.18750  Biso   1.000  C
  C76      1.0000 0.32290  0.44110  0.66420  Biso   1.000  C
  C77      1.0000 0.33480  0.43710  0.48090  Biso   1.000  C
  C78      1.0000 0.28620  0.41470  0.42390  Biso   1.000  C
  C79      1.0000 0.32700  0.47230  0.58700  Biso   1.000  C
  C80      1.0000 0.36750  0.48990  0.70850  Biso   1.000  C
  K13      1.0000 0.34150  0.82592  0.56281  Biso   1.000  K
  K14      1.0000 0.51587  0.78740  0.86907  Biso   1.000  K
  K15      1.0000 0.30314  0.79650  0.76843  Biso   1.000  K
  K16      1.0000 0.51827  0.03830  0.90540  Biso   1.000  K
  O124     1.0000 0.45200  0.91890  0.81600  Biso   1.000  O
  U17      1.0000 0.94376  0.72816  0.43871  Biso   1.000  U
  U18      1.0000 0.72567  0.62017  0.08766  Biso   1.000  U
  U19      1.0000 0.79134  0.85601  0.13775  Biso   1.000  U
  U20      1.0000 0.88022  0.49614  0.38885  Biso   1.000  U
  I9       1.0000 0.90200  0.82817  0.29248  Biso   1.000  I
  I10      1.0000 0.81482  0.49359  0.22493  Biso   1.000  I
  O125     1.0000 0.98500  0.65930  0.44040  Biso   1.000  O
  O126     1.0000 0.90040  0.61990  0.44360  Biso   1.000  O
  O127     1.0000 0.84970  0.78630  0.22750  Biso   1.000  O
  O128     1.0000 0.87860  0.64140  0.38230  Biso   1.000  O
  O129     1.0000 0.72710  0.76500  0.09170  Biso   1.000  O
  O130     1.0000 0.97170  0.68870  0.53620  Biso   1.000  O
  O131     1.0000 0.93730  0.48840  0.40210  Biso   1.000  O
  O132     1.0000 0.76200  0.73210  0.15000  Biso   1.000  O
  O133     1.0000 0.83440  0.81930  0.00470  Biso   1.000  O
  O134     1.0000 0.08170  0.60260  0.44170  Biso   1.000  O
  O135     1.0000 0.97930  0.83580  0.41320  Biso   1.000  O
  O136     1.0000 0.08370  0.53270  0.51150  Biso   1.000  O
  O137     1.0000 0.14460  0.61040  0.68520  Biso   1.000  O
  O138     1.0000 0.90790  0.74150  0.33620  Biso   1.000  O
  O139     1.0000 0.94740  0.80240  0.28130  Biso   1.000  O
  O140     1.0000 0.76850  0.62080  0.07080  Biso   1.000  O
  O141     1.0000 0.72700  0.90480  0.04500  Biso   1.000  O
  O142     1.0000 0.86630  0.93330  0.20230  Biso   1.000  O
  O143     1.0000 0.67780  0.99830  0.98230  Biso   1.000  O
  O144     1.0000 0.90790  0.81510  0.08610  Biso   1.000  O
  O145     1.0000 0.84700  0.54730  0.29270  Biso   1.000  O
  O146     1.0000 0.75700  0.02880  0.89590  Biso   1.000  O
  O147     1.0000 0.01080  0.96200  0.42680  Biso   1.000  O
  O148     1.0000 0.78390  0.58620  0.18650  Biso   1.000  O
  O149     1.0000 0.81950  0.81110  0.10650  Biso   1.000  O
  O150     1.0000 0.85980  0.49150  0.21140  Biso   1.000  O
  O151     1.0000 0.00160  0.71600  0.62610  Biso   1.000  O
  O152     1.0000 0.18500  0.72560  0.73150  Biso   1.000  O
  O153     1.0000 0.77950  0.16100  0.91230  Biso   1.000  O
  O154     1.0000 0.90070  0.05050  0.25540  Biso   1.000  O
  N17      1.0000 0.01700  0.81460  0.52580  Biso   1.000  N
  N18      1.0000 0.83030  0.98430  0.00000  Biso   1.000  N
  N19      1.0000 0.79760  0.01040  0.10960  Biso   1.000  N
  N20      1.0000 0.12080  0.66090  0.58420  Biso   1.000  N
  C81      1.0000 0.00040  0.90260  0.44300  Biso   1.000  C
  C82      1.0000 0.12730  0.66000  0.53720  Biso   1.000  C
  C83      1.0000 0.71490  0.97920  0.02930  Biso   1.000  C
  C84      1.0000 0.07370  0.69400  0.56670  Biso   1.000  C
  C85      1.0000 0.16130  0.70320  0.63430  Biso   1.000  C
  C86      1.0000 0.06520  0.78300  0.54390  Biso   1.000  C
  C87      1.0000 0.01250  0.90080  0.50600  Biso   1.000  C
  C88      1.0000 0.09490  0.59510  0.49350  Biso   1.000  C
  C89      1.0000 0.87340  0.85330  0.04480  Biso   1.000  C
  C90      1.0000 0.01270  0.81790  0.57480  Biso   1.000  C
  C91      1.0000 0.99470  0.73540  0.58070  Biso   1.000  C
  C92      1.0000 0.74800  0.04480  0.06970  Biso   1.000  C
  C93      1.0000 0.87880  0.94590  0.03750  Biso   1.000  C
  C94      1.0000 0.80250  0.98300  0.02810  Biso   1.000  C
  C95      1.0000 0.16290  0.67560  0.68750  Biso   1.000  C
  C96      1.0000 0.82290  0.05890  0.16420  Biso   1.000  C
  C97      1.0000 0.83480  0.06290  0.98090  Biso   1.000  C
  C98      1.0000 0.78620  0.08530  0.92390  Biso   1.000  C
  C99      1.0000 0.82700  0.02770  0.08700  Biso   1.000  C
  C100     1.0000 0.86750  0.01010  0.20850  Biso   1.000  C
  K17      1.0000 0.84150  0.67408  0.06281  Biso   1.000  K
  K18      1.0000 0.01587  0.71260  0.36907  Biso   1.000  K
  K19      1.0000 0.80314  0.70350  0.26843  Biso   1.000  K
  K20      1.0000 0.01827  0.46170  0.40540  Biso   1.000  K
  O155     1.0000 0.95200  0.58110  0.31600  Biso   1.000  O
  U21      1.0000 0.44376  0.22816  0.43871  Biso   1.000  U
  U22      1.0000 0.22567  0.12017  0.08766  Biso   1.000  U
  U23      1.0000 0.29134  0.35601  0.13775  Biso   1.000  U
  U24      1.0000 0.38022  0.99614  0.38885  Biso   1.000  U
  I11      1.0000 0.40200  0.32817  0.29248  Biso   1.000  I
  I12      1.0000 0.31482  0.99359  0.22493  Biso   1.000  I
  O156     1.0000 0.48500  0.15930  0.44040  Biso   1.000  O
  O157     1.0000 0.40040  0.11990  0.44360  Biso   1.000  O
  O158     1.0000 0.34970  0.28630  0.22750  Biso   1.000  O
  O159     1.0000 0.37860  0.14140  0.38230  Biso   1.000  O
  O160     1.0000 0.22710  0.26500  0.09170  Biso   1.000  O
  O161     1.0000 0.47170  0.18870  0.53620  Biso   1.000  O
  O162     1.0000 0.43730  0.98840  0.40210  Biso   1.000  O
  O163     1.0000 0.26200  0.23210  0.15000  Biso   1.000  O
  O164     1.0000 0.33440  0.31930  0.00470  Biso   1.000  O
  O165     1.0000 0.58170  0.10260  0.44170  Biso   1.000  O
  O166     1.0000 0.47930  0.33580  0.41320  Biso   1.000  O
  O167     1.0000 0.58370  0.03270  0.51150  Biso   1.000  O
  O168     1.0000 0.64460  0.11040  0.68520  Biso   1.000  O
  O169     1.0000 0.40790  0.24150  0.33620  Biso   1.000  O
  O170     1.0000 0.44740  0.30240  0.28130  Biso   1.000  O
  O171     1.0000 0.26850  0.12080  0.07080  Biso   1.000  O
  O172     1.0000 0.22700  0.40480  0.04500  Biso   1.000  O
  O173     1.0000 0.36630  0.43330  0.20230  Biso   1.000  O
  O174     1.0000 0.17780  0.49830  0.98230  Biso   1.000  O
  O175     1.0000 0.40790  0.31510  0.08610  Biso   1.000  O
  O176     1.0000 0.34700  0.04730  0.29270  Biso   1.000  O
  O177     1.0000 0.25700  0.52880  0.89590  Biso   1.000  O
  O178     1.0000 0.51080  0.46200  0.42680  Biso   1.000  O
  O179     1.0000 0.28390  0.08620  0.18650  Biso   1.000  O
  O180     1.0000 0.31950  0.31110  0.10650  Biso   1.000  O
  O181     1.0000 0.35980  0.99150  0.21140  Biso   1.000  O
  O182     1.0000 0.50160  0.21600  0.62610  Biso   1.000  O
  O183     1.0000 0.68500  0.22560  0.73150  Biso   1.000  O
  O184     1.0000 0.27950  0.66100  0.91230  Biso   1.000  O
  O185     1.0000 0.40070  0.55050  0.25540  Biso   1.000  O
  N21      1.0000 0.51700  0.31460  0.52580  Biso   1.000  N
  N22      1.0000 0.33030  0.48430  0.00000  Biso   1.000  N
  N23      1.0000 0.29760  0.51040  0.10960  Biso   1.000  N
  N24      1.0000 0.62080  0.16090  0.58420  Biso   1.000  N
  C101     1.0000 0.50040  0.40260  0.44300  Biso   1.000  C
  C102     1.0000 0.62730  0.16000  0.53720  Biso   1.000  C
  C103     1.0000 0.21490  0.47920  0.02930  Biso   1.000  C
  C104     1.0000 0.57370  0.19400  0.56670  Biso   1.000  C
  C105     1.0000 0.66130  0.20320  0.63430  Biso   1.000  C
  C106     1.0000 0.56520  0.28300  0.54390  Biso   1.000  C
  C107     1.0000 0.51250  0.40080  0.50600  Biso   1.000  C
  C108     1.0000 0.59490  0.09510  0.49350  Biso   1.000  C
  C109     1.0000 0.37340  0.35330  0.04480  Biso   1.000  C
  C110     1.0000 0.51270  0.31790  0.57480  Biso   1.000  C
  C111     1.0000 0.49470  0.23540  0.58070  Biso   1.000  C
  C112     1.0000 0.24800  0.54480  0.06970  Biso   1.000  C
  C113     1.0000 0.37880  0.44590  0.03750  Biso   1.000  C
  C114     1.0000 0.30250  0.48300  0.02810  Biso   1.000  C
  C115     1.0000 0.66290  0.17560  0.68750  Biso   1.000  C
  C116     1.0000 0.32290  0.55890  0.16420  Biso   1.000  C
  C117     1.0000 0.33480  0.56290  0.98090  Biso   1.000  C
  C118     1.0000 0.28620  0.58530  0.92390  Biso   1.000  C
  C119     1.0000 0.32700  0.52770  0.08700  Biso   1.000  C
  C120     1.0000 0.36750  0.51010  0.20850  Biso   1.000  C
  K21      1.0000 0.34150  0.17408  0.06281  Biso   1.000  K
  K22      1.0000 0.51587  0.21260  0.36907  Biso   1.000  K
  K23      1.0000 0.30314  0.20350  0.26843  Biso   1.000  K
  K24      1.0000 0.51827  0.96170  0.40540  Biso   1.000  K
  O186     1.0000 0.45200  0.08110  0.31600  Biso   1.000  O
  U25      1.0000 0.05624  0.72816  0.06129  Biso   1.000  U
  U26      1.0000 0.27433  0.62017  0.41234  Biso   1.000  U
  U27      1.0000 0.20866  0.85601  0.36225  Biso   1.000  U
  U28      1.0000 0.11978  0.49614  0.11115  Biso   1.000  U
  I13      1.0000 0.09800  0.82817  0.20752  Biso   1.000  I
  I14      1.0000 0.18518  0.49359  0.27507  Biso   1.000  I
  O187     1.0000 0.01500  0.65930  0.05960  Biso   1.000  O
  O188     1.0000 0.09960  0.61990  0.05640  Biso   1.000  O
  O189     1.0000 0.15030  0.78630  0.27250  Biso   1.000  O
  O190     1.0000 0.12140  0.64140  0.11770  Biso   1.000  O
  O191     1.0000 0.27290  0.76500  0.40830  Biso   1.000  O
  O192     1.0000 0.02830  0.68870  0.96380  Biso   1.000  O
  O193     1.0000 0.06270  0.48840  0.09790  Biso   1.000  O
  O194     1.0000 0.23800  0.73210  0.35000  Biso   1.000  O
  O195     1.0000 0.16560  0.81930  0.49530  Biso   1.000  O
  O196     1.0000 0.91830  0.60260  0.05830  Biso   1.000  O
  O197     1.0000 0.02070  0.83580  0.08680  Biso   1.000  O
  O198     1.0000 0.91630  0.53270  0.98850  Biso   1.000  O
  O199     1.0000 0.85540  0.61040  0.81480  Biso   1.000  O
  O200     1.0000 0.09210  0.74150  0.16380  Biso   1.000  O
  O201     1.0000 0.05260  0.80240  0.21870  Biso   1.000  O
  O202     1.0000 0.23150  0.62080  0.42920  Biso   1.000  O
  O203     1.0000 0.27300  0.90480  0.45500  Biso   1.000  O
  O204     1.0000 0.13370  0.93330  0.29770  Biso   1.000  O
  O205     1.0000 0.32220  0.99830  0.51770  Biso   1.000  O
  O206     1.0000 0.09210  0.81510  0.41390  Biso   1.000  O
  O207     1.0000 0.15300  0.54730  0.20730  Biso   1.000  O
  O208     1.0000 0.24300  0.02880  0.60410  Biso   1.000  O
  O209     1.0000 0.98920  0.96200  0.07320  Biso   1.000  O
  O210     1.0000 0.21610  0.58620  0.31350  Biso   1.000  O
  O211     1.0000 0.18050  0.81110  0.39350  Biso   1.000  O
  O212     1.0000 0.14020  0.49150  0.28860  Biso   1.000  O
  O213     1.0000 0.99840  0.71600  0.87390  Biso   1.000  O
  O214     1.0000 0.81500  0.72560  0.76850  Biso   1.000  O
  O215     1.0000 0.22050  0.16100  0.58770  Biso   1.000  O
  O216     1.0000 0.09930  0.05050  0.24460  Biso   1.000  O
  N25      1.0000 0.98300  0.81460  0.97420  Biso   1.000  N
  N26      1.0000 0.16970  0.98430  0.50000  Biso   1.000  N
  N27      1.0000 0.20240  0.01040  0.39040  Biso   1.000  N
  N28      1.0000 0.87920  0.66090  0.91580  Biso   1.000  N
  C121     1.0000 0.99960  0.90260  0.05700  Biso   1.000  C
  C122     1.0000 0.87270  0.66000  0.96280  Biso   1.000  C
  C123     1.0000 0.28510  0.97920  0.47070  Biso   1.000  C
  C124     1.0000 0.92630  0.69400  0.93330  Biso   1.000  C
  C125     1.0000 0.83870  0.70320  0.86570  Biso   1.000  C
  C126     1.0000 0.93480  0.78300  0.95610  Biso   1.000  C
  C127     1.0000 0.98750  0.90080  0.99400  Biso   1.000  C
  C128     1.0000 0.90510  0.59510  0.00650  Biso   1.000  C
  C129     1.0000 0.12660  0.85330  0.45520  Biso   1.000  C
  C130     1.0000 0.98730  0.81790  0.92520  Biso   1.000  C
  C131     1.0000 0.00530  0.73540  0.91930  Biso   1.000  C
  C132     1.0000 0.25200  0.04480  0.43030  Biso   1.000  C
  C133     1.0000 0.12120  0.94590  0.46250  Biso   1.000  C
  C134     1.0000 0.19750  0.98300  0.47190  Biso   1.000  C
  C135     1.0000 0.83710  0.67560  0.81250  Biso   1.000  C
  C136     1.0000 0.17710  0.05890  0.33580  Biso   1.000  C
  C137     1.0000 0.16520  0.06290  0.51910  Biso   1.000  C
  C138     1.0000 0.21380  0.08530  0.57610  Biso   1.000  C
  C139     1.0000 0.17300  0.02770  0.41300  Biso   1.000  C
  C140     1.0000 0.13250  0.01010  0.29150  Biso   1.000  C
  K25      1.0000 0.15850  0.67408  0.43719  Biso   1.000  K
  K26      1.0000 0.98413  0.71260  0.13093  Biso   1.000  K
  K27      1.0000 0.19686  0.70350  0.23157  Biso   1.000  K
  K28      1.0000 0.98173  0.46170  0.09460  Biso   1.000  K
  O217     1.0000 0.04800  0.58110  0.18400  Biso   1.000  O
  U29      1.0000 0.55624  0.22816  0.06129  Biso   1.000  U
  U30      1.0000 0.77433  0.12017  0.41234  Biso   1.000  U
  U31      1.0000 0.70866  0.35601  0.36225  Biso   1.000  U
  U32      1.0000 0.61978  0.99614  0.11115  Biso   1.000  U
  I15      1.0000 0.59800  0.32817  0.20752  Biso   1.000  I
  I16      1.0000 0.68518  0.99359  0.27507  Biso   1.000  I
  O218     1.0000 0.51500  0.15930  0.05960  Biso   1.000  O
  O219     1.0000 0.59960  0.11990  0.05640  Biso   1.000  O
  O220     1.0000 0.65030  0.28630  0.27250  Biso   1.000  O
  O221     1.0000 0.62140  0.14140  0.11770  Biso   1.000  O
  O222     1.0000 0.77290  0.26500  0.40830  Biso   1.000  O
  O223     1.0000 0.52830  0.18870  0.96380  Biso   1.000  O
  O224     1.0000 0.56270  0.98840  0.09790  Biso   1.000  O
  O225     1.0000 0.73800  0.23210  0.35000  Biso   1.000  O
  O226     1.0000 0.66560  0.31930  0.49530  Biso   1.000  O
  O227     1.0000 0.41830  0.10260  0.05830  Biso   1.000  O
  O228     1.0000 0.52070  0.33580  0.08680  Biso   1.000  O
  O229     1.0000 0.41630  0.03270  0.98850  Biso   1.000  O
  O230     1.0000 0.35540  0.11040  0.81480  Biso   1.000  O
  O231     1.0000 0.59210  0.24150  0.16380  Biso   1.000  O
  O232     1.0000 0.55260  0.30240  0.21870  Biso   1.000  O
  O233     1.0000 0.73150  0.12080  0.42920  Biso   1.000  O
  O234     1.0000 0.77300  0.40480  0.45500  Biso   1.000  O
  O235     1.0000 0.63370  0.43330  0.29770  Biso   1.000  O
  O236     1.0000 0.82220  0.49830  0.51770  Biso   1.000  O
  O237     1.0000 0.59210  0.31510  0.41390  Biso   1.000  O
  O238     1.0000 0.65300  0.04730  0.20730  Biso   1.000  O
  O239     1.0000 0.74300  0.52880  0.60410  Biso   1.000  O
  O240     1.0000 0.48920  0.46200  0.07320  Biso   1.000  O
  O241     1.0000 0.71610  0.08620  0.31350  Biso   1.000  O
  O242     1.0000 0.68050  0.31110  0.39350  Biso   1.000  O
  O243     1.0000 0.64020  0.99150  0.28860  Biso   1.000  O
  O244     1.0000 0.49840  0.21600  0.87390  Biso   1.000  O
  O245     1.0000 0.31500  0.22560  0.76850  Biso   1.000  O
  O246     1.0000 0.72050  0.66100  0.58770  Biso   1.000  O
  O247     1.0000 0.59930  0.55050  0.24460  Biso   1.000  O
  N29      1.0000 0.48300  0.31460  0.97420  Biso   1.000  N
  N30      1.0000 0.66970  0.48430  0.50000  Biso   1.000  N
  N31      1.0000 0.70240  0.51040  0.39040  Biso   1.000  N
  N32      1.0000 0.37920  0.16090  0.91580  Biso   1.000  N
  C141     1.0000 0.49960  0.40260  0.05700  Biso   1.000  C
  C142     1.0000 0.37270  0.16000  0.96280  Biso   1.000  C
  C143     1.0000 0.78510  0.47920  0.47070  Biso   1.000  C
  C144     1.0000 0.42630  0.19400  0.93330  Biso   1.000  C
  C145     1.0000 0.33870  0.20320  0.86570  Biso   1.000  C
  C146     1.0000 0.43480  0.28300  0.95610  Biso   1.000  C
  C147     1.0000 0.48750  0.40080  0.99400  Biso   1.000  C
  C148     1.0000 0.40510  0.09510  0.00650  Biso   1.000  C
  C149     1.0000 0.62660  0.35330  0.45520  Biso   1.000  C
  C150     1.0000 0.48730  0.31790  0.92520  Biso   1.000  C
  C151     1.0000 0.50530  0.23540  0.91930  Biso   1.000  C
  C152     1.0000 0.75200  0.54480  0.43030  Biso   1.000  C
  C153     1.0000 0.62120  0.44590  0.46250  Biso   1.000  C
  C154     1.0000 0.69750  0.48300  0.47190  Biso   1.000  C
  C155     1.0000 0.33710  0.17560  0.81250  Biso   1.000  C
  C156     1.0000 0.67710  0.55890  0.33580  Biso   1.000  C
  C157     1.0000 0.66520  0.56290  0.51910  Biso   1.000  C
  C158     1.0000 0.71380  0.58530  0.57610  Biso   1.000  C
  C159     1.0000 0.67300  0.52770  0.41300  Biso   1.000  C
  C160     1.0000 0.63250  0.51010  0.29150  Biso   1.000  C
  K29      1.0000 0.65850  0.17408  0.43719  Biso   1.000  K
  K30      1.0000 0.48413  0.21260  0.13093  Biso   1.000  K
  K31      1.0000 0.69686  0.20350  0.23157  Biso   1.000  K
  K32      1.0000 0.48173  0.96170  0.09460  Biso   1.000  K
  O248     1.0000 0.54800  0.08110  0.18400  Biso   1.000  O
