data_image0
_cell_length_a       15.5259
_cell_length_b       11.867
_cell_length_c       9.4129
_cell_angle_alpha    90
_cell_angle_beta     113.089
_cell_angle_gamma    90

_symmetry_space_group_name_H-M    "P 1"
_symmetry_int_tables_number       1

loop_
  _symmetry_equiv_pos_as_xyz
  'x, y, z'

loop_
  _atom_site_label
  _atom_site_occupancy
  _atom_site_fract_x
  _atom_site_fract_y
  _atom_site_fract_z
  _atom_site_thermal_displace_type
  _atom_site_B_iso_or_equiv
  _atom_site_type_symbol
  O1       1.0000 0.78430  0.87420  0.86860  Biso   1.000  O
  O2       1.0000 0.92320  0.87910  0.84850  Biso   1.000  O
  O3       1.0000 0.75370  0.61650  0.85280  Biso   1.000  O
  O4       1.0000 0.60770  0.67180  0.71720  Biso   1.000  O
  H1       1.0000 0.92160  0.05710  0.18410  Biso   1.000  H
  C1       1.0000 0.82180  0.82700  0.53150  Biso   1.000  C
  H2       1.0000 0.87050  0.87840  0.55280  Biso   1.000  H
  C2       1.0000 0.79490  0.79350  0.64930  Biso   1.000  C
  C3       1.0000 0.72280  0.71520  0.61890  Biso   1.000  C
  C4       1.0000 0.83800  0.85350  0.80280  Biso   1.000  C
  C5       1.0000 0.69340  0.66610  0.74140  Biso   1.000  C
  O5       1.0000 0.28430  0.37420  0.86860  Biso   1.000  O
  O6       1.0000 0.42320  0.37910  0.84850  Biso   1.000  O
  O7       1.0000 0.25370  0.11650  0.85280  Biso   1.000  O
  O8       1.0000 0.10770  0.17180  0.71720  Biso   1.000  O
  H3       1.0000 0.42160  0.55710  0.18410  Biso   1.000  H
  C6       1.0000 0.32180  0.32700  0.53150  Biso   1.000  C
  H4       1.0000 0.37050  0.37840  0.55280  Biso   1.000  H
  C7       1.0000 0.29490  0.29350  0.64930  Biso   1.000  C
  C8       1.0000 0.22280  0.21520  0.61890  Biso   1.000  C
  C9       1.0000 0.33800  0.35350  0.80280  Biso   1.000  C
  C10      1.0000 0.19340  0.16610  0.74140  Biso   1.000  C
  O9       1.0000 0.21570  0.87420  0.13140  Biso   1.000  O
  O10      1.0000 0.07680  0.87910  0.15150  Biso   1.000  O
  O11      1.0000 0.24630  0.61650  0.14720  Biso   1.000  O
  O12      1.0000 0.39230  0.67180  0.28280  Biso   1.000  O
  H5       1.0000 0.07840  0.05710  0.81590  Biso   1.000  H
  C11      1.0000 0.17820  0.82700  0.46850  Biso   1.000  C
  H6       1.0000 0.12950  0.87840  0.44720  Biso   1.000  H
  C12      1.0000 0.20510  0.79350  0.35070  Biso   1.000  C
  C13      1.0000 0.27720  0.71520  0.38110  Biso   1.000  C
  C14      1.0000 0.16200  0.85350  0.19720  Biso   1.000  C
  C15      1.0000 0.30660  0.66610  0.25860  Biso   1.000  C
  O13      1.0000 0.71570  0.37420  0.13140  Biso   1.000  O
  O14      1.0000 0.57680  0.37910  0.15150  Biso   1.000  O
  O15      1.0000 0.74630  0.11650  0.14720  Biso   1.000  O
  O16      1.0000 0.89230  0.17180  0.28280  Biso   1.000  O
  H7       1.0000 0.57840  0.55710  0.81590  Biso   1.000  H
  C16      1.0000 0.67820  0.32700  0.46850  Biso   1.000  C
  H8       1.0000 0.62950  0.37840  0.44720  Biso   1.000  H
  C17      1.0000 0.70510  0.29350  0.35070  Biso   1.000  C
  C18      1.0000 0.77720  0.21520  0.38110  Biso   1.000  C
  C19      1.0000 0.66200  0.35350  0.19720  Biso   1.000  C
  C20      1.0000 0.80660  0.16610  0.25860  Biso   1.000  C
  O17      1.0000 0.21570  0.12580  0.13140  Biso   1.000  O
  O18      1.0000 0.07680  0.12090  0.15150  Biso   1.000  O
  O19      1.0000 0.24630  0.38350  0.14720  Biso   1.000  O
  O20      1.0000 0.39230  0.32820  0.28280  Biso   1.000  O
  H9       1.0000 0.07840  0.94290  0.81590  Biso   1.000  H
  C21      1.0000 0.17820  0.17300  0.46850  Biso   1.000  C
  H10      1.0000 0.12950  0.12160  0.44720  Biso   1.000  H
  C22      1.0000 0.20510  0.20650  0.35070  Biso   1.000  C
  C23      1.0000 0.27720  0.28480  0.38110  Biso   1.000  C
  C24      1.0000 0.16200  0.14650  0.19720  Biso   1.000  C
  C25      1.0000 0.30660  0.33390  0.25860  Biso   1.000  C
  O21      1.0000 0.71570  0.62580  0.13140  Biso   1.000  O
  O22      1.0000 0.57680  0.62090  0.15150  Biso   1.000  O
  O23      1.0000 0.74630  0.88350  0.14720  Biso   1.000  O
  O24      1.0000 0.89230  0.82820  0.28280  Biso   1.000  O
  H11      1.0000 0.57840  0.44290  0.81590  Biso   1.000  H
  C26      1.0000 0.67820  0.67300  0.46850  Biso   1.000  C
  H12      1.0000 0.62950  0.62160  0.44720  Biso   1.000  H
  C27      1.0000 0.70510  0.70650  0.35070  Biso   1.000  C
  C28      1.0000 0.77720  0.78480  0.38110  Biso   1.000  C
  C29      1.0000 0.66200  0.64650  0.19720  Biso   1.000  C
  C30      1.0000 0.80660  0.83390  0.25860  Biso   1.000  C
  O25      1.0000 0.78430  0.12580  0.86860  Biso   1.000  O
  O26      1.0000 0.92320  0.12090  0.84850  Biso   1.000  O
  O27      1.0000 0.75370  0.38350  0.85280  Biso   1.000  O
  O28      1.0000 0.60770  0.32820  0.71720  Biso   1.000  O
  H13      1.0000 0.92160  0.94290  0.18410  Biso   1.000  H
  C31      1.0000 0.82180  0.17300  0.53150  Biso   1.000  C
  H14      1.0000 0.87050  0.12160  0.55280  Biso   1.000  H
  C32      1.0000 0.79490  0.20650  0.64930  Biso   1.000  C
  C33      1.0000 0.72280  0.28480  0.61890  Biso   1.000  C
  C34      1.0000 0.83800  0.14650  0.80280  Biso   1.000  C
  C35      1.0000 0.69340  0.33390  0.74140  Biso   1.000  C
  O29      1.0000 0.28430  0.62580  0.86860  Biso   1.000  O
  O30      1.0000 0.42320  0.62090  0.84850  Biso   1.000  O
  O31      1.0000 0.25370  0.88350  0.85280  Biso   1.000  O
  O32      1.0000 0.10770  0.82820  0.71720  Biso   1.000  O
  H15      1.0000 0.42160  0.44290  0.18410  Biso   1.000  H
  C36      1.0000 0.32180  0.67300  0.53150  Biso   1.000  C
  H16      1.0000 0.37050  0.62160  0.55280  Biso   1.000  H
  C37      1.0000 0.29490  0.70650  0.64930  Biso   1.000  C
  C38      1.0000 0.22280  0.78480  0.61890  Biso   1.000  C
  C39      1.0000 0.33800  0.64650  0.80280  Biso   1.000  C
  C40      1.0000 0.19340  0.83390  0.74140  Biso   1.000  C
  Ni1      1.0000 0.77296  0.00000  0.00569  Biso   1.000  Ni
  O33      1.0000 0.91690  0.00000  0.13000  Biso   1.000  O
  Ni2      1.0000 0.27296  0.50000  0.00569  Biso   1.000  Ni
  O34      1.0000 0.41690  0.50000  0.13000  Biso   1.000  O
  Ni3      1.0000 0.22704  0.00000  0.99431  Biso   1.000  Ni
  O35      1.0000 0.08310  0.00000  0.87000  Biso   1.000  O
  Ni4      1.0000 0.72704  0.50000  0.99431  Biso   1.000  Ni
  O36      1.0000 0.58310  0.50000  0.87000  Biso   1.000  O
  Ni5      1.0000 0.00000  0.00000  0.00000  Biso   1.000  Ni
  Ni6      1.0000 0.50000  0.50000  0.00000  Biso   1.000  Ni
