data_QOZDOY_clean
_audit_creation_date              2014-07-02
_audit_creation_method            'Materials Studio'
_symmetry_space_group_name_H-M    'P1'
_symmetry_Int_Tables_number       1
_symmetry_cell_setting            triclinic
loop_
_symmetry_equiv_pos_as_xyz
  x,y,z
_cell_length_a                    12.0050
_cell_length_b                    12.4710
_cell_length_c                    13.8040
_cell_angle_alpha                 90.0000
_cell_angle_beta                  90.0000
_cell_angle_gamma                 90.0000
loop_
_atom_site_label
_atom_site_type_symbol
_atom_site_fract_x
_atom_site_fract_y
_atom_site_fract_z
_atom_site_U_iso_or_equiv
_atom_site_adp_type
_atom_site_occupancy
Zn1    Zn    0.80346   0.25000   0.00000   0.01267  Uiso   1.00
Zn2    Zn    0.30346   0.75000   0.50000   0.01267  Uiso   1.00
H1     H     0.42900   0.61380   0.18150   0.01267  Uiso   1.00
H2     H     0.33230   0.71590   0.28920   0.01267  Uiso   1.00
H3     H     0.52160   0.62300   0.50070   0.01267  Uiso   1.00
H4     H     0.62540   0.51990   0.39760   0.01267  Uiso   1.00
H5     H     0.65300   0.43370   0.24220   0.01267  Uiso   1.00
H6     H     0.54410   0.51940   0.08630   0.01267  Uiso   1.00
H7     H     0.42900   0.88620   0.81850   0.01267  Uiso   1.00
H8     H     0.33230   0.78410   0.71080   0.01267  Uiso   1.00
H9     H     0.52160   0.87700   0.49930   0.01267  Uiso   1.00
H10    H     0.62540   0.98010   0.60240   0.01267  Uiso   1.00
H11    H     0.65300   0.06630   0.75780   0.01267  Uiso   1.00
H12    H     0.54410   0.98060   0.91370   0.01267  Uiso   1.00
H13    H     0.92900   0.11380   0.31850   0.01267  Uiso   1.00
H14    H     0.83230   0.21590   0.21080   0.01267  Uiso   1.00
H15    H     0.02160   0.12300   0.99930   0.01267  Uiso   1.00
H16    H     0.12540   0.01990   0.10240   0.01267  Uiso   1.00
H17    H     0.15300   0.93370   0.25780   0.01267  Uiso   1.00
H18    H     0.04410   0.01940   0.41370   0.01267  Uiso   1.00
H19    H     0.92900   0.38620   0.68150   0.01267  Uiso   1.00
H20    H     0.83230   0.28410   0.78920   0.01267  Uiso   1.00
H21    H     0.02160   0.37700   0.00070   0.01267  Uiso   1.00
H22    H     0.12540   0.48010   0.89760   0.01267  Uiso   1.00
H23    H     0.15300   0.56630   0.74220   0.01267  Uiso   1.00
H24    H     0.04410   0.48060   0.58630   0.01267  Uiso   1.00
C1     C     0.44890   0.61290   0.24660   0.01267  Uiso   1.00
C2     C     0.39050   0.67360   0.31190   0.01267  Uiso   1.00
C3     C     0.50120   0.61970   0.43580   0.01267  Uiso   1.00
C4     C     0.56430   0.55740   0.37380   0.01267  Uiso   1.00
C5     C     0.53710   0.55060   0.27700   0.01267  Uiso   1.00
C6     C     0.60210   0.47940   0.21270   0.01267  Uiso   1.00
C7     C     0.59460   0.47450   0.11750   0.01267  Uiso   1.00
C8     C     0.66340   0.40020   0.05740   0.01267  Uiso   1.00
C9     C     0.44890   0.88710   0.75340   0.01267  Uiso   1.00
C10    C     0.39050   0.82640   0.68810   0.01267  Uiso   1.00
C11    C     0.50120   0.88030   0.56420   0.01267  Uiso   1.00
C12    C     0.56430   0.94260   0.62620   0.01267  Uiso   1.00
C13    C     0.53710   0.94940   0.72300   0.01267  Uiso   1.00
C14    C     0.60210   0.02060   0.78730   0.01267  Uiso   1.00
C15    C     0.59460   0.02550   0.88250   0.01267  Uiso   1.00
C16    C     0.66340   0.09980   0.94260   0.01267  Uiso   1.00
C17    C     0.94890   0.11290   0.25340   0.01267  Uiso   1.00
C18    C     0.89050   0.17360   0.18810   0.01267  Uiso   1.00
C19    C     0.00120   0.11970   0.06420   0.01267  Uiso   1.00
C20    C     0.06430   0.05740   0.12620   0.01267  Uiso   1.00
C21    C     0.03710   0.05060   0.22300   0.01267  Uiso   1.00
C22    C     0.10210   0.97940   0.28730   0.01267  Uiso   1.00
C23    C     0.09460   0.97450   0.38250   0.01267  Uiso   1.00
C24    C     0.16340   0.90020   0.44260   0.01267  Uiso   1.00
C25    C     0.94890   0.38710   0.74660   0.01267  Uiso   1.00
C26    C     0.89050   0.32640   0.81190   0.01267  Uiso   1.00
C27    C     0.00120   0.38030   0.93580   0.01267  Uiso   1.00
C28    C     0.06430   0.44260   0.87380   0.01267  Uiso   1.00
C29    C     0.03710   0.44940   0.77700   0.01267  Uiso   1.00
C30    C     0.10210   0.52060   0.71270   0.01267  Uiso   1.00
C31    C     0.09460   0.52550   0.61750   0.01267  Uiso   1.00
C32    C     0.16340   0.59980   0.55740   0.01267  Uiso   1.00
N1     N     0.41320   0.67490   0.40680   0.01267  Uiso   1.00
N2     N     0.41320   0.82510   0.59320   0.01267  Uiso   1.00
N3     N     0.91320   0.17490   0.09320   0.01267  Uiso   1.00
N4     N     0.91320   0.32510   0.90680   0.01267  Uiso   1.00
O1     O     0.65080   0.39850   0.96950   0.01267  Uiso   1.00
O2     O     0.73720   0.34430   0.09870   0.01267  Uiso   1.00
O3     O     0.65080   0.10150   0.03050   0.01267  Uiso   1.00
O4     O     0.73720   0.15570   0.90130   0.01267  Uiso   1.00
O5     O     0.15080   0.89850   0.53050   0.01267  Uiso   1.00
O6     O     0.23720   0.84430   0.40130   0.01267  Uiso   1.00
O7     O     0.15080   0.60150   0.46950   0.01267  Uiso   1.00
O8     O     0.23720   0.65570   0.59870   0.01267  Uiso   1.00
Zn3    Zn    0.69654   0.25000   0.50000   0.01267  Uiso   1.00
Zn4    Zn    0.19654   0.75000   0.00000   0.01267  Uiso   1.00
H25    H     0.07100   0.88620   0.68150   0.01267  Uiso   1.00
H26    H     0.16770   0.78410   0.78920   0.01267  Uiso   1.00
H27    H     0.97840   0.87700   0.00070   0.01267  Uiso   1.00
H28    H     0.87460   0.98010   0.89760   0.01267  Uiso   1.00
H29    H     0.84700   0.06630   0.74220   0.01267  Uiso   1.00
H30    H     0.95590   0.98060   0.58630   0.01267  Uiso   1.00
H31    H     0.07100   0.61380   0.31850   0.01267  Uiso   1.00
H32    H     0.16770   0.71590   0.21080   0.01267  Uiso   1.00
H33    H     0.97840   0.62300   0.99930   0.01267  Uiso   1.00
H34    H     0.87460   0.51990   0.10240   0.01267  Uiso   1.00
H35    H     0.84700   0.43370   0.25780   0.01267  Uiso   1.00
H36    H     0.95590   0.51940   0.41370   0.01267  Uiso   1.00
H37    H     0.57100   0.38620   0.81850   0.01267  Uiso   1.00
H38    H     0.66770   0.28410   0.71080   0.01267  Uiso   1.00
H39    H     0.47840   0.37700   0.49930   0.01267  Uiso   1.00
H40    H     0.37460   0.48010   0.60240   0.01267  Uiso   1.00
H41    H     0.34700   0.56630   0.75780   0.01267  Uiso   1.00
H42    H     0.45590   0.48060   0.91370   0.01267  Uiso   1.00
H43    H     0.57100   0.11380   0.18150   0.01267  Uiso   1.00
H44    H     0.66770   0.21590   0.28920   0.01267  Uiso   1.00
H45    H     0.47840   0.12300   0.50070   0.01267  Uiso   1.00
H46    H     0.37460   0.01990   0.39760   0.01267  Uiso   1.00
H47    H     0.34700   0.93370   0.24220   0.01267  Uiso   1.00
H48    H     0.45590   0.01940   0.08630   0.01267  Uiso   1.00
C33    C     0.05110   0.88710   0.74660   0.01267  Uiso   1.00
C34    C     0.10950   0.82640   0.81190   0.01267  Uiso   1.00
C35    C     0.99880   0.88030   0.93580   0.01267  Uiso   1.00
C36    C     0.93570   0.94260   0.87380   0.01267  Uiso   1.00
C37    C     0.96290   0.94940   0.77700   0.01267  Uiso   1.00
C38    C     0.89790   0.02060   0.71270   0.01267  Uiso   1.00
C39    C     0.90540   0.02550   0.61750   0.01267  Uiso   1.00
C40    C     0.83660   0.09980   0.55740   0.01267  Uiso   1.00
C41    C     0.05110   0.61290   0.25340   0.01267  Uiso   1.00
C42    C     0.10950   0.67360   0.18810   0.01267  Uiso   1.00
C43    C     0.99880   0.61970   0.06420   0.01267  Uiso   1.00
C44    C     0.93570   0.55740   0.12620   0.01267  Uiso   1.00
C45    C     0.96290   0.55060   0.22300   0.01267  Uiso   1.00
C46    C     0.89790   0.47940   0.28730   0.01267  Uiso   1.00
C47    C     0.90540   0.47450   0.38250   0.01267  Uiso   1.00
C48    C     0.83660   0.40020   0.44260   0.01267  Uiso   1.00
C49    C     0.55110   0.38710   0.75340   0.01267  Uiso   1.00
C50    C     0.60950   0.32640   0.68810   0.01267  Uiso   1.00
C51    C     0.49880   0.38030   0.56420   0.01267  Uiso   1.00
C52    C     0.43570   0.44260   0.62620   0.01267  Uiso   1.00
C53    C     0.46290   0.44940   0.72300   0.01267  Uiso   1.00
C54    C     0.39790   0.52060   0.78730   0.01267  Uiso   1.00
C55    C     0.40540   0.52550   0.88250   0.01267  Uiso   1.00
C56    C     0.33660   0.59980   0.94260   0.01267  Uiso   1.00
C57    C     0.55110   0.11290   0.24660   0.01267  Uiso   1.00
C58    C     0.60950   0.17360   0.31190   0.01267  Uiso   1.00
C59    C     0.49880   0.11970   0.43580   0.01267  Uiso   1.00
C60    C     0.43570   0.05740   0.37380   0.01267  Uiso   1.00
C61    C     0.46290   0.05060   0.27700   0.01267  Uiso   1.00
C62    C     0.39790   0.97940   0.21270   0.01267  Uiso   1.00
C63    C     0.40540   0.97450   0.11750   0.01267  Uiso   1.00
C64    C     0.33660   0.90020   0.05740   0.01267  Uiso   1.00
N5     N     0.08680   0.82510   0.90680   0.01267  Uiso   1.00
N6     N     0.08680   0.67490   0.09320   0.01267  Uiso   1.00
N7     N     0.58680   0.32510   0.59320   0.01267  Uiso   1.00
N8     N     0.58680   0.17490   0.40680   0.01267  Uiso   1.00
O9     O     0.84920   0.10150   0.46950   0.01267  Uiso   1.00
O10    O     0.76280   0.15570   0.59870   0.01267  Uiso   1.00
O11    O     0.84920   0.39850   0.53050   0.01267  Uiso   1.00
O12    O     0.76280   0.34430   0.40130   0.01267  Uiso   1.00
O13    O     0.34920   0.60150   0.03050   0.01267  Uiso   1.00
O14    O     0.26280   0.65570   0.90130   0.01267  Uiso   1.00
O15    O     0.34920   0.89850   0.96950   0.01267  Uiso   1.00
O16    O     0.26280   0.84430   0.09870   0.01267  Uiso   1.00
