data_QOZFUG_charged
_audit_creation_date              2014-07-02
_audit_creation_method            'Materials Studio'
_symmetry_space_group_name_H-M    'P1'
_symmetry_Int_Tables_number       1
_symmetry_cell_setting            triclinic
loop_
_symmetry_equiv_pos_as_xyz
  x,y,z
_cell_length_a                    13.6620
_cell_length_b                    18.9140
_cell_length_c                    23.1970
_cell_angle_alpha                 90.0000
_cell_angle_beta                  90.0000
_cell_angle_gamma                 110.0740
loop_
_atom_site_label
_atom_site_type_symbol
_atom_site_fract_x
_atom_site_fract_y
_atom_site_fract_z
_atom_site_U_iso_or_equiv
_atom_site_adp_type
_atom_site_occupancy
Cu1    Cu    0.62718   0.00636   0.78813   0.01267  Uiso   1.00
Cu2    Cu    0.37282   0.49364   0.28813   0.01267  Uiso   1.00
Cu3    Cu    0.37282   0.99364   0.21187   0.01267  Uiso   1.00
Cu4    Cu    0.62718   0.50636   0.71187   0.01267  Uiso   1.00
Cu5    Cu    0.00000   0.50000   0.50000   0.01267  Uiso   1.00
Cu6    Cu    0.00000   0.00000   0.00000   0.01267  Uiso   1.00
H1     H     0.17780   0.61650   0.86940   0.01267  Uiso   1.00
H2     H     0.02710   0.61740   0.70510   0.01267  Uiso   1.00
H3     H     0.32140   0.76780   0.72420   0.01267  Uiso   1.00
H4     H     0.32780   0.75720   0.87670   0.01267  Uiso   1.00
H5     H     0.37000   0.69210   0.86160   0.01267  Uiso   1.00
H6     H     0.44300   0.88560   0.84900   0.01267  Uiso   1.00
H7     H     0.63130   0.84560   0.73810   0.01267  Uiso   1.00
H8     H     0.50400   0.71130   0.76070   0.01267  Uiso   1.00
H9     H     0.12360   0.74340   0.64390   0.01267  Uiso   1.00
H10    H     0.24560   0.76730   0.64390   0.01267  Uiso   1.00
H11    H     0.02490   0.63030   0.58390   0.01267  Uiso   1.00
H12    H     0.24760   0.55310   0.54150   0.01267  Uiso   1.00
H13    H     0.32170   0.66120   0.60640   0.01267  Uiso   1.00
H14    H     0.02870   0.50190   0.81820   0.01267  Uiso   1.00
H15    H     0.97580   0.55670   0.84340   0.01267  Uiso   1.00
H16    H     0.43550   0.44190   0.79010   0.01267  Uiso   1.00
H17    H     0.48340   0.60350   0.66510   0.01267  Uiso   1.00
H18    H     0.28640   0.57620   0.72830   0.01267  Uiso   1.00
H19    H     0.27800   0.44930   0.84430   0.01267  Uiso   1.00
H20    H     0.22830   0.50820   0.82320   0.01267  Uiso   1.00
H21    H     0.23500   0.40430   0.70520   0.01267  Uiso   1.00
H22    H     0.92170   0.25020   0.72100   0.01267  Uiso   1.00
H23    H     0.07810   0.39900   0.86700   0.01267  Uiso   1.00
H24    H     0.87220   0.32930   0.84400   0.01267  Uiso   1.00
H25    H     0.91410   0.26780   0.86850   0.01267  Uiso   1.00
H26    H     0.63270   0.15810   0.71890   0.01267  Uiso   1.00
H27    H     0.77190   0.30120   0.74030   0.01267  Uiso   1.00
H28    H     0.80190   0.13490   0.85030   0.01267  Uiso   1.00
H29    H     0.81530   0.56100   0.79400   0.01267  Uiso   1.00
H30    H     0.95620   0.44460   0.72470   0.01267  Uiso   1.00
H31    H     0.77670   0.41670   0.65800   0.01267  Uiso   1.00
H32    H     0.80670   0.34570   0.56010   0.01267  Uiso   1.00
H33    H     0.86110   0.26060   0.62490   0.01267  Uiso   1.00
H34    H     0.13830   0.42060   0.57590   0.01267  Uiso   1.00
H35    H     0.05170   0.24360   0.64100   0.01267  Uiso   1.00
H36    H     0.15280   0.31310   0.62930   0.01267  Uiso   1.00
H37    H     0.82220   0.88350   0.36940   0.01267  Uiso   1.00
H38    H     0.97290   0.88260   0.20510   0.01267  Uiso   1.00
H39    H     0.67860   0.73220   0.22420   0.01267  Uiso   1.00
H40    H     0.67220   0.74280   0.37670   0.01267  Uiso   1.00
H41    H     0.63000   0.80790   0.36160   0.01267  Uiso   1.00
H42    H     0.55700   0.61440   0.34900   0.01267  Uiso   1.00
H43    H     0.36870   0.65440   0.23810   0.01267  Uiso   1.00
H44    H     0.49600   0.78870   0.26070   0.01267  Uiso   1.00
H45    H     0.87640   0.75660   0.14390   0.01267  Uiso   1.00
H46    H     0.75440   0.73270   0.14390   0.01267  Uiso   1.00
H47    H     0.97510   0.86970   0.08390   0.01267  Uiso   1.00
H48    H     0.75240   0.94690   0.04150   0.01267  Uiso   1.00
H49    H     0.67830   0.83880   0.10640   0.01267  Uiso   1.00
H50    H     0.97130   0.99810   0.31820   0.01267  Uiso   1.00
H51    H     0.02420   0.94330   0.34340   0.01267  Uiso   1.00
H52    H     0.56450   0.05810   0.29010   0.01267  Uiso   1.00
H53    H     0.51660   0.89650   0.16510   0.01267  Uiso   1.00
H54    H     0.71360   0.92380   0.22830   0.01267  Uiso   1.00
H55    H     0.72200   0.05070   0.34430   0.01267  Uiso   1.00
H56    H     0.77170   0.99180   0.32320   0.01267  Uiso   1.00
H57    H     0.76500   0.09570   0.20520   0.01267  Uiso   1.00
H58    H     0.07830   0.24980   0.22100   0.01267  Uiso   1.00
H59    H     0.92190   0.10100   0.36700   0.01267  Uiso   1.00
H60    H     0.12780   0.17070   0.34400   0.01267  Uiso   1.00
H61    H     0.08590   0.23220   0.36850   0.01267  Uiso   1.00
H62    H     0.36730   0.34190   0.21890   0.01267  Uiso   1.00
H63    H     0.22810   0.19880   0.24030   0.01267  Uiso   1.00
H64    H     0.19810   0.36510   0.35030   0.01267  Uiso   1.00
H65    H     0.18470   0.93900   0.29400   0.01267  Uiso   1.00
H66    H     0.04380   0.05540   0.22470   0.01267  Uiso   1.00
H67    H     0.22330   0.08330   0.15800   0.01267  Uiso   1.00
H68    H     0.19330   0.15430   0.06010   0.01267  Uiso   1.00
H69    H     0.13890   0.23940   0.12490   0.01267  Uiso   1.00
H70    H     0.86170   0.07940   0.07590   0.01267  Uiso   1.00
H71    H     0.94830   0.25640   0.14100   0.01267  Uiso   1.00
H72    H     0.84720   0.18690   0.12930   0.01267  Uiso   1.00
H73    H     0.82220   0.38350   0.13060   0.01267  Uiso   1.00
H74    H     0.97290   0.38260   0.29490   0.01267  Uiso   1.00
H75    H     0.67860   0.23220   0.27580   0.01267  Uiso   1.00
H76    H     0.67220   0.24280   0.12330   0.01267  Uiso   1.00
H77    H     0.63000   0.30790   0.13840   0.01267  Uiso   1.00
H78    H     0.55700   0.11440   0.15100   0.01267  Uiso   1.00
H79    H     0.36870   0.15440   0.26190   0.01267  Uiso   1.00
H80    H     0.49600   0.28870   0.23930   0.01267  Uiso   1.00
H81    H     0.87640   0.25660   0.35610   0.01267  Uiso   1.00
H82    H     0.75440   0.23270   0.35610   0.01267  Uiso   1.00
H83    H     0.97510   0.36970   0.41610   0.01267  Uiso   1.00
H84    H     0.75240   0.44690   0.45850   0.01267  Uiso   1.00
H85    H     0.67830   0.33880   0.39360   0.01267  Uiso   1.00
H86    H     0.97130   0.49810   0.18180   0.01267  Uiso   1.00
H87    H     0.02420   0.44330   0.15660   0.01267  Uiso   1.00
H88    H     0.56450   0.55810   0.20990   0.01267  Uiso   1.00
H89    H     0.51660   0.39650   0.33490   0.01267  Uiso   1.00
H90    H     0.71360   0.42380   0.27170   0.01267  Uiso   1.00
H91    H     0.72200   0.55070   0.15570   0.01267  Uiso   1.00
H92    H     0.77170   0.49180   0.17680   0.01267  Uiso   1.00
H93    H     0.76500   0.59570   0.29480   0.01267  Uiso   1.00
H94    H     0.07830   0.74980   0.27900   0.01267  Uiso   1.00
H95    H     0.92190   0.60100   0.13300   0.01267  Uiso   1.00
H96    H     0.12780   0.67070   0.15600   0.01267  Uiso   1.00
H97    H     0.08590   0.73220   0.13150   0.01267  Uiso   1.00
H98    H     0.36730   0.84190   0.28110   0.01267  Uiso   1.00
H99    H     0.22810   0.69880   0.25970   0.01267  Uiso   1.00
H100   H     0.19810   0.86510   0.14970   0.01267  Uiso   1.00
H101   H     0.18470   0.43900   0.20600   0.01267  Uiso   1.00
H102   H     0.04380   0.55540   0.27530   0.01267  Uiso   1.00
H103   H     0.22330   0.58330   0.34200   0.01267  Uiso   1.00
H104   H     0.19330   0.65430   0.43990   0.01267  Uiso   1.00
H105   H     0.13890   0.73940   0.37510   0.01267  Uiso   1.00
H106   H     0.86170   0.57940   0.42410   0.01267  Uiso   1.00
H107   H     0.94830   0.75640   0.35900   0.01267  Uiso   1.00
H108   H     0.84720   0.68690   0.37070   0.01267  Uiso   1.00
H109   H     0.17780   0.11650   0.63060   0.01267  Uiso   1.00
H110   H     0.02710   0.11740   0.79490   0.01267  Uiso   1.00
H111   H     0.32140   0.26780   0.77580   0.01267  Uiso   1.00
H112   H     0.32780   0.25720   0.62330   0.01267  Uiso   1.00
H113   H     0.37000   0.19210   0.63840   0.01267  Uiso   1.00
H114   H     0.44300   0.38560   0.65100   0.01267  Uiso   1.00
H115   H     0.63130   0.34560   0.76190   0.01267  Uiso   1.00
H116   H     0.50400   0.21130   0.73930   0.01267  Uiso   1.00
H117   H     0.12360   0.24340   0.85610   0.01267  Uiso   1.00
H118   H     0.24560   0.26730   0.85610   0.01267  Uiso   1.00
H119   H     0.02490   0.13030   0.91610   0.01267  Uiso   1.00
H120   H     0.24760   0.05310   0.95850   0.01267  Uiso   1.00
H121   H     0.32170   0.16120   0.89360   0.01267  Uiso   1.00
H122   H     0.02870   0.00190   0.68180   0.01267  Uiso   1.00
H123   H     0.97580   0.05670   0.65660   0.01267  Uiso   1.00
H124   H     0.43550   0.94190   0.70990   0.01267  Uiso   1.00
H125   H     0.48340   0.10350   0.83490   0.01267  Uiso   1.00
H126   H     0.28640   0.07620   0.77170   0.01267  Uiso   1.00
H127   H     0.27800   0.94930   0.65570   0.01267  Uiso   1.00
H128   H     0.22830   0.00820   0.67680   0.01267  Uiso   1.00
H129   H     0.23500   0.90430   0.79480   0.01267  Uiso   1.00
H130   H     0.92170   0.75020   0.77900   0.01267  Uiso   1.00
H131   H     0.07810   0.89900   0.63300   0.01267  Uiso   1.00
H132   H     0.87220   0.82930   0.65600   0.01267  Uiso   1.00
H133   H     0.91410   0.76780   0.63150   0.01267  Uiso   1.00
H134   H     0.63270   0.65810   0.78110   0.01267  Uiso   1.00
H135   H     0.77190   0.80120   0.75970   0.01267  Uiso   1.00
H136   H     0.80190   0.63490   0.64970   0.01267  Uiso   1.00
H137   H     0.81530   0.06100   0.70600   0.01267  Uiso   1.00
H138   H     0.95620   0.94460   0.77530   0.01267  Uiso   1.00
H139   H     0.77670   0.91670   0.84200   0.01267  Uiso   1.00
H140   H     0.80670   0.84570   0.93990   0.01267  Uiso   1.00
H141   H     0.86110   0.76060   0.87510   0.01267  Uiso   1.00
H142   H     0.13830   0.92060   0.92410   0.01267  Uiso   1.00
H143   H     0.05170   0.74360   0.85900   0.01267  Uiso   1.00
H144   H     0.15280   0.81310   0.87070   0.01267  Uiso   1.00
C1     C     0.17610   0.64010   0.82260   0.01267  Uiso   1.00
C2     C     0.09140   0.60860   0.78550   0.01267  Uiso   1.00
C3     C     0.09380   0.63640   0.73030   0.01267  Uiso   1.00
C4     C     0.17810   0.69560   0.71120   0.01267  Uiso   1.00
C5     C     0.26220   0.72860   0.74870   0.01267  Uiso   1.00
C6     C     0.26200   0.70070   0.80320   0.01267  Uiso   1.00
C7     C     0.35080   0.73280   0.84540   0.01267  Uiso   1.00
C8     C     0.47440   0.86100   0.82440   0.01267  Uiso   1.00
C9     C     0.57660   0.83870   0.76380   0.01267  Uiso   1.00
C10    C     0.50750   0.77180   0.77820   0.01267  Uiso   1.00
C11    C     0.18130   0.72540   0.64970   0.01267  Uiso   1.00
C12    C     0.08930   0.62390   0.58150   0.01267  Uiso   1.00
C13    C     0.21160   0.58160   0.55820   0.01267  Uiso   1.00
C14    C     0.25280   0.64160   0.59410   0.01267  Uiso   1.00
C15    C     0.00220   0.54180   0.80840   0.01267  Uiso   1.00
C16    C     0.42480   0.47930   0.76760   0.01267  Uiso   1.00
C17    C     0.44330   0.56580   0.70420   0.01267  Uiso   1.00
C18    C     0.35110   0.55460   0.73170   0.01267  Uiso   1.00
C19    C     0.25380   0.46880   0.81050   0.01267  Uiso   1.00
C20    C     0.16360   0.40530   0.78320   0.01267  Uiso   1.00
C21    C     0.16750   0.38060   0.72780   0.01267  Uiso   1.00
C22    C     0.08220   0.32210   0.70500   0.01267  Uiso   1.00
C23    C     0.99310   0.29000   0.74020   0.01267  Uiso   1.00
C24    C     0.98910   0.31620   0.79430   0.01267  Uiso   1.00
C25    C     0.07550   0.37380   0.81730   0.01267  Uiso   1.00
C26    C     0.89500   0.28770   0.83350   0.01267  Uiso   1.00
C27    C     0.68290   0.16930   0.74780   0.01267  Uiso   1.00
C28    C     0.74980   0.23790   0.75890   0.01267  Uiso   1.00
C29    C     0.77540   0.15540   0.82020   0.01267  Uiso   1.00
C30    C     0.83000   0.52920   0.76750   0.01267  Uiso   1.00
C31    C     0.90810   0.46440   0.72180   0.01267  Uiso   1.00
C32    C     0.81750   0.45310   0.69640   0.01267  Uiso   1.00
C33    C     0.89360   0.35750   0.56590   0.01267  Uiso   1.00
C34    C     0.91580   0.30600   0.60070   0.01267  Uiso   1.00
C35    C     0.06000   0.39610   0.57870   0.01267  Uiso   1.00
C36    C     0.08170   0.29800   0.64340   0.01267  Uiso   1.00
C37    C     0.82390   0.85990   0.32260   0.01267  Uiso   1.00
C38    C     0.90860   0.89140   0.28550   0.01267  Uiso   1.00
C39    C     0.90620   0.86360   0.23030   0.01267  Uiso   1.00
C40    C     0.82190   0.80440   0.21120   0.01267  Uiso   1.00
C41    C     0.73780   0.77140   0.24870   0.01267  Uiso   1.00
C42    C     0.73800   0.79930   0.30320   0.01267  Uiso   1.00
C43    C     0.64920   0.76720   0.34540   0.01267  Uiso   1.00
C44    C     0.52560   0.63900   0.32440   0.01267  Uiso   1.00
C45    C     0.42340   0.66130   0.26380   0.01267  Uiso   1.00
C46    C     0.49250   0.72820   0.27820   0.01267  Uiso   1.00
C47    C     0.81870   0.77460   0.14970   0.01267  Uiso   1.00
C48    C     0.91070   0.87610   0.08150   0.01267  Uiso   1.00
C49    C     0.78840   0.91840   0.05820   0.01267  Uiso   1.00
C50    C     0.74720   0.85840   0.09410   0.01267  Uiso   1.00
C51    C     0.99780   0.95820   0.30840   0.01267  Uiso   1.00
C52    C     0.57520   0.02070   0.26760   0.01267  Uiso   1.00
C53    C     0.55670   0.93420   0.20420   0.01267  Uiso   1.00
C54    C     0.64890   0.94540   0.23170   0.01267  Uiso   1.00
C55    C     0.74620   0.03120   0.31050   0.01267  Uiso   1.00
C56    C     0.83640   0.09470   0.28320   0.01267  Uiso   1.00
C57    C     0.83250   0.11940   0.22780   0.01267  Uiso   1.00
C58    C     0.91780   0.17790   0.20500   0.01267  Uiso   1.00
C59    C     0.00690   0.21000   0.24020   0.01267  Uiso   1.00
C60    C     0.01090   0.18380   0.29430   0.01267  Uiso   1.00
C61    C     0.92450   0.12620   0.31730   0.01267  Uiso   1.00
C62    C     0.10500   0.21230   0.33350   0.01267  Uiso   1.00
C63    C     0.31710   0.33070   0.24780   0.01267  Uiso   1.00
C64    C     0.25020   0.26210   0.25890   0.01267  Uiso   1.00
C65    C     0.22460   0.34460   0.32020   0.01267  Uiso   1.00
C66    C     0.17000   0.97080   0.26750   0.01267  Uiso   1.00
C67    C     0.09190   0.03560   0.22180   0.01267  Uiso   1.00
C68    C     0.18250   0.04690   0.19640   0.01267  Uiso   1.00
C69    C     0.10640   0.14250   0.06590   0.01267  Uiso   1.00
C70    C     0.08420   0.19400   0.10070   0.01267  Uiso   1.00
C71    C     0.94000   0.10390   0.07870   0.01267  Uiso   1.00
C72    C     0.91830   0.20200   0.14340   0.01267  Uiso   1.00
C73    C     0.82390   0.35990   0.17740   0.01267  Uiso   1.00
C74    C     0.90860   0.39140   0.21450   0.01267  Uiso   1.00
C75    C     0.90620   0.36360   0.26970   0.01267  Uiso   1.00
C76    C     0.82190   0.30440   0.28880   0.01267  Uiso   1.00
C77    C     0.73780   0.27140   0.25130   0.01267  Uiso   1.00
C78    C     0.73800   0.29930   0.19680   0.01267  Uiso   1.00
C79    C     0.64920   0.26720   0.15460   0.01267  Uiso   1.00
C80    C     0.52560   0.13900   0.17560   0.01267  Uiso   1.00
C81    C     0.42340   0.16130   0.23620   0.01267  Uiso   1.00
C82    C     0.49250   0.22820   0.22180   0.01267  Uiso   1.00
C83    C     0.81870   0.27460   0.35030   0.01267  Uiso   1.00
C84    C     0.91070   0.37610   0.41850   0.01267  Uiso   1.00
C85    C     0.78840   0.41840   0.44180   0.01267  Uiso   1.00
C86    C     0.74720   0.35840   0.40590   0.01267  Uiso   1.00
C87    C     0.99780   0.45820   0.19160   0.01267  Uiso   1.00
C88    C     0.57520   0.52070   0.23240   0.01267  Uiso   1.00
C89    C     0.55670   0.43420   0.29580   0.01267  Uiso   1.00
C90    C     0.64890   0.44540   0.26830   0.01267  Uiso   1.00
C91    C     0.74620   0.53120   0.18950   0.01267  Uiso   1.00
C92    C     0.83640   0.59470   0.21680   0.01267  Uiso   1.00
C93    C     0.83250   0.61940   0.27220   0.01267  Uiso   1.00
C94    C     0.91780   0.67790   0.29500   0.01267  Uiso   1.00
C95    C     0.00690   0.71000   0.25980   0.01267  Uiso   1.00
C96    C     0.01090   0.68380   0.20570   0.01267  Uiso   1.00
C97    C     0.92450   0.62620   0.18270   0.01267  Uiso   1.00
C98    C     0.10500   0.71230   0.16650   0.01267  Uiso   1.00
C99    C     0.31710   0.83070   0.25220   0.01267  Uiso   1.00
C100   C     0.25020   0.76210   0.24110   0.01267  Uiso   1.00
C101   C     0.22460   0.84460   0.17980   0.01267  Uiso   1.00
C102   C     0.17000   0.47080   0.23250   0.01267  Uiso   1.00
C103   C     0.09190   0.53560   0.27820   0.01267  Uiso   1.00
C104   C     0.18250   0.54690   0.30360   0.01267  Uiso   1.00
C105   C     0.10640   0.64250   0.43410   0.01267  Uiso   1.00
C106   C     0.08420   0.69400   0.39930   0.01267  Uiso   1.00
C107   C     0.94000   0.60390   0.42130   0.01267  Uiso   1.00
C108   C     0.91830   0.70200   0.35660   0.01267  Uiso   1.00
C109   C     0.17610   0.14010   0.67740   0.01267  Uiso   1.00
C110   C     0.09140   0.10860   0.71450   0.01267  Uiso   1.00
C111   C     0.09380   0.13640   0.76970   0.01267  Uiso   1.00
C112   C     0.17810   0.19560   0.78880   0.01267  Uiso   1.00
C113   C     0.26220   0.22860   0.75130   0.01267  Uiso   1.00
C114   C     0.26200   0.20070   0.69680   0.01267  Uiso   1.00
C115   C     0.35080   0.23280   0.65460   0.01267  Uiso   1.00
C116   C     0.47440   0.36100   0.67560   0.01267  Uiso   1.00
C117   C     0.57660   0.33870   0.73620   0.01267  Uiso   1.00
C118   C     0.50750   0.27180   0.72180   0.01267  Uiso   1.00
C119   C     0.18130   0.22540   0.85030   0.01267  Uiso   1.00
C120   C     0.08930   0.12390   0.91850   0.01267  Uiso   1.00
C121   C     0.21160   0.08160   0.94180   0.01267  Uiso   1.00
C122   C     0.25280   0.14160   0.90590   0.01267  Uiso   1.00
C123   C     0.00220   0.04180   0.69160   0.01267  Uiso   1.00
C124   C     0.42480   0.97930   0.73240   0.01267  Uiso   1.00
C125   C     0.44330   0.06580   0.79580   0.01267  Uiso   1.00
C126   C     0.35110   0.05460   0.76830   0.01267  Uiso   1.00
C127   C     0.25380   0.96880   0.68950   0.01267  Uiso   1.00
C128   C     0.16360   0.90530   0.71680   0.01267  Uiso   1.00
C129   C     0.16750   0.88060   0.77220   0.01267  Uiso   1.00
C130   C     0.08220   0.82210   0.79500   0.01267  Uiso   1.00
C131   C     0.99310   0.79000   0.75980   0.01267  Uiso   1.00
C132   C     0.98910   0.81620   0.70570   0.01267  Uiso   1.00
C133   C     0.07550   0.87380   0.68270   0.01267  Uiso   1.00
C134   C     0.89500   0.78770   0.66650   0.01267  Uiso   1.00
C135   C     0.68290   0.66930   0.75220   0.01267  Uiso   1.00
C136   C     0.74980   0.73790   0.74110   0.01267  Uiso   1.00
C137   C     0.77540   0.65540   0.67980   0.01267  Uiso   1.00
C138   C     0.83000   0.02920   0.73250   0.01267  Uiso   1.00
C139   C     0.90810   0.96440   0.77820   0.01267  Uiso   1.00
C140   C     0.81750   0.95310   0.80360   0.01267  Uiso   1.00
C141   C     0.89360   0.85750   0.93410   0.01267  Uiso   1.00
C142   C     0.91580   0.80600   0.89930   0.01267  Uiso   1.00
C143   C     0.06000   0.89610   0.92130   0.01267  Uiso   1.00
C144   C     0.08170   0.79800   0.85660   0.01267  Uiso   1.00
N1     N     0.44250   0.78730   0.81780   0.01267  Uiso   1.00
N2     N     0.55620   0.89580   0.79200   0.01267  Uiso   1.00
N3     N     0.17490   0.66760   0.60860   0.01267  Uiso   1.00
N4     N     0.10690   0.57040   0.55090   0.01267  Uiso   1.00
N5     N     0.48920   0.51800   0.72770   0.01267  Uiso   1.00
N6     N     0.34130   0.50120   0.77140   0.01267  Uiso   1.00
N7     N     0.69820   0.11690   0.78480   0.01267  Uiso   1.00
N8     N     0.80840   0.22840   0.80510   0.01267  Uiso   1.00
N9     N     0.76610   0.49490   0.72440   0.01267  Uiso   1.00
N10    N     0.91650   0.51240   0.76780   0.01267  Uiso   1.00
N11    N     0.98430   0.41380   0.55280   0.01267  Uiso   1.00
N12    N     0.02190   0.33150   0.60740   0.01267  Uiso   1.00
N13    N     0.55750   0.71270   0.31780   0.01267  Uiso   1.00
N14    N     0.44380   0.60420   0.29200   0.01267  Uiso   1.00
N15    N     0.82510   0.83240   0.10860   0.01267  Uiso   1.00
N16    N     0.89310   0.92960   0.05090   0.01267  Uiso   1.00
N17    N     0.51080   0.98200   0.22770   0.01267  Uiso   1.00
N18    N     0.65870   0.99880   0.27140   0.01267  Uiso   1.00
N19    N     0.30180   0.38310   0.28480   0.01267  Uiso   1.00
N20    N     0.19160   0.27160   0.30510   0.01267  Uiso   1.00
N21    N     0.23390   0.00510   0.22440   0.01267  Uiso   1.00
N22    N     0.08350   0.98760   0.26780   0.01267  Uiso   1.00
N23    N     0.01570   0.08620   0.05280   0.01267  Uiso   1.00
N24    N     0.97810   0.16850   0.10740   0.01267  Uiso   1.00
N25    N     0.55750   0.21270   0.18220   0.01267  Uiso   1.00
N26    N     0.44380   0.10420   0.20800   0.01267  Uiso   1.00
N27    N     0.82510   0.33240   0.39140   0.01267  Uiso   1.00
N28    N     0.89310   0.42960   0.44910   0.01267  Uiso   1.00
N29    N     0.51080   0.48200   0.27230   0.01267  Uiso   1.00
N30    N     0.65870   0.49880   0.22860   0.01267  Uiso   1.00
N31    N     0.30180   0.88310   0.21520   0.01267  Uiso   1.00
N32    N     0.19160   0.77160   0.19490   0.01267  Uiso   1.00
N33    N     0.23390   0.50510   0.27560   0.01267  Uiso   1.00
N34    N     0.08350   0.48760   0.23220   0.01267  Uiso   1.00
N35    N     0.01570   0.58620   0.44720   0.01267  Uiso   1.00
N36    N     0.97810   0.66850   0.39260   0.01267  Uiso   1.00
N37    N     0.44250   0.28730   0.68220   0.01267  Uiso   1.00
N38    N     0.55620   0.39580   0.70800   0.01267  Uiso   1.00
N39    N     0.17490   0.16760   0.89140   0.01267  Uiso   1.00
N40    N     0.10690   0.07040   0.94910   0.01267  Uiso   1.00
N41    N     0.48920   0.01800   0.77230   0.01267  Uiso   1.00
N42    N     0.34130   0.00120   0.72860   0.01267  Uiso   1.00
N43    N     0.69820   0.61690   0.71520   0.01267  Uiso   1.00
N44    N     0.80840   0.72840   0.69490   0.01267  Uiso   1.00
N45    N     0.76610   0.99490   0.77560   0.01267  Uiso   1.00
N46    N     0.91650   0.01240   0.73220   0.01267  Uiso   1.00
N47    N     0.98430   0.91380   0.94720   0.01267  Uiso   1.00
N48    N     0.02190   0.83150   0.89260   0.01267  Uiso   1.00
