data_QOZPOM_clean
_audit_creation_date              2015-10-16
_audit_creation_method            'Materials Studio'
_symmetry_space_group_name_H-M    'P1'
_symmetry_Int_Tables_number       1
_symmetry_cell_setting            triclinic
loop_
_symmetry_equiv_pos_as_xyz
  x,y,z
_cell_length_a                    10.3265
_cell_length_b                    14.1976
_cell_length_c                    18.2477
_cell_angle_alpha                 90.0000
_cell_angle_beta                  93.7590
_cell_angle_gamma                 90.0000
loop_
_atom_site_label
_atom_site_type_symbol
_atom_site_fract_x
_atom_site_fract_y
_atom_site_fract_z
_atom_site_U_iso_or_equiv
_atom_site_adp_type
_atom_site_occupancy
Zn1    Zn    0.21948   0.98943   0.23927   0.01267  Uiso   1.00
Zn2    Zn    0.71948   0.51057   0.23927   0.01267  Uiso   1.00
Zn3    Zn    0.28052   0.48943   0.76073   0.01267  Uiso   1.00
Zn4    Zn    0.78052   0.01057   0.76073   0.01267  Uiso   1.00
H1     H     0.86050   0.62400   0.02580   0.01267  Uiso   1.00
H2     H     0.54940   0.22180   0.57700   0.01267  Uiso   1.00
H3     H     0.91440   0.71680   0.24230   0.01267  Uiso   1.00
H4     H     0.16010   0.79250   0.78950   0.01267  Uiso   1.00
H5     H     0.63950   0.12400   0.97420   0.01267  Uiso   1.00
H6     H     0.90800   0.26590   0.05120   0.01267  Uiso   1.00
H7     H     0.65430   0.36420   0.10880   0.01267  Uiso   1.00
H8     H     0.13950   0.37600   0.97420   0.01267  Uiso   1.00
H9     H     0.08560   0.28320   0.75770   0.01267  Uiso   1.00
H10    H     0.65550   0.63550   0.37710   0.01267  Uiso   1.00
H11    H     0.32640   0.10420   0.47900   0.01267  Uiso   1.00
H12    H     0.09200   0.73410   0.94880   0.01267  Uiso   1.00
H13    H     0.04940   0.27820   0.57700   0.01267  Uiso   1.00
H14    H     0.66010   0.70750   0.78950   0.01267  Uiso   1.00
H15    H     0.58560   0.21680   0.75770   0.01267  Uiso   1.00
H16    H     0.40800   0.23410   0.05120   0.01267  Uiso   1.00
H17    H     0.84450   0.13550   0.62290   0.01267  Uiso   1.00
H18    H     0.34570   0.63580   0.89120   0.01267  Uiso   1.00
H19    H     0.83990   0.20750   0.21050   0.01267  Uiso   1.00
H20    H     0.36050   0.87600   0.02580   0.01267  Uiso   1.00
H21    H     0.95060   0.72180   0.42300   0.01267  Uiso   1.00
H22    H     0.59200   0.76590   0.94880   0.01267  Uiso   1.00
H23    H     0.17360   0.60420   0.52100   0.01267  Uiso   1.00
H24    H     0.67360   0.89580   0.52100   0.01267  Uiso   1.00
H25    H     0.45060   0.77820   0.42300   0.01267  Uiso   1.00
H26    H     0.84570   0.86420   0.89120   0.01267  Uiso   1.00
H27    H     0.15430   0.13580   0.10880   0.01267  Uiso   1.00
H28    H     0.15550   0.86450   0.37710   0.01267  Uiso   1.00
H29    H     0.34450   0.36450   0.62290   0.01267  Uiso   1.00
H30    H     0.41440   0.78320   0.24230   0.01267  Uiso   1.00
H31    H     0.82640   0.39580   0.47900   0.01267  Uiso   1.00
H32    H     0.33990   0.29250   0.21050   0.01267  Uiso   1.00
C1     C     0.58820   0.36246   0.14259   0.01267  Uiso   1.00
C2     C     0.43350   0.00142   0.06437   0.01267  Uiso   1.00
C3     C     0.56900   0.99840   0.56849   0.01267  Uiso   1.00
C4     C     0.47450   0.73670   0.26030   0.01267  Uiso   1.00
C5     C     0.91180   0.86246   0.85741   0.01267  Uiso   1.00
C6     C     0.60300   0.93810   0.51267   0.01267  Uiso   1.00
C7     C     0.91690   0.57364   0.01537   0.01267  Uiso   1.00
C8     C     0.41180   0.63754   0.85741   0.01267  Uiso   1.00
C9     C     0.48280   0.92495   0.95134   0.01267  Uiso   1.00
C10    C     0.10550   0.84350   0.33471   0.01267  Uiso   1.00
C11    C     0.96560   0.43988   0.55469   0.01267  Uiso   1.00
C12    C     0.41650   0.32420   0.19825   0.01267  Uiso   1.00
C13    C     0.85890   0.49676   0.13221   0.01267  Uiso   1.00
C14    C     0.57620   0.87050   0.38866   0.01267  Uiso   1.00
C15    C     0.89450   0.15650   0.66529   0.01267  Uiso   1.00
C16    C     0.08350   0.82420   0.80175   0.01267  Uiso   1.00
C17    C     0.02550   0.23670   0.73970   0.01267  Uiso   1.00
C18    C     0.43100   0.00160   0.43151   0.01267  Uiso   1.00
C19    C     0.03440   0.56012   0.44531   0.01267  Uiso   1.00
C20    C     0.39450   0.34350   0.66529   0.01267  Uiso   1.00
C21    C     0.01720   0.42495   0.04866   0.01267  Uiso   1.00
C22    C     0.56650   0.99858   0.93563   0.01267  Uiso   1.00
C23    C     0.95410   0.65553   0.89891   0.01267  Uiso   1.00
C24    C     0.93350   0.49858   0.06437   0.01267  Uiso   1.00
C25    C     0.14110   0.50324   0.86779   0.01267  Uiso   1.00
C26    C     0.35630   0.00050   0.35763   0.01267  Uiso   1.00
C27    C     0.07620   0.62950   0.38866   0.01267  Uiso   1.00
C28    C     0.93100   0.49840   0.43151   0.01267  Uiso   1.00
C29    C     0.08310   0.42636   0.98463   0.01267  Uiso   1.00
C30    C     0.14370   0.50050   0.64237   0.01267  Uiso   1.00
C31    C     0.08820   0.13754   0.14259   0.01267  Uiso   1.00
C32    C     0.91650   0.17580   0.19825   0.01267  Uiso   1.00
C33    C     0.52550   0.26330   0.73970   0.01267  Uiso   1.00
C34    C     0.35890   0.00324   0.13221   0.01267  Uiso   1.00
C35    C     0.89700   0.43810   0.48733   0.01267  Uiso   1.00
C36    C     0.46560   0.06012   0.55469   0.01267  Uiso   1.00
C37    C     0.98280   0.57505   0.95134   0.01267  Uiso   1.00
C38    C     0.85630   0.49950   0.35763   0.01267  Uiso   1.00
C39    C     0.42380   0.12950   0.61134   0.01267  Uiso   1.00
C40    C     0.64370   0.99950   0.64237   0.01267  Uiso   1.00
C41    C     0.06650   0.50142   0.93563   0.01267  Uiso   1.00
C42    C     0.64110   0.99676   0.86779   0.01267  Uiso   1.00
C43    C     0.92380   0.37050   0.61134   0.01267  Uiso   1.00
C44    C     0.51720   0.07505   0.04866   0.01267  Uiso   1.00
C45    C     0.97450   0.76330   0.26030   0.01267  Uiso   1.00
C46    C     0.54590   0.15553   0.10109   0.01267  Uiso   1.00
C47    C     0.10300   0.56190   0.51267   0.01267  Uiso   1.00
C48    C     0.04590   0.34447   0.10109   0.01267  Uiso   1.00
C49    C     0.58350   0.67580   0.80175   0.01267  Uiso   1.00
C50    C     0.06900   0.50160   0.56849   0.01267  Uiso   1.00
C51    C     0.39700   0.06190   0.48733   0.01267  Uiso   1.00
C52    C     0.58310   0.07364   0.98463   0.01267  Uiso   1.00
C53    C     0.45410   0.84447   0.89891   0.01267  Uiso   1.00
C54    C     0.41690   0.92636   0.01537   0.01267  Uiso   1.00
C55    C     0.60550   0.65650   0.33471   0.01267  Uiso   1.00
C56    C     0.53440   0.93988   0.44531   0.01267  Uiso   1.00
N1     N     0.02800   0.89263   0.76393   0.01267  Uiso   1.00
N2     N     0.51550   0.69514   0.86168   0.01267  Uiso   1.00
N3     N     0.01550   0.80486   0.86168   0.01267  Uiso   1.00
N4     N     0.96650   0.26827   0.08845   0.01267  Uiso   1.00
N5     N     0.97200   0.10737   0.23607   0.01267  Uiso   1.00
N6     N     0.10670   0.88022   0.26870   0.01267  Uiso   1.00
N7     N     0.97560   0.17090   0.77944   0.01267  Uiso   1.00
N8     N     0.89330   0.11978   0.73130   0.01267  Uiso   1.00
N9     N     0.52440   0.67090   0.22056   0.01267  Uiso   1.00
N10    N     0.47560   0.32910   0.77944   0.01267  Uiso   1.00
N11    N     0.98450   0.19514   0.13832   0.01267  Uiso   1.00
N12    N     0.49540   0.20995   0.61120   0.01267  Uiso   1.00
N13    N     0.99540   0.29005   0.61120   0.01267  Uiso   1.00
N14    N     0.03350   0.73173   0.91155   0.01267  Uiso   1.00
N15    N     0.02180   0.77174   0.33193   0.01267  Uiso   1.00
N16    N     0.08330   0.08433   0.20073   0.01267  Uiso   1.00
N17    N     0.53350   0.76827   0.91155   0.01267  Uiso   1.00
N18    N     0.46650   0.23173   0.08845   0.01267  Uiso   1.00
N19    N     0.97820   0.22826   0.66807   0.01267  Uiso   1.00
N20    N     0.02440   0.82910   0.22056   0.01267  Uiso   1.00
N21    N     0.47200   0.39263   0.23607   0.01267  Uiso   1.00
N22    N     0.60670   0.61978   0.26870   0.01267  Uiso   1.00
N23    N     0.47820   0.27174   0.66807   0.01267  Uiso   1.00
N24    N     0.91670   0.91567   0.79927   0.01267  Uiso   1.00
N25    N     0.58330   0.41567   0.20073   0.01267  Uiso   1.00
N26    N     0.50460   0.79005   0.38880   0.01267  Uiso   1.00
N27    N     0.41670   0.58433   0.79927   0.01267  Uiso   1.00
N28    N     0.48450   0.30486   0.13832   0.01267  Uiso   1.00
N29    N     0.39330   0.38022   0.73130   0.01267  Uiso   1.00
N30    N     0.52180   0.72826   0.33193   0.01267  Uiso   1.00
N31    N     0.00460   0.70995   0.38880   0.01267  Uiso   1.00
N32    N     0.52800   0.60737   0.76393   0.01267  Uiso   1.00
O1     O     0.13237   0.57394   0.82687   0.01267  Uiso   1.00
O2     O     0.28730   0.93372   0.14459   0.01267  Uiso   1.00
O3     O     0.66770   0.88113   0.35131   0.01267  Uiso   1.00
O4     O     0.33230   0.11887   0.64869   0.01267  Uiso   1.00
O5     O     0.86763   0.42606   0.17313   0.01267  Uiso   1.00
O6     O     0.86111   0.65561   0.85486   0.01267  Uiso   1.00
O7     O     0.21270   0.43372   0.85541   0.01267  Uiso   1.00
O8     O     0.26580   0.05560   0.34601   0.01267  Uiso   1.00
O9     O     0.63237   0.92606   0.82687   0.01267  Uiso   1.00
O10    O     0.36763   0.07394   0.17313   0.01267  Uiso   1.00
O11    O     0.11380   0.44316   0.68975   0.01267  Uiso   1.00
O12    O     0.38620   0.94316   0.31025   0.01267  Uiso   1.00
O13    O     0.78730   0.56628   0.14459   0.01267  Uiso   1.00
O14    O     0.88620   0.55684   0.31025   0.01267  Uiso   1.00
O15    O     0.73420   0.94440   0.65399   0.01267  Uiso   1.00
O16    O     0.76580   0.44440   0.34601   0.01267  Uiso   1.00
O17    O     0.71270   0.06628   0.85541   0.01267  Uiso   1.00
O18    O     0.83230   0.38113   0.64869   0.01267  Uiso   1.00
O19    O     0.61380   0.05684   0.68975   0.01267  Uiso   1.00
O20    O     0.16770   0.61887   0.35131   0.01267  Uiso   1.00
O21    O     0.13889   0.34439   0.14514   0.01267  Uiso   1.00
O22    O     0.36111   0.84439   0.85486   0.01267  Uiso   1.00
O23    O     0.63889   0.15561   0.14514   0.01267  Uiso   1.00
O24    O     0.23420   0.55560   0.65399   0.01267  Uiso   1.00
