data_QQQGTA01_clean
_audit_creation_date              2014-07-02
_audit_creation_method            'Materials Studio'
_symmetry_space_group_name_H-M    'P1'
_symmetry_Int_Tables_number       1
_symmetry_cell_setting            triclinic
loop_
_symmetry_equiv_pos_as_xyz
  x,y,z
_cell_length_a                    10.6823
_cell_length_b                    10.6823
_cell_length_c                    10.6823
_cell_angle_alpha                 106.0040
_cell_angle_beta                  106.0040
_cell_angle_gamma                 106.0040
loop_
_atom_site_label
_atom_site_type_symbol
_atom_site_fract_x
_atom_site_fract_y
_atom_site_fract_z
_atom_site_U_iso_or_equiv
_atom_site_adp_type
_atom_site_occupancy
Cd1    Cd    0.25049   0.71545   0.98493   0.01267  Uiso   1.00
Cd2    Cd    0.98493   0.25049   0.71545   0.01267  Uiso   1.00
Cd3    Cd    0.71545   0.98493   0.25049   0.01267  Uiso   1.00
Cd4    Cd    0.74951   0.28455   0.01507   0.01267  Uiso   1.00
Cd5    Cd    0.01507   0.74951   0.28455   0.01267  Uiso   1.00
Cd6    Cd    0.28455   0.01507   0.74951   0.01267  Uiso   1.00
H1     H     0.85690   0.70150   0.62990   0.01267  Uiso   1.00
H2     H     0.94540   0.88630   0.71180   0.01267  Uiso   1.00
H3     H     0.62990   0.85690   0.70150   0.01267  Uiso   1.00
H4     H     0.71180   0.94540   0.88630   0.01267  Uiso   1.00
H5     H     0.70150   0.62990   0.85690   0.01267  Uiso   1.00
H6     H     0.88630   0.71180   0.94540   0.01267  Uiso   1.00
H7     H     0.14310   0.29850   0.37010   0.01267  Uiso   1.00
H8     H     0.05460   0.11370   0.28820   0.01267  Uiso   1.00
H9     H     0.37010   0.14310   0.29850   0.01267  Uiso   1.00
H10    H     0.28820   0.05460   0.11370   0.01267  Uiso   1.00
H11    H     0.29850   0.37010   0.14310   0.01267  Uiso   1.00
H12    H     0.11370   0.28820   0.05460   0.01267  Uiso   1.00
C1     C     0.06540   0.76440   0.78270   0.01267  Uiso   1.00
C2     C     0.95170   0.77510   0.66970   0.01267  Uiso   1.00
C3     C     0.98290   0.77570   0.53920   0.01267  Uiso   1.00
C4     C     0.78270   0.06540   0.76440   0.01267  Uiso   1.00
C5     C     0.66970   0.95170   0.77510   0.01267  Uiso   1.00
C6     C     0.53920   0.98290   0.77570   0.01267  Uiso   1.00
C7     C     0.76440   0.78270   0.06540   0.01267  Uiso   1.00
C8     C     0.77510   0.66970   0.95170   0.01267  Uiso   1.00
C9     C     0.77570   0.53920   0.98290   0.01267  Uiso   1.00
C10    C     0.93460   0.23560   0.21730   0.01267  Uiso   1.00
C11    C     0.04830   0.22490   0.33030   0.01267  Uiso   1.00
C12    C     0.01710   0.22430   0.46080   0.01267  Uiso   1.00
C13    C     0.21730   0.93460   0.23560   0.01267  Uiso   1.00
C14    C     0.33030   0.04830   0.22490   0.01267  Uiso   1.00
C15    C     0.46080   0.01710   0.22430   0.01267  Uiso   1.00
C16    C     0.23560   0.21730   0.93460   0.01267  Uiso   1.00
C17    C     0.22490   0.33030   0.04830   0.01267  Uiso   1.00
C18    C     0.22430   0.46080   0.01710   0.01267  Uiso   1.00
O1     O     0.18910   0.85530   0.83570   0.01267  Uiso   1.00
O2     O     0.03320   0.66670   0.82350   0.01267  Uiso   1.00
O3     O     0.13480   0.45160   0.90790   0.01267  Uiso   1.00
O4     O     0.31700   0.57860   0.10570   0.01267  Uiso   1.00
O5     O     0.83570   0.18910   0.85530   0.01267  Uiso   1.00
O6     O     0.82350   0.03320   0.66670   0.01267  Uiso   1.00
O7     O     0.90790   0.13480   0.45160   0.01267  Uiso   1.00
O8     O     0.10570   0.31700   0.57860   0.01267  Uiso   1.00
O9     O     0.85530   0.83570   0.18910   0.01267  Uiso   1.00
O10    O     0.66670   0.82350   0.03320   0.01267  Uiso   1.00
O11    O     0.45160   0.90790   0.13480   0.01267  Uiso   1.00
O12    O     0.57860   0.10570   0.31700   0.01267  Uiso   1.00
O13    O     0.81090   0.14470   0.16430   0.01267  Uiso   1.00
O14    O     0.96680   0.33330   0.17650   0.01267  Uiso   1.00
O15    O     0.86520   0.54840   0.09210   0.01267  Uiso   1.00
O16    O     0.68300   0.42140   0.89430   0.01267  Uiso   1.00
O17    O     0.16430   0.81090   0.14470   0.01267  Uiso   1.00
O18    O     0.17650   0.96680   0.33330   0.01267  Uiso   1.00
O19    O     0.09210   0.86520   0.54840   0.01267  Uiso   1.00
O20    O     0.89430   0.68300   0.42140   0.01267  Uiso   1.00
O21    O     0.14470   0.16430   0.81090   0.01267  Uiso   1.00
O22    O     0.33330   0.17650   0.96680   0.01267  Uiso   1.00
O23    O     0.54840   0.09210   0.86520   0.01267  Uiso   1.00
O24    O     0.42140   0.89430   0.68300   0.01267  Uiso   1.00
