data_QQQGTA02_clean
_audit_creation_date              2014-07-02
_audit_creation_method            'Materials Studio'
_symmetry_space_group_name_H-M    'P1'
_symmetry_Int_Tables_number       1
_symmetry_cell_setting            triclinic
loop_
_symmetry_equiv_pos_as_xyz
  x,y,z
_cell_length_a                    10.6678
_cell_length_b                    10.6678
_cell_length_c                    10.6678
_cell_angle_alpha                 105.9650
_cell_angle_beta                  105.9650
_cell_angle_gamma                 105.9650
loop_
_atom_site_label
_atom_site_type_symbol
_atom_site_fract_x
_atom_site_fract_y
_atom_site_fract_z
_atom_site_U_iso_or_equiv
_atom_site_adp_type
_atom_site_occupancy
Cd1    Cd    0.98507   0.25033   0.71544   0.01267  Uiso   1.00
Cd2    Cd    0.71544   0.98507   0.25033   0.01267  Uiso   1.00
Cd3    Cd    0.25033   0.71544   0.98507   0.01267  Uiso   1.00
Cd4    Cd    0.01493   0.74967   0.28456   0.01267  Uiso   1.00
Cd5    Cd    0.28456   0.01493   0.74967   0.01267  Uiso   1.00
Cd6    Cd    0.74967   0.28456   0.01493   0.01267  Uiso   1.00
H1     H     0.30120   0.35790   0.13600   0.01267  Uiso   1.00
H2     H     0.13690   0.29080   0.06080   0.01267  Uiso   1.00
H3     H     0.13600   0.30120   0.35790   0.01267  Uiso   1.00
H4     H     0.06080   0.13690   0.29080   0.01267  Uiso   1.00
H5     H     0.35790   0.13600   0.30120   0.01267  Uiso   1.00
H6     H     0.29080   0.06080   0.13690   0.01267  Uiso   1.00
H7     H     0.69880   0.64210   0.86400   0.01267  Uiso   1.00
H8     H     0.86310   0.70920   0.93920   0.01267  Uiso   1.00
H9     H     0.86400   0.69880   0.64210   0.01267  Uiso   1.00
H10    H     0.93920   0.86310   0.70920   0.01267  Uiso   1.00
H11    H     0.64210   0.86400   0.69880   0.01267  Uiso   1.00
H12    H     0.70920   0.93920   0.86310   0.01267  Uiso   1.00
C1     C     0.23530   0.21770   0.93470   0.01267  Uiso   1.00
C2     C     0.22370   0.33070   0.04810   0.01267  Uiso   1.00
C3     C     0.22530   0.46120   0.01830   0.01267  Uiso   1.00
C4     C     0.93470   0.23530   0.21770   0.01267  Uiso   1.00
C5     C     0.04810   0.22370   0.33070   0.01267  Uiso   1.00
C6     C     0.01830   0.22530   0.46120   0.01267  Uiso   1.00
C7     C     0.21770   0.93470   0.23530   0.01267  Uiso   1.00
C8     C     0.33070   0.04810   0.22370   0.01267  Uiso   1.00
C9     C     0.46120   0.01830   0.22530   0.01267  Uiso   1.00
C10    C     0.76470   0.78230   0.06530   0.01267  Uiso   1.00
C11    C     0.77630   0.66930   0.95190   0.01267  Uiso   1.00
C12    C     0.77470   0.53880   0.98170   0.01267  Uiso   1.00
C13    C     0.06530   0.76470   0.78230   0.01267  Uiso   1.00
C14    C     0.95190   0.77630   0.66930   0.01267  Uiso   1.00
C15    C     0.98170   0.77470   0.53880   0.01267  Uiso   1.00
C16    C     0.78230   0.06530   0.76470   0.01267  Uiso   1.00
C17    C     0.66930   0.95190   0.77630   0.01267  Uiso   1.00
C18    C     0.53880   0.98170   0.77470   0.01267  Uiso   1.00
O1     O     0.14460   0.16420   0.81100   0.01267  Uiso   1.00
O2     O     0.33370   0.17710   0.96780   0.01267  Uiso   1.00
O3     O     0.13430   0.45140   0.90760   0.01267  Uiso   1.00
O4     O     0.31670   0.57810   0.10550   0.01267  Uiso   1.00
O5     O     0.81100   0.14460   0.16420   0.01267  Uiso   1.00
O6     O     0.96780   0.33370   0.17710   0.01267  Uiso   1.00
O7     O     0.90760   0.13430   0.45140   0.01267  Uiso   1.00
O8     O     0.10550   0.31670   0.57810   0.01267  Uiso   1.00
O9     O     0.16420   0.81100   0.14460   0.01267  Uiso   1.00
O10    O     0.17710   0.96780   0.33370   0.01267  Uiso   1.00
O11    O     0.45140   0.90760   0.13430   0.01267  Uiso   1.00
O12    O     0.57810   0.10550   0.31670   0.01267  Uiso   1.00
O13    O     0.85540   0.83580   0.18900   0.01267  Uiso   1.00
O14    O     0.66630   0.82290   0.03220   0.01267  Uiso   1.00
O15    O     0.86570   0.54860   0.09240   0.01267  Uiso   1.00
O16    O     0.68330   0.42190   0.89450   0.01267  Uiso   1.00
O17    O     0.18900   0.85540   0.83580   0.01267  Uiso   1.00
O18    O     0.03220   0.66630   0.82290   0.01267  Uiso   1.00
O19    O     0.09240   0.86570   0.54860   0.01267  Uiso   1.00
O20    O     0.89450   0.68330   0.42190   0.01267  Uiso   1.00
O21    O     0.83580   0.18900   0.85540   0.01267  Uiso   1.00
O22    O     0.82290   0.03220   0.66630   0.01267  Uiso   1.00
O23    O     0.54860   0.09240   0.86570   0.01267  Uiso   1.00
O24    O     0.42190   0.89450   0.68330   0.01267  Uiso   1.00
