data_image0
_cell_length_a       17.041
_cell_length_b       17.041
_cell_length_c       25.371
_cell_angle_alpha    90
_cell_angle_beta     90
_cell_angle_gamma    90

_symmetry_space_group_name_H-M    "P 1"
_symmetry_int_tables_number       1

loop_
  _symmetry_equiv_pos_as_xyz
  'x, y, z'

loop_
  _atom_site_label
  _atom_site_occupancy
  _atom_site_fract_x
  _atom_site_fract_y
  _atom_site_fract_z
  _atom_site_thermal_displace_type
  _atom_site_B_iso_or_equiv
  _atom_site_type_symbol
  Sm1      1.0000 0.27553  0.11819  0.80808  Biso   1.000  Sm
  Cu1      1.0000 0.12896  0.37850  0.16824  Biso   1.000  Cu
  Cu2      1.0000 0.11999  0.18517  0.00864  Biso   1.000  Cu
  Na1      1.0000 0.23360  0.19430  0.11389  Biso   1.000  Na
  N1       1.0000 0.38570  0.85090  0.75380  Biso   1.000  N
  N2       1.0000 0.07930  0.27950  0.96890  Biso   1.000  N
  O1       1.0000 0.32260  0.97630  0.80280  Biso   1.000  O
  O2       1.0000 0.27640  0.02520  0.72890  Biso   1.000  O
  O3       1.0000 0.29760  0.78410  0.82690  Biso   1.000  O
  O4       1.0000 0.26110  0.68880  0.77160  Biso   1.000  O
  O5       1.0000 0.59370  0.88020  0.76950  Biso   1.000  O
  O6       1.0000 0.49650  0.88490  0.82740  Biso   1.000  O
  O7       1.0000 0.10790  0.37960  0.09380  Biso   1.000  O
  O8       1.0000 0.11520  0.25250  0.07220  Biso   1.000  O
  O9       1.0000 0.99930  0.14500  0.99890  Biso   1.000  O
  O10      1.0000 0.89310  0.17900  0.95360  Biso   1.000  O
  O11      1.0000 0.19650  0.20420  0.86260  Biso   1.000  O
  O12      1.0000 0.15920  0.15410  0.93950  Biso   1.000  O
  C1       1.0000 0.30670  0.97130  0.75420  Biso   1.000  C
  C2       1.0000 0.32410  0.89490  0.72590  Biso   1.000  C
  H1       1.0000 0.34110  0.90590  0.69020  Biso   1.000  H
  H2       1.0000 0.27680  0.86350  0.72410  Biso   1.000  H
  C3       1.0000 0.30500  0.74370  0.78410  Biso   1.000  C
  C4       1.0000 0.37230  0.76610  0.75040  Biso   1.000  C
  H3       1.0000 0.36160  0.75160  0.71410  Biso   1.000  H
  H4       1.0000 0.41890  0.73820  0.76180  Biso   1.000  H
  C5       1.0000 0.52310  0.87880  0.78100  Biso   1.000  C
  C6       1.0000 0.46660  0.87540  0.73570  Biso   1.000  C
  H5       1.0000 0.46360  0.92660  0.71920  Biso   1.000  H
  H6       1.0000 0.48570  0.83830  0.70970  Biso   1.000  H
  C7       1.0000 0.10430  0.32420  0.06080  Biso   1.000  C
  C8       1.0000 0.08390  0.34660  0.00600  Biso   1.000  C
  H7       1.0000 0.03360  0.37340  0.00630  Biso   1.000  H
  H8       1.0000 0.12290  0.38340  0.99310  Biso   1.000  H
  C9       1.0000 0.96100  0.19120  0.97060  Biso   1.000  C
  C10      1.0000 0.99890  0.26520  0.95170  Biso   1.000  C
  H9       1.0000 0.99830  0.26480  0.91350  Biso   1.000  H
  H10      1.0000 0.96680  0.30900  0.96310  Biso   1.000  H
  C11      1.0000 0.16400  0.20970  0.90640  Biso   1.000  C
  C12      1.0000 0.13180  0.28690  0.92210  Biso   1.000  C
  H11      1.0000 0.10260  0.30920  0.89290  Biso   1.000  H
  H12      1.0000 0.17470  0.32230  0.93040  Biso   1.000  H
  Sm2      1.0000 0.72447  0.88181  0.80808  Biso   1.000  Sm
  Cu3      1.0000 0.87104  0.62150  0.16824  Biso   1.000  Cu
  Cu4      1.0000 0.88001  0.81483  0.00864  Biso   1.000  Cu
  Na2      1.0000 0.76640  0.80570  0.11389  Biso   1.000  Na
  N3       1.0000 0.61430  0.14910  0.75380  Biso   1.000  N
  N4       1.0000 0.92070  0.72050  0.96890  Biso   1.000  N
  O13      1.0000 0.67740  0.02370  0.80280  Biso   1.000  O
  O14      1.0000 0.72360  0.97480  0.72890  Biso   1.000  O
  O15      1.0000 0.70240  0.21590  0.82690  Biso   1.000  O
  O16      1.0000 0.73890  0.31120  0.77160  Biso   1.000  O
  O17      1.0000 0.40630  0.11980  0.76950  Biso   1.000  O
  O18      1.0000 0.50350  0.11510  0.82740  Biso   1.000  O
  O19      1.0000 0.89210  0.62040  0.09380  Biso   1.000  O
  O20      1.0000 0.88480  0.74750  0.07220  Biso   1.000  O
  O21      1.0000 0.00070  0.85500  0.99890  Biso   1.000  O
  O22      1.0000 0.10690  0.82100  0.95360  Biso   1.000  O
  O23      1.0000 0.80350  0.79580  0.86260  Biso   1.000  O
  O24      1.0000 0.84080  0.84590  0.93950  Biso   1.000  O
  C13      1.0000 0.69330  0.02870  0.75420  Biso   1.000  C
  C14      1.0000 0.67590  0.10510  0.72590  Biso   1.000  C
  H13      1.0000 0.65890  0.09410  0.69020  Biso   1.000  H
  H14      1.0000 0.72320  0.13650  0.72410  Biso   1.000  H
  C15      1.0000 0.69500  0.25630  0.78410  Biso   1.000  C
  C16      1.0000 0.62770  0.23390  0.75040  Biso   1.000  C
  H15      1.0000 0.63840  0.24840  0.71410  Biso   1.000  H
  H16      1.0000 0.58110  0.26180  0.76180  Biso   1.000  H
  C17      1.0000 0.47690  0.12120  0.78100  Biso   1.000  C
  C18      1.0000 0.53340  0.12460  0.73570  Biso   1.000  C
  H17      1.0000 0.53640  0.07340  0.71920  Biso   1.000  H
  H18      1.0000 0.51430  0.16170  0.70970  Biso   1.000  H
  C19      1.0000 0.89570  0.67580  0.06080  Biso   1.000  C
  C20      1.0000 0.91610  0.65340  0.00600  Biso   1.000  C
  H19      1.0000 0.96640  0.62660  0.00630  Biso   1.000  H
  H20      1.0000 0.87710  0.61660  0.99310  Biso   1.000  H
  C21      1.0000 0.03900  0.80880  0.97060  Biso   1.000  C
  C22      1.0000 0.00110  0.73480  0.95170  Biso   1.000  C
  H21      1.0000 0.00170  0.73520  0.91350  Biso   1.000  H
  H22      1.0000 0.03320  0.69100  0.96310  Biso   1.000  H
  C23      1.0000 0.83600  0.79030  0.90640  Biso   1.000  C
  C24      1.0000 0.86820  0.71310  0.92210  Biso   1.000  C
  H23      1.0000 0.89740  0.69080  0.89290  Biso   1.000  H
  H24      1.0000 0.82530  0.67770  0.93040  Biso   1.000  H
  Sm3      1.0000 0.11819  0.72447  0.19192  Biso   1.000  Sm
  Cu5      1.0000 0.37850  0.87104  0.83176  Biso   1.000  Cu
  Cu6      1.0000 0.18517  0.88001  0.99136  Biso   1.000  Cu
  Na3      1.0000 0.19430  0.76640  0.88611  Biso   1.000  Na
  N5       1.0000 0.85090  0.61430  0.24620  Biso   1.000  N
  N6       1.0000 0.27950  0.92070  0.03110  Biso   1.000  N
  O25      1.0000 0.97630  0.67740  0.19720  Biso   1.000  O
  O26      1.0000 0.02520  0.72360  0.27110  Biso   1.000  O
  O27      1.0000 0.78410  0.70240  0.17310  Biso   1.000  O
  O28      1.0000 0.68880  0.73890  0.22840  Biso   1.000  O
  O29      1.0000 0.88020  0.40630  0.23050  Biso   1.000  O
  O30      1.0000 0.88490  0.50350  0.17260  Biso   1.000  O
  O31      1.0000 0.37960  0.89210  0.90620  Biso   1.000  O
  O32      1.0000 0.25250  0.88480  0.92780  Biso   1.000  O
  O33      1.0000 0.14500  0.00070  0.00110  Biso   1.000  O
  O34      1.0000 0.17900  0.10690  0.04640  Biso   1.000  O
  O35      1.0000 0.20420  0.80350  0.13740  Biso   1.000  O
  O36      1.0000 0.15410  0.84080  0.06050  Biso   1.000  O
  C25      1.0000 0.97130  0.69330  0.24580  Biso   1.000  C
  C26      1.0000 0.89490  0.67590  0.27410  Biso   1.000  C
  H25      1.0000 0.90590  0.65890  0.30980  Biso   1.000  H
  H26      1.0000 0.86350  0.72320  0.27590  Biso   1.000  H
  C27      1.0000 0.74370  0.69500  0.21590  Biso   1.000  C
  C28      1.0000 0.76610  0.62770  0.24960  Biso   1.000  C
  H27      1.0000 0.75160  0.63840  0.28590  Biso   1.000  H
  H28      1.0000 0.73820  0.58110  0.23820  Biso   1.000  H
  C29      1.0000 0.87880  0.47690  0.21900  Biso   1.000  C
  C30      1.0000 0.87540  0.53340  0.26430  Biso   1.000  C
  H29      1.0000 0.92660  0.53640  0.28080  Biso   1.000  H
  H30      1.0000 0.83830  0.51430  0.29030  Biso   1.000  H
  C31      1.0000 0.32420  0.89570  0.93920  Biso   1.000  C
  C32      1.0000 0.34660  0.91610  0.99400  Biso   1.000  C
  H31      1.0000 0.37340  0.96640  0.99370  Biso   1.000  H
  H32      1.0000 0.38340  0.87710  0.00690  Biso   1.000  H
  C33      1.0000 0.19120  0.03900  0.02940  Biso   1.000  C
  C34      1.0000 0.26520  0.00110  0.04830  Biso   1.000  C
  H33      1.0000 0.26480  0.00170  0.08650  Biso   1.000  H
  H34      1.0000 0.30900  0.03320  0.03690  Biso   1.000  H
  C35      1.0000 0.20970  0.83600  0.09360  Biso   1.000  C
  C36      1.0000 0.28690  0.86820  0.07790  Biso   1.000  C
  H35      1.0000 0.30920  0.89740  0.10710  Biso   1.000  H
  H36      1.0000 0.32230  0.82530  0.06960  Biso   1.000  H
  Sm4      1.0000 0.88181  0.27553  0.19192  Biso   1.000  Sm
  Cu7      1.0000 0.62150  0.12896  0.83176  Biso   1.000  Cu
  Cu8      1.0000 0.81483  0.11999  0.99136  Biso   1.000  Cu
  Na4      1.0000 0.80570  0.23360  0.88611  Biso   1.000  Na
  N7       1.0000 0.14910  0.38570  0.24620  Biso   1.000  N
  N8       1.0000 0.72050  0.07930  0.03110  Biso   1.000  N
  O37      1.0000 0.02370  0.32260  0.19720  Biso   1.000  O
  O38      1.0000 0.97480  0.27640  0.27110  Biso   1.000  O
  O39      1.0000 0.21590  0.29760  0.17310  Biso   1.000  O
  O40      1.0000 0.31120  0.26110  0.22840  Biso   1.000  O
  O41      1.0000 0.11980  0.59370  0.23050  Biso   1.000  O
  O42      1.0000 0.11510  0.49650  0.17260  Biso   1.000  O
  O43      1.0000 0.62040  0.10790  0.90620  Biso   1.000  O
  O44      1.0000 0.74750  0.11520  0.92780  Biso   1.000  O
  O45      1.0000 0.85500  0.99930  0.00110  Biso   1.000  O
  O46      1.0000 0.82100  0.89310  0.04640  Biso   1.000  O
  O47      1.0000 0.79580  0.19650  0.13740  Biso   1.000  O
  O48      1.0000 0.84590  0.15920  0.06050  Biso   1.000  O
  C37      1.0000 0.02870  0.30670  0.24580  Biso   1.000  C
  C38      1.0000 0.10510  0.32410  0.27410  Biso   1.000  C
  H37      1.0000 0.09410  0.34110  0.30980  Biso   1.000  H
  H38      1.0000 0.13650  0.27680  0.27590  Biso   1.000  H
  C39      1.0000 0.25630  0.30500  0.21590  Biso   1.000  C
  C40      1.0000 0.23390  0.37230  0.24960  Biso   1.000  C
  H39      1.0000 0.24840  0.36160  0.28590  Biso   1.000  H
  H40      1.0000 0.26180  0.41890  0.23820  Biso   1.000  H
  C41      1.0000 0.12120  0.52310  0.21900  Biso   1.000  C
  C42      1.0000 0.12460  0.46660  0.26430  Biso   1.000  C
  H41      1.0000 0.07340  0.46360  0.28080  Biso   1.000  H
  H42      1.0000 0.16170  0.48570  0.29030  Biso   1.000  H
  C43      1.0000 0.67580  0.10430  0.93920  Biso   1.000  C
  C44      1.0000 0.65340  0.08390  0.99400  Biso   1.000  C
  H43      1.0000 0.62660  0.03360  0.99370  Biso   1.000  H
  H44      1.0000 0.61660  0.12290  0.00690  Biso   1.000  H
  C45      1.0000 0.80880  0.96100  0.02940  Biso   1.000  C
  C46      1.0000 0.73480  0.99890  0.04830  Biso   1.000  C
  H45      1.0000 0.73520  0.99830  0.08650  Biso   1.000  H
  H46      1.0000 0.69100  0.96680  0.03690  Biso   1.000  H
  C47      1.0000 0.79030  0.16400  0.09360  Biso   1.000  C
  C48      1.0000 0.71310  0.13180  0.07790  Biso   1.000  C
  H47      1.0000 0.69080  0.10260  0.10710  Biso   1.000  H
  H48      1.0000 0.67770  0.17470  0.06960  Biso   1.000  H
  Sm5      1.0000 0.22447  0.61819  0.69192  Biso   1.000  Sm
  Cu9      1.0000 0.37104  0.87850  0.33176  Biso   1.000  Cu
  Cu10     1.0000 0.38001  0.68517  0.49136  Biso   1.000  Cu
  Na5      1.0000 0.26640  0.69430  0.38611  Biso   1.000  Na
  N9       1.0000 0.11430  0.35090  0.74620  Biso   1.000  N
  N10      1.0000 0.42070  0.77950  0.53110  Biso   1.000  N
  O49      1.0000 0.17740  0.47630  0.69720  Biso   1.000  O
  O50      1.0000 0.22360  0.52520  0.77110  Biso   1.000  O
  O51      1.0000 0.20240  0.28410  0.67310  Biso   1.000  O
  O52      1.0000 0.23890  0.18880  0.72840  Biso   1.000  O
  O53      1.0000 0.90630  0.38020  0.73050  Biso   1.000  O
  O54      1.0000 0.00350  0.38490  0.67260  Biso   1.000  O
  O55      1.0000 0.39210  0.87960  0.40620  Biso   1.000  O
  O56      1.0000 0.38480  0.75250  0.42780  Biso   1.000  O
  O57      1.0000 0.50070  0.64500  0.50110  Biso   1.000  O
  O58      1.0000 0.60690  0.67900  0.54640  Biso   1.000  O
  O59      1.0000 0.30350  0.70420  0.63740  Biso   1.000  O
  O60      1.0000 0.34080  0.65410  0.56050  Biso   1.000  O
  C49      1.0000 0.19330  0.47130  0.74580  Biso   1.000  C
  C50      1.0000 0.17590  0.39490  0.77410  Biso   1.000  C
  H49      1.0000 0.15890  0.40590  0.80980  Biso   1.000  H
  H50      1.0000 0.22320  0.36350  0.77590  Biso   1.000  H
  C51      1.0000 0.19500  0.24370  0.71590  Biso   1.000  C
  C52      1.0000 0.12770  0.26610  0.74960  Biso   1.000  C
  H51      1.0000 0.13840  0.25160  0.78590  Biso   1.000  H
  H52      1.0000 0.08110  0.23820  0.73820  Biso   1.000  H
  C53      1.0000 0.97690  0.37880  0.71900  Biso   1.000  C
  C54      1.0000 0.03340  0.37540  0.76430  Biso   1.000  C
  H53      1.0000 0.03640  0.42660  0.78080  Biso   1.000  H
  H54      1.0000 0.01430  0.33830  0.79030  Biso   1.000  H
  C55      1.0000 0.39570  0.82420  0.43920  Biso   1.000  C
  C56      1.0000 0.41610  0.84660  0.49400  Biso   1.000  C
  H55      1.0000 0.46640  0.87340  0.49370  Biso   1.000  H
  H56      1.0000 0.37710  0.88340  0.50690  Biso   1.000  H
  C57      1.0000 0.53900  0.69120  0.52940  Biso   1.000  C
  C58      1.0000 0.50110  0.76520  0.54830  Biso   1.000  C
  H57      1.0000 0.50170  0.76480  0.58650  Biso   1.000  H
  H58      1.0000 0.53320  0.80900  0.53690  Biso   1.000  H
  C59      1.0000 0.33600  0.70970  0.59360  Biso   1.000  C
  C60      1.0000 0.36820  0.78690  0.57790  Biso   1.000  C
  H59      1.0000 0.39740  0.80920  0.60710  Biso   1.000  H
  H60      1.0000 0.32530  0.82230  0.56960  Biso   1.000  H
  Sm6      1.0000 0.77553  0.38181  0.69192  Biso   1.000  Sm
  Cu11     1.0000 0.62896  0.12150  0.33176  Biso   1.000  Cu
  Cu12     1.0000 0.61999  0.31483  0.49136  Biso   1.000  Cu
  Na6      1.0000 0.73360  0.30570  0.38611  Biso   1.000  Na
  N11      1.0000 0.88570  0.64910  0.74620  Biso   1.000  N
  N12      1.0000 0.57930  0.22050  0.53110  Biso   1.000  N
  O61      1.0000 0.82260  0.52370  0.69720  Biso   1.000  O
  O62      1.0000 0.77640  0.47480  0.77110  Biso   1.000  O
  O63      1.0000 0.79760  0.71590  0.67310  Biso   1.000  O
  O64      1.0000 0.76110  0.81120  0.72840  Biso   1.000  O
  O65      1.0000 0.09370  0.61980  0.73050  Biso   1.000  O
  O66      1.0000 0.99650  0.61510  0.67260  Biso   1.000  O
  O67      1.0000 0.60790  0.12040  0.40620  Biso   1.000  O
  O68      1.0000 0.61520  0.24750  0.42780  Biso   1.000  O
  O69      1.0000 0.49930  0.35500  0.50110  Biso   1.000  O
  O70      1.0000 0.39310  0.32100  0.54640  Biso   1.000  O
  O71      1.0000 0.69650  0.29580  0.63740  Biso   1.000  O
  O72      1.0000 0.65920  0.34590  0.56050  Biso   1.000  O
  C61      1.0000 0.80670  0.52870  0.74580  Biso   1.000  C
  C62      1.0000 0.82410  0.60510  0.77410  Biso   1.000  C
  H61      1.0000 0.84110  0.59410  0.80980  Biso   1.000  H
  H62      1.0000 0.77680  0.63650  0.77590  Biso   1.000  H
  C63      1.0000 0.80500  0.75630  0.71590  Biso   1.000  C
  C64      1.0000 0.87230  0.73390  0.74960  Biso   1.000  C
  H63      1.0000 0.86160  0.74840  0.78590  Biso   1.000  H
  H64      1.0000 0.91890  0.76180  0.73820  Biso   1.000  H
  C65      1.0000 0.02310  0.62120  0.71900  Biso   1.000  C
  C66      1.0000 0.96660  0.62460  0.76430  Biso   1.000  C
  H65      1.0000 0.96360  0.57340  0.78080  Biso   1.000  H
  H66      1.0000 0.98570  0.66170  0.79030  Biso   1.000  H
  C67      1.0000 0.60430  0.17580  0.43920  Biso   1.000  C
  C68      1.0000 0.58390  0.15340  0.49400  Biso   1.000  C
  H67      1.0000 0.53360  0.12660  0.49370  Biso   1.000  H
  H68      1.0000 0.62290  0.11660  0.50690  Biso   1.000  H
  C69      1.0000 0.46100  0.30880  0.52940  Biso   1.000  C
  C70      1.0000 0.49890  0.23480  0.54830  Biso   1.000  C
  H69      1.0000 0.49830  0.23520  0.58650  Biso   1.000  H
  H70      1.0000 0.46680  0.19100  0.53690  Biso   1.000  H
  C71      1.0000 0.66400  0.29030  0.59360  Biso   1.000  C
  C72      1.0000 0.63180  0.21310  0.57790  Biso   1.000  C
  H71      1.0000 0.60260  0.19080  0.60710  Biso   1.000  H
  H72      1.0000 0.67470  0.17770  0.56960  Biso   1.000  H
  Sm7      1.0000 0.38181  0.22447  0.30808  Biso   1.000  Sm
  Cu13     1.0000 0.12150  0.37104  0.66824  Biso   1.000  Cu
  Cu14     1.0000 0.31483  0.38001  0.50864  Biso   1.000  Cu
  Na7      1.0000 0.30570  0.26640  0.61389  Biso   1.000  Na
  N13      1.0000 0.64910  0.11430  0.25380  Biso   1.000  N
  N14      1.0000 0.22050  0.42070  0.46890  Biso   1.000  N
  O73      1.0000 0.52370  0.17740  0.30280  Biso   1.000  O
  O74      1.0000 0.47480  0.22360  0.22890  Biso   1.000  O
  O75      1.0000 0.71590  0.20240  0.32690  Biso   1.000  O
  O76      1.0000 0.81120  0.23890  0.27160  Biso   1.000  O
  O77      1.0000 0.61980  0.90630  0.26950  Biso   1.000  O
  O78      1.0000 0.61510  0.00350  0.32740  Biso   1.000  O
  O79      1.0000 0.12040  0.39210  0.59380  Biso   1.000  O
  O80      1.0000 0.24750  0.38480  0.57220  Biso   1.000  O
  O81      1.0000 0.35500  0.50070  0.49890  Biso   1.000  O
  O82      1.0000 0.32100  0.60690  0.45360  Biso   1.000  O
  O83      1.0000 0.29580  0.30350  0.36260  Biso   1.000  O
  O84      1.0000 0.34590  0.34080  0.43950  Biso   1.000  O
  C73      1.0000 0.52870  0.19330  0.25420  Biso   1.000  C
  C74      1.0000 0.60510  0.17590  0.22590  Biso   1.000  C
  H73      1.0000 0.59410  0.15890  0.19020  Biso   1.000  H
  H74      1.0000 0.63650  0.22320  0.22410  Biso   1.000  H
  C75      1.0000 0.75630  0.19500  0.28410  Biso   1.000  C
  C76      1.0000 0.73390  0.12770  0.25040  Biso   1.000  C
  H75      1.0000 0.74840  0.13840  0.21410  Biso   1.000  H
  H76      1.0000 0.76180  0.08110  0.26180  Biso   1.000  H
  C77      1.0000 0.62120  0.97690  0.28100  Biso   1.000  C
  C78      1.0000 0.62460  0.03340  0.23570  Biso   1.000  C
  H77      1.0000 0.57340  0.03640  0.21920  Biso   1.000  H
  H78      1.0000 0.66170  0.01430  0.20970  Biso   1.000  H
  C79      1.0000 0.17580  0.39570  0.56080  Biso   1.000  C
  C80      1.0000 0.15340  0.41610  0.50600  Biso   1.000  C
  H79      1.0000 0.12660  0.46640  0.50630  Biso   1.000  H
  H80      1.0000 0.11660  0.37710  0.49310  Biso   1.000  H
  C81      1.0000 0.30880  0.53900  0.47060  Biso   1.000  C
  C82      1.0000 0.23480  0.50110  0.45170  Biso   1.000  C
  H81      1.0000 0.23520  0.50170  0.41350  Biso   1.000  H
  H82      1.0000 0.19100  0.53320  0.46310  Biso   1.000  H
  C83      1.0000 0.29030  0.33600  0.40640  Biso   1.000  C
  C84      1.0000 0.21310  0.36820  0.42210  Biso   1.000  C
  H83      1.0000 0.19080  0.39740  0.39290  Biso   1.000  H
  H84      1.0000 0.17770  0.32530  0.43040  Biso   1.000  H
  Sm8      1.0000 0.61819  0.77553  0.30808  Biso   1.000  Sm
  Cu15     1.0000 0.87850  0.62896  0.66824  Biso   1.000  Cu
  Cu16     1.0000 0.68517  0.61999  0.50864  Biso   1.000  Cu
  Na8      1.0000 0.69430  0.73360  0.61389  Biso   1.000  Na
  N15      1.0000 0.35090  0.88570  0.25380  Biso   1.000  N
  N16      1.0000 0.77950  0.57930  0.46890  Biso   1.000  N
  O85      1.0000 0.47630  0.82260  0.30280  Biso   1.000  O
  O86      1.0000 0.52520  0.77640  0.22890  Biso   1.000  O
  O87      1.0000 0.28410  0.79760  0.32690  Biso   1.000  O
  O88      1.0000 0.18880  0.76110  0.27160  Biso   1.000  O
  O89      1.0000 0.38020  0.09370  0.26950  Biso   1.000  O
  O90      1.0000 0.38490  0.99650  0.32740  Biso   1.000  O
  O91      1.0000 0.87960  0.60790  0.59380  Biso   1.000  O
  O92      1.0000 0.75250  0.61520  0.57220  Biso   1.000  O
  O93      1.0000 0.64500  0.49930  0.49890  Biso   1.000  O
  O94      1.0000 0.67900  0.39310  0.45360  Biso   1.000  O
  O95      1.0000 0.70420  0.69650  0.36260  Biso   1.000  O
  O96      1.0000 0.65410  0.65920  0.43950  Biso   1.000  O
  C85      1.0000 0.47130  0.80670  0.25420  Biso   1.000  C
  C86      1.0000 0.39490  0.82410  0.22590  Biso   1.000  C
  H85      1.0000 0.40590  0.84110  0.19020  Biso   1.000  H
  H86      1.0000 0.36350  0.77680  0.22410  Biso   1.000  H
  C87      1.0000 0.24370  0.80500  0.28410  Biso   1.000  C
  C88      1.0000 0.26610  0.87230  0.25040  Biso   1.000  C
  H87      1.0000 0.25160  0.86160  0.21410  Biso   1.000  H
  H88      1.0000 0.23820  0.91890  0.26180  Biso   1.000  H
  C89      1.0000 0.37880  0.02310  0.28100  Biso   1.000  C
  C90      1.0000 0.37540  0.96660  0.23570  Biso   1.000  C
  H89      1.0000 0.42660  0.96360  0.21920  Biso   1.000  H
  H90      1.0000 0.33830  0.98570  0.20970  Biso   1.000  H
  C91      1.0000 0.82420  0.60430  0.56080  Biso   1.000  C
  C92      1.0000 0.84660  0.58390  0.50600  Biso   1.000  C
  H91      1.0000 0.87340  0.53360  0.50630  Biso   1.000  H
  H92      1.0000 0.88340  0.62290  0.49310  Biso   1.000  H
  C93      1.0000 0.69120  0.46100  0.47060  Biso   1.000  C
  C94      1.0000 0.76520  0.49890  0.45170  Biso   1.000  C
  H93      1.0000 0.76480  0.49830  0.41350  Biso   1.000  H
  H94      1.0000 0.80900  0.46680  0.46310  Biso   1.000  H
  C95      1.0000 0.70970  0.66400  0.40640  Biso   1.000  C
  C96      1.0000 0.78690  0.63180  0.42210  Biso   1.000  C
  H95      1.0000 0.80920  0.60260  0.39290  Biso   1.000  H
  H96      1.0000 0.82230  0.67470  0.43040  Biso   1.000  H
  Na9      1.0000 0.00000  0.00000  0.00000  Biso   1.000  Na
  Na10     1.0000 0.50000  0.50000  0.50000  Biso   1.000  Na
