data_image0
_cell_length_a       26.306
_cell_length_b       19.939
_cell_length_c       26.336
_cell_angle_alpha    90
_cell_angle_beta     100.095
_cell_angle_gamma    90

_symmetry_space_group_name_H-M    "P 1"
_symmetry_int_tables_number       1

loop_
  _symmetry_equiv_pos_as_xyz
  'x, y, z'

loop_
  _atom_site_label
  _atom_site_occupancy
  _atom_site_fract_x
  _atom_site_fract_y
  _atom_site_fract_z
  _atom_site_thermal_displace_type
  _atom_site_B_iso_or_equiv
  _atom_site_type_symbol
  Zn1      1.0000 0.09562  0.43164  0.84270  Biso   1.000  Zn
  Zn2      1.0000 0.10569  0.18270  0.64130  Biso   1.000  Zn
  O1       1.0000 0.35490  0.39840  0.86430  Biso   1.000  O
  O2       1.0000 0.29550  0.31470  0.85880  Biso   1.000  O
  O3       1.0000 0.00630  0.73570  0.88620  Biso   1.000  O
  O4       1.0000 0.96630  0.64260  0.86280  Biso   1.000  O
  O5       1.0000 0.10700  0.48920  0.73890  Biso   1.000  O
  O6       1.0000 0.09740  0.39000  0.77300  Biso   1.000  O
  O7       1.0000 0.10500  0.15600  0.39000  Biso   1.000  O
  O8       1.0000 0.09730  0.07070  0.44230  Biso   1.000  O
  N1       1.0000 0.17750  0.45300  0.85620  Biso   1.000  N
  C1       1.0000 0.21880  0.40920  0.85730  Biso   1.000  C
  H1       1.0000 0.21280  0.36240  0.85290  Biso   1.000  H
  C2       1.0000 0.26900  0.43390  0.86460  Biso   1.000  C
  C3       1.0000 0.27790  0.50240  0.87090  Biso   1.000  C
  H2       1.0000 0.31220  0.51920  0.87590  Biso   1.000  H
  C4       1.0000 0.23660  0.54610  0.86990  Biso   1.000  C
  H3       1.0000 0.24270  0.59290  0.87420  Biso   1.000  H
  C5       1.0000 0.18640  0.52150  0.86250  Biso   1.000  C
  N2       1.0000 0.09750  0.53350  0.85560  Biso   1.000  N
  C6       1.0000 0.14480  0.56590  0.86900  Biso   1.000  C
  C7       1.0000 0.14640  0.63310  0.88320  Biso   1.000  C
  H4       1.0000 0.17870  0.65520  0.89230  Biso   1.000  H
  C8       1.0000 0.10080  0.66800  0.88400  Biso   1.000  C
  H5       1.0000 0.10190  0.71390  0.89370  Biso   1.000  H
  C9       1.0000 0.05350  0.63560  0.87060  Biso   1.000  C
  C10      1.0000 0.05190  0.56840  0.85640  Biso   1.000  C
  H6       1.0000 0.01960  0.54620  0.84730  Biso   1.000  H
  N3       1.0000 0.10990  0.28300  0.64380  Biso   1.000  N
  C11      1.0000 0.10590  0.31750  0.68880  Biso   1.000  C
  H7       1.0000 0.10150  0.29350  0.71890  Biso   1.000  H
  C12      1.0000 0.10830  0.38720  0.68980  Biso   1.000  C
  C13      1.0000 0.11470  0.42230  0.64580  Biso   1.000  C
  H8       1.0000 0.11630  0.46990  0.64640  Biso   1.000  H
  C14      1.0000 0.11870  0.38780  0.60080  Biso   1.000  C
  H9       1.0000 0.12300  0.41190  0.57070  Biso   1.000  H
  C15      1.0000 0.11630  0.31820  0.59980  Biso   1.000  C
  N4       1.0000 0.10510  0.20440  0.56350  Biso   1.000  N
  C16      1.0000 0.10910  0.27260  0.55380  Biso   1.000  C
  C17      1.0000 0.11020  0.29480  0.50400  Biso   1.000  C
  H10      1.0000 0.11290  0.34140  0.49730  Biso   1.000  H
  C18      1.0000 0.10730  0.24890  0.46390  Biso   1.000  C
  H11      1.0000 0.10800  0.26400  0.42980  Biso   1.000  H
  C19      1.0000 0.10330  0.18070  0.47360  Biso   1.000  C
  C20      1.0000 0.10220  0.15850  0.52340  Biso   1.000  C
  H12      1.0000 0.09950  0.11190  0.53010  Biso   1.000  H
  C21      1.0000 0.30360  0.36800  0.85950  Biso   1.000  C
  C22      1.0000 0.00650  0.68070  0.87790  Biso   1.000  C
  C23      1.0000 0.10110  0.43050  0.73870  Biso   1.000  C
  C24      1.0000 0.10350  0.12750  0.43340  Biso   1.000  C
  Zn3      1.0000 0.59562  0.93164  0.34270  Biso   1.000  Zn
  Zn4      1.0000 0.60569  0.68270  0.14130  Biso   1.000  Zn
  O9       1.0000 0.85490  0.89840  0.36430  Biso   1.000  O
  O10      1.0000 0.79550  0.81470  0.35880  Biso   1.000  O
  O11      1.0000 0.50630  0.23570  0.38620  Biso   1.000  O
  O12      1.0000 0.46630  0.14260  0.36280  Biso   1.000  O
  O13      1.0000 0.60700  0.98920  0.23890  Biso   1.000  O
  O14      1.0000 0.59740  0.89000  0.27300  Biso   1.000  O
  O15      1.0000 0.60500  0.65600  0.89000  Biso   1.000  O
  O16      1.0000 0.59730  0.57070  0.94230  Biso   1.000  O
  N5       1.0000 0.67750  0.95300  0.35620  Biso   1.000  N
  C25      1.0000 0.71880  0.90920  0.35730  Biso   1.000  C
  H13      1.0000 0.71280  0.86240  0.35290  Biso   1.000  H
  C26      1.0000 0.76900  0.93390  0.36460  Biso   1.000  C
  C27      1.0000 0.77790  0.00240  0.37090  Biso   1.000  C
  H14      1.0000 0.81220  0.01920  0.37590  Biso   1.000  H
  C28      1.0000 0.73660  0.04610  0.36990  Biso   1.000  C
  H15      1.0000 0.74270  0.09290  0.37420  Biso   1.000  H
  C29      1.0000 0.68640  0.02150  0.36250  Biso   1.000  C
  N6       1.0000 0.59750  0.03350  0.35560  Biso   1.000  N
  C30      1.0000 0.64480  0.06590  0.36900  Biso   1.000  C
  C31      1.0000 0.64640  0.13310  0.38320  Biso   1.000  C
  H16      1.0000 0.67870  0.15520  0.39230  Biso   1.000  H
  C32      1.0000 0.60080  0.16800  0.38400  Biso   1.000  C
  H17      1.0000 0.60190  0.21390  0.39370  Biso   1.000  H
  C33      1.0000 0.55350  0.13560  0.37060  Biso   1.000  C
  C34      1.0000 0.55190  0.06840  0.35640  Biso   1.000  C
  H18      1.0000 0.51960  0.04620  0.34730  Biso   1.000  H
  N7       1.0000 0.60990  0.78300  0.14380  Biso   1.000  N
  C35      1.0000 0.60590  0.81750  0.18880  Biso   1.000  C
  H19      1.0000 0.60150  0.79350  0.21890  Biso   1.000  H
  C36      1.0000 0.60830  0.88720  0.18980  Biso   1.000  C
  C37      1.0000 0.61470  0.92230  0.14580  Biso   1.000  C
  H20      1.0000 0.61630  0.96990  0.14640  Biso   1.000  H
  C38      1.0000 0.61870  0.88780  0.10080  Biso   1.000  C
  H21      1.0000 0.62300  0.91190  0.07070  Biso   1.000  H
  C39      1.0000 0.61630  0.81820  0.09980  Biso   1.000  C
  N8       1.0000 0.60510  0.70440  0.06350  Biso   1.000  N
  C40      1.0000 0.60910  0.77260  0.05380  Biso   1.000  C
  C41      1.0000 0.61020  0.79480  0.00400  Biso   1.000  C
  H22      1.0000 0.61290  0.84140  0.99730  Biso   1.000  H
  C42      1.0000 0.60730  0.74890  0.96390  Biso   1.000  C
  H23      1.0000 0.60800  0.76400  0.92980  Biso   1.000  H
  C43      1.0000 0.60330  0.68070  0.97360  Biso   1.000  C
  C44      1.0000 0.60220  0.65850  0.02340  Biso   1.000  C
  H24      1.0000 0.59950  0.61190  0.03010  Biso   1.000  H
  C45      1.0000 0.80360  0.86800  0.35950  Biso   1.000  C
  C46      1.0000 0.50650  0.18070  0.37790  Biso   1.000  C
  C47      1.0000 0.60110  0.93050  0.23870  Biso   1.000  C
  C48      1.0000 0.60350  0.62750  0.93340  Biso   1.000  C
  Zn5      1.0000 0.40438  0.43164  0.15730  Biso   1.000  Zn
  Zn6      1.0000 0.39431  0.18270  0.35870  Biso   1.000  Zn
  O17      1.0000 0.14510  0.39840  0.13570  Biso   1.000  O
  O18      1.0000 0.20450  0.31470  0.14120  Biso   1.000  O
  O19      1.0000 0.49370  0.73570  0.11380  Biso   1.000  O
  O20      1.0000 0.53370  0.64260  0.13720  Biso   1.000  O
  O21      1.0000 0.39300  0.48920  0.26110  Biso   1.000  O
  O22      1.0000 0.40260  0.39000  0.22700  Biso   1.000  O
  O23      1.0000 0.39500  0.15600  0.61000  Biso   1.000  O
  O24      1.0000 0.40270  0.07070  0.55770  Biso   1.000  O
  N9       1.0000 0.32250  0.45300  0.14380  Biso   1.000  N
  C49      1.0000 0.28120  0.40920  0.14270  Biso   1.000  C
  H25      1.0000 0.28720  0.36240  0.14710  Biso   1.000  H
  C50      1.0000 0.23100  0.43390  0.13540  Biso   1.000  C
  C51      1.0000 0.22210  0.50240  0.12910  Biso   1.000  C
  H26      1.0000 0.18780  0.51920  0.12410  Biso   1.000  H
  C52      1.0000 0.26340  0.54610  0.13010  Biso   1.000  C
  H27      1.0000 0.25730  0.59290  0.12580  Biso   1.000  H
  C53      1.0000 0.31360  0.52150  0.13750  Biso   1.000  C
  N10      1.0000 0.40250  0.53350  0.14440  Biso   1.000  N
  C54      1.0000 0.35520  0.56590  0.13100  Biso   1.000  C
  C55      1.0000 0.35360  0.63310  0.11680  Biso   1.000  C
  H28      1.0000 0.32130  0.65520  0.10770  Biso   1.000  H
  C56      1.0000 0.39920  0.66800  0.11600  Biso   1.000  C
  H29      1.0000 0.39810  0.71390  0.10630  Biso   1.000  H
  C57      1.0000 0.44650  0.63560  0.12940  Biso   1.000  C
  C58      1.0000 0.44810  0.56840  0.14360  Biso   1.000  C
  H30      1.0000 0.48040  0.54620  0.15270  Biso   1.000  H
  N11      1.0000 0.39010  0.28300  0.35620  Biso   1.000  N
  C59      1.0000 0.39410  0.31750  0.31120  Biso   1.000  C
  H31      1.0000 0.39850  0.29350  0.28110  Biso   1.000  H
  C60      1.0000 0.39170  0.38720  0.31020  Biso   1.000  C
  C61      1.0000 0.38530  0.42230  0.35420  Biso   1.000  C
  H32      1.0000 0.38370  0.46990  0.35360  Biso   1.000  H
  C62      1.0000 0.38130  0.38780  0.39920  Biso   1.000  C
  H33      1.0000 0.37700  0.41190  0.42930  Biso   1.000  H
  C63      1.0000 0.38370  0.31820  0.40020  Biso   1.000  C
  N12      1.0000 0.39490  0.20440  0.43650  Biso   1.000  N
  C64      1.0000 0.39090  0.27260  0.44620  Biso   1.000  C
  C65      1.0000 0.38980  0.29480  0.49600  Biso   1.000  C
  H34      1.0000 0.38710  0.34140  0.50270  Biso   1.000  H
  C66      1.0000 0.39270  0.24890  0.53610  Biso   1.000  C
  H35      1.0000 0.39200  0.26400  0.57020  Biso   1.000  H
  C67      1.0000 0.39670  0.18070  0.52640  Biso   1.000  C
  C68      1.0000 0.39780  0.15850  0.47660  Biso   1.000  C
  H36      1.0000 0.40050  0.11190  0.46990  Biso   1.000  H
  C69      1.0000 0.19640  0.36800  0.14050  Biso   1.000  C
  C70      1.0000 0.49350  0.68070  0.12210  Biso   1.000  C
  C71      1.0000 0.39890  0.43050  0.26130  Biso   1.000  C
  C72      1.0000 0.39650  0.12750  0.56660  Biso   1.000  C
  Zn7      1.0000 0.90438  0.93164  0.65730  Biso   1.000  Zn
  Zn8      1.0000 0.89431  0.68270  0.85870  Biso   1.000  Zn
  O25      1.0000 0.64510  0.89840  0.63570  Biso   1.000  O
  O26      1.0000 0.70450  0.81470  0.64120  Biso   1.000  O
  O27      1.0000 0.99370  0.23570  0.61380  Biso   1.000  O
  O28      1.0000 0.03370  0.14260  0.63720  Biso   1.000  O
  O29      1.0000 0.89300  0.98920  0.76110  Biso   1.000  O
  O30      1.0000 0.90260  0.89000  0.72700  Biso   1.000  O
  O31      1.0000 0.89500  0.65600  0.11000  Biso   1.000  O
  O32      1.0000 0.90270  0.57070  0.05770  Biso   1.000  O
  N13      1.0000 0.82250  0.95300  0.64380  Biso   1.000  N
  C73      1.0000 0.78120  0.90920  0.64270  Biso   1.000  C
  H37      1.0000 0.78720  0.86240  0.64710  Biso   1.000  H
  C74      1.0000 0.73100  0.93390  0.63540  Biso   1.000  C
  C75      1.0000 0.72210  0.00240  0.62910  Biso   1.000  C
  H38      1.0000 0.68780  0.01920  0.62410  Biso   1.000  H
  C76      1.0000 0.76340  0.04610  0.63010  Biso   1.000  C
  H39      1.0000 0.75730  0.09290  0.62580  Biso   1.000  H
  C77      1.0000 0.81360  0.02150  0.63750  Biso   1.000  C
  N14      1.0000 0.90250  0.03350  0.64440  Biso   1.000  N
  C78      1.0000 0.85520  0.06590  0.63100  Biso   1.000  C
  C79      1.0000 0.85360  0.13310  0.61680  Biso   1.000  C
  H40      1.0000 0.82130  0.15520  0.60770  Biso   1.000  H
  C80      1.0000 0.89920  0.16800  0.61600  Biso   1.000  C
  H41      1.0000 0.89810  0.21390  0.60630  Biso   1.000  H
  C81      1.0000 0.94650  0.13560  0.62940  Biso   1.000  C
  C82      1.0000 0.94810  0.06840  0.64360  Biso   1.000  C
  H42      1.0000 0.98040  0.04620  0.65270  Biso   1.000  H
  N15      1.0000 0.89010  0.78300  0.85620  Biso   1.000  N
  C83      1.0000 0.89410  0.81750  0.81120  Biso   1.000  C
  H43      1.0000 0.89850  0.79350  0.78110  Biso   1.000  H
  C84      1.0000 0.89170  0.88720  0.81020  Biso   1.000  C
  C85      1.0000 0.88530  0.92230  0.85420  Biso   1.000  C
  H44      1.0000 0.88370  0.96990  0.85360  Biso   1.000  H
  C86      1.0000 0.88130  0.88780  0.89920  Biso   1.000  C
  H45      1.0000 0.87700  0.91190  0.92930  Biso   1.000  H
  C87      1.0000 0.88370  0.81820  0.90020  Biso   1.000  C
  N16      1.0000 0.89490  0.70440  0.93650  Biso   1.000  N
  C88      1.0000 0.89090  0.77260  0.94620  Biso   1.000  C
  C89      1.0000 0.88980  0.79480  0.99600  Biso   1.000  C
  H46      1.0000 0.88710  0.84140  0.00270  Biso   1.000  H
  C90      1.0000 0.89270  0.74890  0.03610  Biso   1.000  C
  H47      1.0000 0.89200  0.76400  0.07020  Biso   1.000  H
  C91      1.0000 0.89670  0.68070  0.02640  Biso   1.000  C
  C92      1.0000 0.89780  0.65850  0.97660  Biso   1.000  C
  H48      1.0000 0.90050  0.61190  0.96990  Biso   1.000  H
  C93      1.0000 0.69640  0.86800  0.64050  Biso   1.000  C
  C94      1.0000 0.99350  0.18070  0.62210  Biso   1.000  C
  C95      1.0000 0.89890  0.93050  0.76130  Biso   1.000  C
  C96      1.0000 0.89650  0.62750  0.06660  Biso   1.000  C
  Zn9      1.0000 0.90438  0.56836  0.15730  Biso   1.000  Zn
  Zn10     1.0000 0.89431  0.81730  0.35870  Biso   1.000  Zn
  O33      1.0000 0.64510  0.60160  0.13570  Biso   1.000  O
  O34      1.0000 0.70450  0.68530  0.14120  Biso   1.000  O
  O35      1.0000 0.99370  0.26430  0.11380  Biso   1.000  O
  O36      1.0000 0.03370  0.35740  0.13720  Biso   1.000  O
  O37      1.0000 0.89300  0.51080  0.26110  Biso   1.000  O
  O38      1.0000 0.90260  0.61000  0.22700  Biso   1.000  O
  O39      1.0000 0.89500  0.84400  0.61000  Biso   1.000  O
  O40      1.0000 0.90270  0.92930  0.55770  Biso   1.000  O
  N17      1.0000 0.82250  0.54700  0.14380  Biso   1.000  N
  C97      1.0000 0.78120  0.59080  0.14270  Biso   1.000  C
  H49      1.0000 0.78720  0.63760  0.14710  Biso   1.000  H
  C98      1.0000 0.73100  0.56610  0.13540  Biso   1.000  C
  C99      1.0000 0.72210  0.49760  0.12910  Biso   1.000  C
  H50      1.0000 0.68780  0.48080  0.12410  Biso   1.000  H
  C100     1.0000 0.76340  0.45390  0.13010  Biso   1.000  C
  H51      1.0000 0.75730  0.40710  0.12580  Biso   1.000  H
  C101     1.0000 0.81360  0.47850  0.13750  Biso   1.000  C
  N18      1.0000 0.90250  0.46650  0.14440  Biso   1.000  N
  C102     1.0000 0.85520  0.43410  0.13100  Biso   1.000  C
  C103     1.0000 0.85360  0.36690  0.11680  Biso   1.000  C
  H52      1.0000 0.82130  0.34480  0.10770  Biso   1.000  H
  C104     1.0000 0.89920  0.33200  0.11600  Biso   1.000  C
  H53      1.0000 0.89810  0.28610  0.10630  Biso   1.000  H
  C105     1.0000 0.94650  0.36440  0.12940  Biso   1.000  C
  C106     1.0000 0.94810  0.43160  0.14360  Biso   1.000  C
  H54      1.0000 0.98040  0.45380  0.15270  Biso   1.000  H
  N19      1.0000 0.89010  0.71700  0.35620  Biso   1.000  N
  C107     1.0000 0.89410  0.68250  0.31120  Biso   1.000  C
  H55      1.0000 0.89850  0.70650  0.28110  Biso   1.000  H
  C108     1.0000 0.89170  0.61280  0.31020  Biso   1.000  C
  C109     1.0000 0.88530  0.57770  0.35420  Biso   1.000  C
  H56      1.0000 0.88370  0.53010  0.35360  Biso   1.000  H
  C110     1.0000 0.88130  0.61220  0.39920  Biso   1.000  C
  H57      1.0000 0.87700  0.58810  0.42930  Biso   1.000  H
  C111     1.0000 0.88370  0.68180  0.40020  Biso   1.000  C
  N20      1.0000 0.89490  0.79560  0.43650  Biso   1.000  N
  C112     1.0000 0.89090  0.72740  0.44620  Biso   1.000  C
  C113     1.0000 0.88980  0.70520  0.49600  Biso   1.000  C
  H58      1.0000 0.88710  0.65860  0.50270  Biso   1.000  H
  C114     1.0000 0.89270  0.75110  0.53610  Biso   1.000  C
  H59      1.0000 0.89200  0.73600  0.57020  Biso   1.000  H
  C115     1.0000 0.89670  0.81930  0.52640  Biso   1.000  C
  C116     1.0000 0.89780  0.84150  0.47660  Biso   1.000  C
  H60      1.0000 0.90050  0.88810  0.46990  Biso   1.000  H
  C117     1.0000 0.69640  0.63200  0.14050  Biso   1.000  C
  C118     1.0000 0.99350  0.31930  0.12210  Biso   1.000  C
  C119     1.0000 0.89890  0.56950  0.26130  Biso   1.000  C
  C120     1.0000 0.89650  0.87250  0.56660  Biso   1.000  C
  Zn11     1.0000 0.40438  0.06836  0.65730  Biso   1.000  Zn
  Zn12     1.0000 0.39431  0.31730  0.85870  Biso   1.000  Zn
  O41      1.0000 0.14510  0.10160  0.63570  Biso   1.000  O
  O42      1.0000 0.20450  0.18530  0.64120  Biso   1.000  O
  O43      1.0000 0.49370  0.76430  0.61380  Biso   1.000  O
  O44      1.0000 0.53370  0.85740  0.63720  Biso   1.000  O
  O45      1.0000 0.39300  0.01080  0.76110  Biso   1.000  O
  O46      1.0000 0.40260  0.11000  0.72700  Biso   1.000  O
  O47      1.0000 0.39500  0.34400  0.11000  Biso   1.000  O
  O48      1.0000 0.40270  0.42930  0.05770  Biso   1.000  O
  N21      1.0000 0.32250  0.04700  0.64380  Biso   1.000  N
  C121     1.0000 0.28120  0.09080  0.64270  Biso   1.000  C
  H61      1.0000 0.28720  0.13760  0.64710  Biso   1.000  H
  C122     1.0000 0.23100  0.06610  0.63540  Biso   1.000  C
  C123     1.0000 0.22210  0.99760  0.62910  Biso   1.000  C
  H62      1.0000 0.18780  0.98080  0.62410  Biso   1.000  H
  C124     1.0000 0.26340  0.95390  0.63010  Biso   1.000  C
  H63      1.0000 0.25730  0.90710  0.62580  Biso   1.000  H
  C125     1.0000 0.31360  0.97850  0.63750  Biso   1.000  C
  N22      1.0000 0.40250  0.96650  0.64440  Biso   1.000  N
  C126     1.0000 0.35520  0.93410  0.63100  Biso   1.000  C
  C127     1.0000 0.35360  0.86690  0.61680  Biso   1.000  C
  H64      1.0000 0.32130  0.84480  0.60770  Biso   1.000  H
  C128     1.0000 0.39920  0.83200  0.61600  Biso   1.000  C
  H65      1.0000 0.39810  0.78610  0.60630  Biso   1.000  H
  C129     1.0000 0.44650  0.86440  0.62940  Biso   1.000  C
  C130     1.0000 0.44810  0.93160  0.64360  Biso   1.000  C
  H66      1.0000 0.48040  0.95380  0.65270  Biso   1.000  H
  N23      1.0000 0.39010  0.21700  0.85620  Biso   1.000  N
  C131     1.0000 0.39410  0.18250  0.81120  Biso   1.000  C
  H67      1.0000 0.39850  0.20650  0.78110  Biso   1.000  H
  C132     1.0000 0.39170  0.11280  0.81020  Biso   1.000  C
  C133     1.0000 0.38530  0.07770  0.85420  Biso   1.000  C
  H68      1.0000 0.38370  0.03010  0.85360  Biso   1.000  H
  C134     1.0000 0.38130  0.11220  0.89920  Biso   1.000  C
  H69      1.0000 0.37700  0.08810  0.92930  Biso   1.000  H
  C135     1.0000 0.38370  0.18180  0.90020  Biso   1.000  C
  N24      1.0000 0.39490  0.29560  0.93650  Biso   1.000  N
  C136     1.0000 0.39090  0.22740  0.94620  Biso   1.000  C
  C137     1.0000 0.38980  0.20520  0.99600  Biso   1.000  C
  H70      1.0000 0.38710  0.15860  0.00270  Biso   1.000  H
  C138     1.0000 0.39270  0.25110  0.03610  Biso   1.000  C
  H71      1.0000 0.39200  0.23600  0.07020  Biso   1.000  H
  C139     1.0000 0.39670  0.31930  0.02640  Biso   1.000  C
  C140     1.0000 0.39780  0.34150  0.97660  Biso   1.000  C
  H72      1.0000 0.40050  0.38810  0.96990  Biso   1.000  H
  C141     1.0000 0.19640  0.13200  0.64050  Biso   1.000  C
  C142     1.0000 0.49350  0.81930  0.62210  Biso   1.000  C
  C143     1.0000 0.39890  0.06950  0.76130  Biso   1.000  C
  C144     1.0000 0.39650  0.37250  0.06660  Biso   1.000  C
  Zn13     1.0000 0.59562  0.56836  0.84270  Biso   1.000  Zn
  Zn14     1.0000 0.60569  0.81730  0.64130  Biso   1.000  Zn
  O49      1.0000 0.85490  0.60160  0.86430  Biso   1.000  O
  O50      1.0000 0.79550  0.68530  0.85880  Biso   1.000  O
  O51      1.0000 0.50630  0.26430  0.88620  Biso   1.000  O
  O52      1.0000 0.46630  0.35740  0.86280  Biso   1.000  O
  O53      1.0000 0.60700  0.51080  0.73890  Biso   1.000  O
  O54      1.0000 0.59740  0.61000  0.77300  Biso   1.000  O
  O55      1.0000 0.60500  0.84400  0.39000  Biso   1.000  O
  O56      1.0000 0.59730  0.92930  0.44230  Biso   1.000  O
  N25      1.0000 0.67750  0.54700  0.85620  Biso   1.000  N
  C145     1.0000 0.71880  0.59080  0.85730  Biso   1.000  C
  H73      1.0000 0.71280  0.63760  0.85290  Biso   1.000  H
  C146     1.0000 0.76900  0.56610  0.86460  Biso   1.000  C
  C147     1.0000 0.77790  0.49760  0.87090  Biso   1.000  C
  H74      1.0000 0.81220  0.48080  0.87590  Biso   1.000  H
  C148     1.0000 0.73660  0.45390  0.86990  Biso   1.000  C
  H75      1.0000 0.74270  0.40710  0.87420  Biso   1.000  H
  C149     1.0000 0.68640  0.47850  0.86250  Biso   1.000  C
  N26      1.0000 0.59750  0.46650  0.85560  Biso   1.000  N
  C150     1.0000 0.64480  0.43410  0.86900  Biso   1.000  C
  C151     1.0000 0.64640  0.36690  0.88320  Biso   1.000  C
  H76      1.0000 0.67870  0.34480  0.89230  Biso   1.000  H
  C152     1.0000 0.60080  0.33200  0.88400  Biso   1.000  C
  H77      1.0000 0.60190  0.28610  0.89370  Biso   1.000  H
  C153     1.0000 0.55350  0.36440  0.87060  Biso   1.000  C
  C154     1.0000 0.55190  0.43160  0.85640  Biso   1.000  C
  H78      1.0000 0.51960  0.45380  0.84730  Biso   1.000  H
  N27      1.0000 0.60990  0.71700  0.64380  Biso   1.000  N
  C155     1.0000 0.60590  0.68250  0.68880  Biso   1.000  C
  H79      1.0000 0.60150  0.70650  0.71890  Biso   1.000  H
  C156     1.0000 0.60830  0.61280  0.68980  Biso   1.000  C
  C157     1.0000 0.61470  0.57770  0.64580  Biso   1.000  C
  H80      1.0000 0.61630  0.53010  0.64640  Biso   1.000  H
  C158     1.0000 0.61870  0.61220  0.60080  Biso   1.000  C
  H81      1.0000 0.62300  0.58810  0.57070  Biso   1.000  H
  C159     1.0000 0.61630  0.68180  0.59980  Biso   1.000  C
  N28      1.0000 0.60510  0.79560  0.56350  Biso   1.000  N
  C160     1.0000 0.60910  0.72740  0.55380  Biso   1.000  C
  C161     1.0000 0.61020  0.70520  0.50400  Biso   1.000  C
  H82      1.0000 0.61290  0.65860  0.49730  Biso   1.000  H
  C162     1.0000 0.60730  0.75110  0.46390  Biso   1.000  C
  H83      1.0000 0.60800  0.73600  0.42980  Biso   1.000  H
  C163     1.0000 0.60330  0.81930  0.47360  Biso   1.000  C
  C164     1.0000 0.60220  0.84150  0.52340  Biso   1.000  C
  H84      1.0000 0.59950  0.88810  0.53010  Biso   1.000  H
  C165     1.0000 0.80360  0.63200  0.85950  Biso   1.000  C
  C166     1.0000 0.50650  0.31930  0.87790  Biso   1.000  C
  C167     1.0000 0.60110  0.56950  0.73870  Biso   1.000  C
  C168     1.0000 0.60350  0.87250  0.43340  Biso   1.000  C
  Zn15     1.0000 0.09562  0.06836  0.34270  Biso   1.000  Zn
  Zn16     1.0000 0.10569  0.31730  0.14130  Biso   1.000  Zn
  O57      1.0000 0.35490  0.10160  0.36430  Biso   1.000  O
  O58      1.0000 0.29550  0.18530  0.35880  Biso   1.000  O
  O59      1.0000 0.00630  0.76430  0.38620  Biso   1.000  O
  O60      1.0000 0.96630  0.85740  0.36280  Biso   1.000  O
  O61      1.0000 0.10700  0.01080  0.23890  Biso   1.000  O
  O62      1.0000 0.09740  0.11000  0.27300  Biso   1.000  O
  O63      1.0000 0.10500  0.34400  0.89000  Biso   1.000  O
  O64      1.0000 0.09730  0.42930  0.94230  Biso   1.000  O
  N29      1.0000 0.17750  0.04700  0.35620  Biso   1.000  N
  C169     1.0000 0.21880  0.09080  0.35730  Biso   1.000  C
  H85      1.0000 0.21280  0.13760  0.35290  Biso   1.000  H
  C170     1.0000 0.26900  0.06610  0.36460  Biso   1.000  C
  C171     1.0000 0.27790  0.99760  0.37090  Biso   1.000  C
  H86      1.0000 0.31220  0.98080  0.37590  Biso   1.000  H
  C172     1.0000 0.23660  0.95390  0.36990  Biso   1.000  C
  H87      1.0000 0.24270  0.90710  0.37420  Biso   1.000  H
  C173     1.0000 0.18640  0.97850  0.36250  Biso   1.000  C
  N30      1.0000 0.09750  0.96650  0.35560  Biso   1.000  N
  C174     1.0000 0.14480  0.93410  0.36900  Biso   1.000  C
  C175     1.0000 0.14640  0.86690  0.38320  Biso   1.000  C
  H88      1.0000 0.17870  0.84480  0.39230  Biso   1.000  H
  C176     1.0000 0.10080  0.83200  0.38400  Biso   1.000  C
  H89      1.0000 0.10190  0.78610  0.39370  Biso   1.000  H
  C177     1.0000 0.05350  0.86440  0.37060  Biso   1.000  C
  C178     1.0000 0.05190  0.93160  0.35640  Biso   1.000  C
  H90      1.0000 0.01960  0.95380  0.34730  Biso   1.000  H
  N31      1.0000 0.10990  0.21700  0.14380  Biso   1.000  N
  C179     1.0000 0.10590  0.18250  0.18880  Biso   1.000  C
  H91      1.0000 0.10150  0.20650  0.21890  Biso   1.000  H
  C180     1.0000 0.10830  0.11280  0.18980  Biso   1.000  C
  C181     1.0000 0.11470  0.07770  0.14580  Biso   1.000  C
  H92      1.0000 0.11630  0.03010  0.14640  Biso   1.000  H
  C182     1.0000 0.11870  0.11220  0.10080  Biso   1.000  C
  H93      1.0000 0.12300  0.08810  0.07070  Biso   1.000  H
  C183     1.0000 0.11630  0.18180  0.09980  Biso   1.000  C
  N32      1.0000 0.10510  0.29560  0.06350  Biso   1.000  N
  C184     1.0000 0.10910  0.22740  0.05380  Biso   1.000  C
  C185     1.0000 0.11020  0.20520  0.00400  Biso   1.000  C
  H94      1.0000 0.11290  0.15860  0.99730  Biso   1.000  H
  C186     1.0000 0.10730  0.25110  0.96390  Biso   1.000  C
  H95      1.0000 0.10800  0.23600  0.92980  Biso   1.000  H
  C187     1.0000 0.10330  0.31930  0.97360  Biso   1.000  C
  C188     1.0000 0.10220  0.34150  0.02340  Biso   1.000  C
  H96      1.0000 0.09950  0.38810  0.03010  Biso   1.000  H
  C189     1.0000 0.30360  0.13200  0.35950  Biso   1.000  C
  C190     1.0000 0.00650  0.81930  0.37790  Biso   1.000  C
  C191     1.0000 0.10110  0.06950  0.23870  Biso   1.000  C
  C192     1.0000 0.10350  0.37250  0.93340  Biso   1.000  C
