data_image0
_cell_length_a       9.2769
_cell_length_b       14.7984
_cell_length_c       14.6106
_cell_angle_alpha    90
_cell_angle_beta     90
_cell_angle_gamma    90

_symmetry_space_group_name_H-M    "P 1"
_symmetry_int_tables_number       1

loop_
  _symmetry_equiv_pos_as_xyz
  'x, y, z'

loop_
  _atom_site_label
  _atom_site_occupancy
  _atom_site_fract_x
  _atom_site_fract_y
  _atom_site_fract_z
  _atom_site_thermal_displace_type
  _atom_site_B_iso_or_equiv
  _atom_site_type_symbol
  P1       1.0000 0.14820  0.13343  0.10310  Biso   1.000  P
  Al1      1.0000 0.14260  0.34700  0.11500  Biso   1.000  Al
  O1       1.0000 0.96670  0.35920  0.16380  Biso   1.000  O
  O2       1.0000 0.72790  0.92170  0.16630  Biso   1.000  O
  O3       1.0000 0.25620  0.06680  0.13970  Biso   1.000  O
  O4       1.0000 0.12700  0.11490  0.00070  Biso   1.000  O
  O5       1.0000 0.00260  0.12060  0.14900  Biso   1.000  O
  O6       1.0000 0.19830  0.23080  0.11670  Biso   1.000  O
  P2       1.0000 0.85180  0.86657  0.60310  Biso   1.000  P
  Al2      1.0000 0.85740  0.65300  0.61500  Biso   1.000  Al
  O7       1.0000 0.03330  0.64080  0.66380  Biso   1.000  O
  O8       1.0000 0.27210  0.07830  0.66630  Biso   1.000  O
  O9       1.0000 0.74380  0.93320  0.63970  Biso   1.000  O
  O10      1.0000 0.87300  0.88510  0.50070  Biso   1.000  O
  O11      1.0000 0.99740  0.87940  0.64900  Biso   1.000  O
  O12      1.0000 0.80170  0.76920  0.61670  Biso   1.000  O
  P3       1.0000 0.85180  0.63343  0.39690  Biso   1.000  P
  Al3      1.0000 0.85740  0.84700  0.38500  Biso   1.000  Al
  O13      1.0000 0.03330  0.85920  0.33620  Biso   1.000  O
  O14      1.0000 0.27210  0.42170  0.33370  Biso   1.000  O
  O15      1.0000 0.74380  0.56680  0.36030  Biso   1.000  O
  O16      1.0000 0.87300  0.61490  0.49930  Biso   1.000  O
  O17      1.0000 0.99740  0.62060  0.35100  Biso   1.000  O
  O18      1.0000 0.80170  0.73080  0.38330  Biso   1.000  O
  P4       1.0000 0.14820  0.36657  0.89690  Biso   1.000  P
  Al4      1.0000 0.14260  0.15300  0.88500  Biso   1.000  Al
  O19      1.0000 0.96670  0.14080  0.83620  Biso   1.000  O
  O20      1.0000 0.72790  0.57830  0.83370  Biso   1.000  O
  O21      1.0000 0.25620  0.43320  0.86030  Biso   1.000  O
  O22      1.0000 0.12700  0.38510  0.99930  Biso   1.000  O
  O23      1.0000 0.00260  0.37940  0.85100  Biso   1.000  O
  O24      1.0000 0.19830  0.26920  0.88330  Biso   1.000  O
  P5       1.0000 0.85180  0.86657  0.89690  Biso   1.000  P
  Al5      1.0000 0.85740  0.65300  0.88500  Biso   1.000  Al
  O25      1.0000 0.03330  0.64080  0.83620  Biso   1.000  O
  O26      1.0000 0.27210  0.07830  0.83370  Biso   1.000  O
  O27      1.0000 0.74380  0.93320  0.86030  Biso   1.000  O
  O28      1.0000 0.87300  0.88510  0.99930  Biso   1.000  O
  O29      1.0000 0.99740  0.87940  0.85100  Biso   1.000  O
  O30      1.0000 0.80170  0.76920  0.88330  Biso   1.000  O
  P6       1.0000 0.14820  0.13343  0.39690  Biso   1.000  P
  Al6      1.0000 0.14260  0.34700  0.38500  Biso   1.000  Al
  O31      1.0000 0.96670  0.35920  0.33620  Biso   1.000  O
  O32      1.0000 0.72790  0.92170  0.33370  Biso   1.000  O
  O33      1.0000 0.25620  0.06680  0.36030  Biso   1.000  O
  O34      1.0000 0.12700  0.11490  0.49930  Biso   1.000  O
  O35      1.0000 0.00260  0.12060  0.35100  Biso   1.000  O
  O36      1.0000 0.19830  0.23080  0.38330  Biso   1.000  O
  P7       1.0000 0.14820  0.36657  0.60310  Biso   1.000  P
  Al7      1.0000 0.14260  0.15300  0.61500  Biso   1.000  Al
  O37      1.0000 0.96670  0.14080  0.66380  Biso   1.000  O
  O38      1.0000 0.72790  0.57830  0.66630  Biso   1.000  O
  O39      1.0000 0.25620  0.43320  0.63970  Biso   1.000  O
  O40      1.0000 0.12700  0.38510  0.50070  Biso   1.000  O
  O41      1.0000 0.00260  0.37940  0.64900  Biso   1.000  O
  O42      1.0000 0.19830  0.26920  0.61670  Biso   1.000  O
  P8       1.0000 0.85180  0.63343  0.10310  Biso   1.000  P
  Al8      1.0000 0.85740  0.84700  0.11500  Biso   1.000  Al
  O43      1.0000 0.03330  0.85920  0.16380  Biso   1.000  O
  O44      1.0000 0.27210  0.42170  0.16630  Biso   1.000  O
  O45      1.0000 0.74380  0.56680  0.13970  Biso   1.000  O
  O46      1.0000 0.87300  0.61490  0.00070  Biso   1.000  O
  O47      1.0000 0.99740  0.62060  0.14900  Biso   1.000  O
  O48      1.0000 0.80170  0.73080  0.11670  Biso   1.000  O
  P9       1.0000 0.87650  0.34300  0.25000  Biso   1.000  P
  P10      1.0000 0.68200  0.97210  0.25000  Biso   1.000  P
  Al9      1.0000 0.90150  0.13560  0.25000  Biso   1.000  Al
  Al10     1.0000 0.33230  0.02040  0.25000  Biso   1.000  Al
  Mg1      1.0000 0.66770  0.52040  0.25000  Biso   1.000  Mg
  O49      1.0000 0.82560  0.24440  0.25000  Biso   1.000  O
  O50      1.0000 0.74710  0.40180  0.25000  Biso   1.000  O
  O51      1.0000 0.75590  0.06160  0.25000  Biso   1.000  O
  O52      1.0000 0.52650  0.98620  0.25000  Biso   1.000  O
  P11      1.0000 0.12350  0.65700  0.75000  Biso   1.000  P
  P12      1.0000 0.31800  0.02790  0.75000  Biso   1.000  P
  Al11     1.0000 0.09850  0.86440  0.75000  Biso   1.000  Al
  Al12     1.0000 0.66770  0.97960  0.75000  Biso   1.000  Al
  Mg2      1.0000 0.33230  0.47960  0.75000  Biso   1.000  Mg
  O53      1.0000 0.17440  0.75560  0.75000  Biso   1.000  O
  O54      1.0000 0.25290  0.59820  0.75000  Biso   1.000  O
  O55      1.0000 0.24410  0.93840  0.75000  Biso   1.000  O
  O56      1.0000 0.47350  0.01380  0.75000  Biso   1.000  O
  P13      1.0000 0.12350  0.84300  0.25000  Biso   1.000  P
  P14      1.0000 0.31800  0.47210  0.25000  Biso   1.000  P
  Al13     1.0000 0.09850  0.63560  0.25000  Biso   1.000  Al
  O57      1.0000 0.17440  0.74440  0.25000  Biso   1.000  O
  O58      1.0000 0.25290  0.90180  0.25000  Biso   1.000  O
  O59      1.0000 0.24410  0.56160  0.25000  Biso   1.000  O
  O60      1.0000 0.47350  0.48620  0.25000  Biso   1.000  O
  P15      1.0000 0.87650  0.15700  0.75000  Biso   1.000  P
  P16      1.0000 0.68200  0.52790  0.75000  Biso   1.000  P
  Al14     1.0000 0.90150  0.36440  0.75000  Biso   1.000  Al
  O61      1.0000 0.82560  0.25560  0.75000  Biso   1.000  O
  O62      1.0000 0.74710  0.09820  0.75000  Biso   1.000  O
  O63      1.0000 0.75590  0.43840  0.75000  Biso   1.000  O
  O64      1.0000 0.52650  0.51380  0.75000  Biso   1.000  O
