data_image0
_cell_length_a       9.465
_cell_length_b       12.581
_cell_length_c       18.98
_cell_angle_alpha    90
_cell_angle_beta     93.548
_cell_angle_gamma    90

_symmetry_space_group_name_H-M    "P 1"
_symmetry_int_tables_number       1

loop_
  _symmetry_equiv_pos_as_xyz
  'x, y, z'

loop_
  _atom_site_label
  _atom_site_occupancy
  _atom_site_fract_x
  _atom_site_fract_y
  _atom_site_fract_z
  _atom_site_thermal_displace_type
  _atom_site_B_iso_or_equiv
  _atom_site_type_symbol
  Co1      1.0000 0.24936  0.85299  0.24112  Biso   1.000  Co
  Co2      1.0000 0.06249  0.82072  0.06914  Biso   1.000  Co
  N1       1.0000 0.25140  0.87380  0.35159  Biso   1.000  N
  N2       1.0000 0.27710  0.68750  0.38940  Biso   1.000  N
  N3       1.0000 0.36680  0.71220  0.50170  Biso   1.000  N
  N4       1.0000 0.37080  0.94300  0.56220  Biso   1.000  N
  N5       1.0000 0.30180  0.99550  0.44730  Biso   1.000  N
  O1       1.0000 0.09310  0.97010  0.22607  Biso   1.000  O
  O2       1.0000 0.98220  0.95530  0.11787  Biso   1.000  O
  O3       1.0000 0.40380  0.97260  0.24161  Biso   1.000  O
  O4       1.0000 0.43390  0.99830  0.12696  Biso   1.000  O
  O5       1.0000 0.08570  0.23870  0.23875  Biso   1.000  O
  O6       1.0000 0.06250  0.17470  0.34746  Biso   1.000  O
  O7       1.0000 0.40310  0.23190  0.24545  Biso   1.000  O
  O8       1.0000 0.51000  0.22130  0.35355  Biso   1.000  O
  C1       1.0000 0.28320  0.79660  0.39950  Biso   1.000  C
  C2       1.0000 0.32680  0.64250  0.45100  Biso   1.000  C
  H1       1.0000 0.33260  0.56930  0.45750  Biso   1.000  H
  C3       1.0000 0.33370  0.81140  0.46860  Biso   1.000  C
  C4       1.0000 0.33770  0.91720  0.49480  Biso   1.000  C
  C5       1.0000 0.26520  0.97060  0.38020  Biso   1.000  C
  H2       1.0000 0.24700  0.02750  0.34970  Biso   1.000  H
  C6       1.0000 0.99310  0.98850  0.18180  Biso   1.000  C
  C7       1.0000 0.86870  0.05070  0.20710  Biso   1.000  C
  C8       1.0000 0.73350  0.01630  0.18480  Biso   1.000  C
  H3       1.0000 0.72360  0.96280  0.15110  Biso   1.000  H
  C9       1.0000 0.61130  0.06030  0.21180  Biso   1.000  C
  C10      1.0000 0.47160  0.00800  0.19120  Biso   1.000  C
  C11      1.0000 0.76190  0.17790  0.28320  Biso   1.000  C
  H4       1.0000 0.77150  0.23220  0.31640  Biso   1.000  H
  C12      1.0000 0.88400  0.13300  0.25700  Biso   1.000  C
  C13      1.0000 0.02400  0.18380  0.28360  Biso   1.000  C
  C14      1.0000 0.62700  0.14330  0.26070  Biso   1.000  C
  C15      1.0000 0.50120  0.20170  0.28870  Biso   1.000  C
  O9       1.0000 0.26160  0.83540  0.12923  Biso   1.000  O
  H5       1.0000 0.25450  0.65620  0.35020  Biso   1.000  H
  H6       1.0000 0.39610  0.01430  0.57440  Biso   1.000  H
  H7       1.0000 0.40540  0.87230  0.59600  Biso   1.000  H
  H8       1.0000 0.30730  0.78030  0.12910  Biso   1.000  H
  H9       1.0000 0.31430  0.88700  0.12440  Biso   1.000  H
  Co3      1.0000 0.25064  0.35299  0.25888  Biso   1.000  Co
  Co4      1.0000 0.43751  0.32072  0.43086  Biso   1.000  Co
  N6       1.0000 0.24860  0.37380  0.14841  Biso   1.000  N
  N7       1.0000 0.22290  0.18750  0.11060  Biso   1.000  N
  N8       1.0000 0.13320  0.21220  0.99830  Biso   1.000  N
  N9       1.0000 0.12920  0.44300  0.93780  Biso   1.000  N
  N10      1.0000 0.19820  0.49550  0.05270  Biso   1.000  N
  O10      1.0000 0.40690  0.47010  0.27393  Biso   1.000  O
  O11      1.0000 0.51780  0.45530  0.38213  Biso   1.000  O
  O12      1.0000 0.09620  0.47260  0.25839  Biso   1.000  O
  O13      1.0000 0.06610  0.49830  0.37304  Biso   1.000  O
  O14      1.0000 0.41430  0.73870  0.26125  Biso   1.000  O
  O15      1.0000 0.43750  0.67470  0.15254  Biso   1.000  O
  O16      1.0000 0.09690  0.73190  0.25455  Biso   1.000  O
  O17      1.0000 0.99000  0.72130  0.14645  Biso   1.000  O
  C16      1.0000 0.21680  0.29660  0.10050  Biso   1.000  C
  C17      1.0000 0.17320  0.14250  0.04900  Biso   1.000  C
  H10      1.0000 0.16740  0.06930  0.04250  Biso   1.000  H
  C18      1.0000 0.16630  0.31140  0.03140  Biso   1.000  C
  C19      1.0000 0.16230  0.41720  0.00520  Biso   1.000  C
  C20      1.0000 0.23480  0.47060  0.11980  Biso   1.000  C
  H11      1.0000 0.25300  0.52750  0.15030  Biso   1.000  H
  C21      1.0000 0.50690  0.48850  0.31820  Biso   1.000  C
  C22      1.0000 0.63130  0.55070  0.29290  Biso   1.000  C
  C23      1.0000 0.76650  0.51630  0.31520  Biso   1.000  C
  H12      1.0000 0.77640  0.46280  0.34890  Biso   1.000  H
  C24      1.0000 0.88870  0.56030  0.28820  Biso   1.000  C
  C25      1.0000 0.02840  0.50800  0.30880  Biso   1.000  C
  C26      1.0000 0.73810  0.67790  0.21680  Biso   1.000  C
  H13      1.0000 0.72850  0.73220  0.18360  Biso   1.000  H
  C27      1.0000 0.61600  0.63300  0.24300  Biso   1.000  C
  C28      1.0000 0.47600  0.68380  0.21640  Biso   1.000  C
  C29      1.0000 0.87300  0.64330  0.23930  Biso   1.000  C
  C30      1.0000 0.99880  0.70170  0.21130  Biso   1.000  C
  O18      1.0000 0.23840  0.33540  0.37077  Biso   1.000  O
  H14      1.0000 0.24550  0.15620  0.14980  Biso   1.000  H
  H15      1.0000 0.10390  0.51430  0.92560  Biso   1.000  H
  H16      1.0000 0.09460  0.37230  0.90400  Biso   1.000  H
  H17      1.0000 0.19270  0.28030  0.37090  Biso   1.000  H
  H18      1.0000 0.18570  0.38700  0.37560  Biso   1.000  H
  Co5      1.0000 0.75064  0.14701  0.75888  Biso   1.000  Co
  Co6      1.0000 0.93751  0.17928  0.93086  Biso   1.000  Co
  N11      1.0000 0.74860  0.12620  0.64841  Biso   1.000  N
  N12      1.0000 0.72290  0.31250  0.61060  Biso   1.000  N
  N13      1.0000 0.63320  0.28780  0.49830  Biso   1.000  N
  N14      1.0000 0.62920  0.05700  0.43780  Biso   1.000  N
  N15      1.0000 0.69820  0.00450  0.55270  Biso   1.000  N
  O19      1.0000 0.90690  0.02990  0.77393  Biso   1.000  O
  O20      1.0000 0.01780  0.04470  0.88213  Biso   1.000  O
  O21      1.0000 0.59620  0.02740  0.75839  Biso   1.000  O
  O22      1.0000 0.56610  0.00170  0.87304  Biso   1.000  O
  O23      1.0000 0.91430  0.76130  0.76125  Biso   1.000  O
  O24      1.0000 0.93750  0.82530  0.65254  Biso   1.000  O
  O25      1.0000 0.59690  0.76810  0.75455  Biso   1.000  O
  O26      1.0000 0.49000  0.77870  0.64645  Biso   1.000  O
  C31      1.0000 0.71680  0.20340  0.60050  Biso   1.000  C
  C32      1.0000 0.67320  0.35750  0.54900  Biso   1.000  C
  H19      1.0000 0.66740  0.43070  0.54250  Biso   1.000  H
  C33      1.0000 0.66630  0.18860  0.53140  Biso   1.000  C
  C34      1.0000 0.66230  0.08280  0.50520  Biso   1.000  C
  C35      1.0000 0.73480  0.02940  0.61980  Biso   1.000  C
  H20      1.0000 0.75300  0.97250  0.65030  Biso   1.000  H
  C36      1.0000 0.00690  0.01150  0.81820  Biso   1.000  C
  C37      1.0000 0.13130  0.94930  0.79290  Biso   1.000  C
  C38      1.0000 0.26650  0.98370  0.81520  Biso   1.000  C
  H21      1.0000 0.27640  0.03720  0.84890  Biso   1.000  H
  C39      1.0000 0.38870  0.93970  0.78820  Biso   1.000  C
  C40      1.0000 0.52840  0.99200  0.80880  Biso   1.000  C
  C41      1.0000 0.23810  0.82210  0.71680  Biso   1.000  C
  H22      1.0000 0.22850  0.76780  0.68360  Biso   1.000  H
  C42      1.0000 0.11600  0.86700  0.74300  Biso   1.000  C
  C43      1.0000 0.97600  0.81620  0.71640  Biso   1.000  C
  C44      1.0000 0.37300  0.85670  0.73930  Biso   1.000  C
  C45      1.0000 0.49880  0.79830  0.71130  Biso   1.000  C
  O27      1.0000 0.73840  0.16460  0.87077  Biso   1.000  O
  H23      1.0000 0.74550  0.34380  0.64980  Biso   1.000  H
  H24      1.0000 0.60390  0.98570  0.42560  Biso   1.000  H
  H25      1.0000 0.59460  0.12770  0.40400  Biso   1.000  H
  H26      1.0000 0.69270  0.21970  0.87090  Biso   1.000  H
  H27      1.0000 0.68570  0.11300  0.87560  Biso   1.000  H
  Co7      1.0000 0.74936  0.64701  0.74112  Biso   1.000  Co
  Co8      1.0000 0.56249  0.67928  0.56914  Biso   1.000  Co
  N16      1.0000 0.75140  0.62620  0.85159  Biso   1.000  N
  N17      1.0000 0.77710  0.81250  0.88940  Biso   1.000  N
  N18      1.0000 0.86680  0.78780  0.00170  Biso   1.000  N
  N19      1.0000 0.87080  0.55700  0.06220  Biso   1.000  N
  N20      1.0000 0.80180  0.50450  0.94730  Biso   1.000  N
  O28      1.0000 0.59310  0.52990  0.72607  Biso   1.000  O
  O29      1.0000 0.48220  0.54470  0.61787  Biso   1.000  O
  O30      1.0000 0.90380  0.52740  0.74161  Biso   1.000  O
  O31      1.0000 0.93390  0.50170  0.62696  Biso   1.000  O
  O32      1.0000 0.58570  0.26130  0.73875  Biso   1.000  O
  O33      1.0000 0.56250  0.32530  0.84746  Biso   1.000  O
  O34      1.0000 0.90310  0.26810  0.74545  Biso   1.000  O
  O35      1.0000 0.01000  0.27870  0.85355  Biso   1.000  O
  C46      1.0000 0.78320  0.70340  0.89950  Biso   1.000  C
  C47      1.0000 0.82680  0.85750  0.95100  Biso   1.000  C
  H28      1.0000 0.83260  0.93070  0.95750  Biso   1.000  H
  C48      1.0000 0.83370  0.68860  0.96860  Biso   1.000  C
  C49      1.0000 0.83770  0.58280  0.99480  Biso   1.000  C
  C50      1.0000 0.76520  0.52940  0.88020  Biso   1.000  C
  H29      1.0000 0.74700  0.47250  0.84970  Biso   1.000  H
  C51      1.0000 0.49310  0.51150  0.68180  Biso   1.000  C
  C52      1.0000 0.36870  0.44930  0.70710  Biso   1.000  C
  C53      1.0000 0.23350  0.48370  0.68480  Biso   1.000  C
  H30      1.0000 0.22360  0.53720  0.65110  Biso   1.000  H
  C54      1.0000 0.11130  0.43970  0.71180  Biso   1.000  C
  C55      1.0000 0.97160  0.49200  0.69120  Biso   1.000  C
  C56      1.0000 0.26190  0.32210  0.78320  Biso   1.000  C
  H31      1.0000 0.27150  0.26780  0.81640  Biso   1.000  H
  C57      1.0000 0.38400  0.36700  0.75700  Biso   1.000  C
  C58      1.0000 0.52400  0.31620  0.78360  Biso   1.000  C
  C59      1.0000 0.12700  0.35670  0.76070  Biso   1.000  C
  C60      1.0000 0.00120  0.29830  0.78870  Biso   1.000  C
  O36      1.0000 0.76160  0.66460  0.62923  Biso   1.000  O
  H32      1.0000 0.75450  0.84380  0.85020  Biso   1.000  H
  H33      1.0000 0.89610  0.48570  0.07440  Biso   1.000  H
  H34      1.0000 0.90540  0.62770  0.09600  Biso   1.000  H
  H35      1.0000 0.80730  0.71970  0.62910  Biso   1.000  H
  H36      1.0000 0.81430  0.61300  0.62440  Biso   1.000  H
