data_QUFTAM_clean
_audit_creation_date              2014-07-02
_audit_creation_method            'Materials Studio'
_symmetry_space_group_name_H-M    'P1'
_symmetry_Int_Tables_number       1
_symmetry_cell_setting            triclinic
loop_
_symmetry_equiv_pos_as_xyz
  x,y,z
_cell_length_a                    11.2340
_cell_length_b                    11.5767
_cell_length_c                    11.5767
_cell_angle_alpha                 109.0980
_cell_angle_beta                  100.1000
_cell_angle_gamma                 100.1000
loop_
_atom_site_label
_atom_site_type_symbol
_atom_site_fract_x
_atom_site_fract_y
_atom_site_fract_z
_atom_site_U_iso_or_equiv
_atom_site_adp_type
_atom_site_occupancy
Na1    Na    0.75000   0.14180   0.85820   0.01267  Uiso   1.00
Na2    Na    0.75000   0.95070   0.04930   0.01267  Uiso   1.00
Na3    Na    0.25000   0.85820   0.14180   0.01267  Uiso   1.00
Na4    Na    0.25000   0.04930   0.95070   0.01267  Uiso   1.00
Cu1    Cu    0.01930   0.16530   0.77570   0.01267  Uiso   1.00
Cu2    Cu    0.48070   0.22430   0.83470   0.01267  Uiso   1.00
Cu3    Cu    0.98070   0.83470   0.22430   0.01267  Uiso   1.00
Cu4    Cu    0.51930   0.77570   0.16530   0.01267  Uiso   1.00
H1     H     0.85810   0.97760   0.66060   0.01267  Uiso   1.00
H2     H     0.90030   0.96410   0.77850   0.01267  Uiso   1.00
H3     H     0.86150   0.35300   0.12560   0.01267  Uiso   1.00
H4     H     0.25130   0.60250   0.18090   0.01267  Uiso   1.00
H5     H     0.22390   0.39040   0.13920   0.01267  Uiso   1.00
H6     H     0.64190   0.33940   0.02240   0.01267  Uiso   1.00
H7     H     0.59970   0.22150   0.03590   0.01267  Uiso   1.00
H8     H     0.63850   0.87440   0.64700   0.01267  Uiso   1.00
H9     H     0.24870   0.81910   0.39750   0.01267  Uiso   1.00
H10    H     0.27610   0.86080   0.60960   0.01267  Uiso   1.00
H11    H     0.14190   0.02240   0.33940   0.01267  Uiso   1.00
H12    H     0.09970   0.03590   0.22150   0.01267  Uiso   1.00
H13    H     0.13850   0.64700   0.87440   0.01267  Uiso   1.00
H14    H     0.74870   0.39750   0.81910   0.01267  Uiso   1.00
H15    H     0.77610   0.60960   0.86080   0.01267  Uiso   1.00
H16    H     0.35810   0.66060   0.97760   0.01267  Uiso   1.00
H17    H     0.40030   0.77850   0.96410   0.01267  Uiso   1.00
H18    H     0.36150   0.12560   0.35300   0.01267  Uiso   1.00
H19    H     0.75130   0.18090   0.60250   0.01267  Uiso   1.00
H20    H     0.72390   0.13920   0.39040   0.01267  Uiso   1.00
C1     C     0.03610   0.35050   0.12250   0.01267  Uiso   1.00
C2     C     0.93880   0.40370   0.13330   0.01267  Uiso   1.00
C3     C     0.94960   0.53300   0.15600   0.01267  Uiso   1.00
C4     C     0.06930   0.61120   0.17160   0.01267  Uiso   1.00
C5     C     0.17160   0.55290   0.16690   0.01267  Uiso   1.00
C6     C     0.15590   0.42590   0.14250   0.01267  Uiso   1.00
C7     C     0.83410   0.57980   0.15200   0.01267  Uiso   1.00
C8     C     0.46390   0.87750   0.64950   0.01267  Uiso   1.00
C9     C     0.56120   0.86670   0.59630   0.01267  Uiso   1.00
C10    C     0.55040   0.84400   0.46700   0.01267  Uiso   1.00
C11    C     0.43070   0.82840   0.38880   0.01267  Uiso   1.00
C12    C     0.32840   0.83310   0.44710   0.01267  Uiso   1.00
C13    C     0.34410   0.85750   0.57410   0.01267  Uiso   1.00
C14    C     0.66590   0.84800   0.42020   0.01267  Uiso   1.00
C15    C     0.96390   0.64950   0.87750   0.01267  Uiso   1.00
C16    C     0.06120   0.59630   0.86670   0.01267  Uiso   1.00
C17    C     0.05040   0.46700   0.84400   0.01267  Uiso   1.00
C18    C     0.93070   0.38880   0.82840   0.01267  Uiso   1.00
C19    C     0.82840   0.44710   0.83310   0.01267  Uiso   1.00
C20    C     0.84410   0.57410   0.85750   0.01267  Uiso   1.00
C21    C     0.16590   0.42020   0.84800   0.01267  Uiso   1.00
C22    C     0.53610   0.12250   0.35050   0.01267  Uiso   1.00
C23    C     0.43880   0.13330   0.40370   0.01267  Uiso   1.00
C24    C     0.44960   0.15600   0.53300   0.01267  Uiso   1.00
C25    C     0.56930   0.17160   0.61120   0.01267  Uiso   1.00
C26    C     0.67160   0.16690   0.55290   0.01267  Uiso   1.00
C27    C     0.65590   0.14250   0.42590   0.01267  Uiso   1.00
C28    C     0.33410   0.15200   0.57980   0.01267  Uiso   1.00
S1     S     0.01630   0.18750   0.08510   0.01267  Uiso   1.00
S2     S     0.48370   0.91490   0.81250   0.01267  Uiso   1.00
S3     S     0.98370   0.81250   0.91490   0.01267  Uiso   1.00
S4     S     0.51630   0.08510   0.18750   0.01267  Uiso   1.00
O1     O     0.88240   0.13140   0.03980   0.01267  Uiso   1.00
O2     O     0.08170   0.14550   0.98690   0.01267  Uiso   1.00
O3     O     0.07150   0.16990   0.19970   0.01267  Uiso   1.00
O4     O     0.73040   0.50270   0.12650   0.01267  Uiso   1.00
O5     O     0.83900   0.69530   0.17510   0.01267  Uiso   1.00
O6     O     0.09180   0.73100   0.18860   0.01267  Uiso   1.00
O7     O     0.87730   0.01950   0.73650   0.01267  Uiso   1.00
O8     O     0.61760   0.96020   0.86860   0.01267  Uiso   1.00
O9     O     0.41830   0.01310   0.85450   0.01267  Uiso   1.00
O10    O     0.42850   0.80030   0.83010   0.01267  Uiso   1.00
O11    O     0.76960   0.87350   0.49730   0.01267  Uiso   1.00
O12    O     0.66100   0.82490   0.30470   0.01267  Uiso   1.00
O13    O     0.40820   0.81140   0.26900   0.01267  Uiso   1.00
O14    O     0.62270   0.26350   0.98050   0.01267  Uiso   1.00
O15    O     0.11760   0.86860   0.96020   0.01267  Uiso   1.00
O16    O     0.91830   0.85450   0.01310   0.01267  Uiso   1.00
O17    O     0.92850   0.83010   0.80030   0.01267  Uiso   1.00
O18    O     0.26960   0.49730   0.87350   0.01267  Uiso   1.00
O19    O     0.16100   0.30470   0.82490   0.01267  Uiso   1.00
O20    O     0.90820   0.26900   0.81140   0.01267  Uiso   1.00
O21    O     0.12270   0.98050   0.26350   0.01267  Uiso   1.00
O22    O     0.38240   0.03980   0.13140   0.01267  Uiso   1.00
O23    O     0.58170   0.98690   0.14550   0.01267  Uiso   1.00
O24    O     0.57150   0.19970   0.16990   0.01267  Uiso   1.00
O25    O     0.23040   0.12650   0.50270   0.01267  Uiso   1.00
O26    O     0.33900   0.17510   0.69530   0.01267  Uiso   1.00
O27    O     0.59180   0.18860   0.73100   0.01267  Uiso   1.00
O28    O     0.37730   0.73650   0.01950   0.01267  Uiso   1.00
