data_image0
_cell_length_a       29.511
_cell_length_b       12.05
_cell_length_c       13.908
_cell_angle_alpha    90
_cell_angle_beta     111.457
_cell_angle_gamma    90

_symmetry_space_group_name_H-M    "P 1"
_symmetry_int_tables_number       1

loop_
  _symmetry_equiv_pos_as_xyz
  'x, y, z'

loop_
  _atom_site_label
  _atom_site_occupancy
  _atom_site_fract_x
  _atom_site_fract_y
  _atom_site_fract_z
  _atom_site_thermal_displace_type
  _atom_site_B_iso_or_equiv
  _atom_site_type_symbol
  Zn1      1.0000 0.15151  0.95255  0.75428  Biso   1.000  Zn
  Zn2      1.0000 0.84438  0.03743  0.82833  Biso   1.000  Zn
  C1       1.0000 0.36480  0.67030  0.01950  Biso   1.000  C
  H1       1.0000 0.38250  0.61240  0.06030  Biso   1.000  H
  C2       1.0000 0.31970  0.76280  0.89230  Biso   1.000  C
  H2       1.0000 0.29970  0.78190  0.82540  Biso   1.000  H
  C3       1.0000 0.32960  0.83090  0.97440  Biso   1.000  C
  H3       1.0000 0.31870  0.90330  0.97510  Biso   1.000  H
  C4       1.0000 0.37940  0.80510  0.16580  Biso   1.000  C
  H4       1.0000 0.40460  0.75310  0.20420  Biso   1.000  H
  H5       1.0000 0.39440  0.87750  0.17020  Biso   1.000  H
  C5       1.0000 0.34270  0.81070  0.21350  Biso   1.000  C
  H6       1.0000 0.32960  0.73680  0.21310  Biso   1.000  H
  H7       1.0000 0.35870  0.83270  0.28510  Biso   1.000  H
  C6       1.0000 0.31550  0.99520  0.18750  Biso   1.000  C
  H8       1.0000 0.34080  0.01590  0.16180  Biso   1.000  H
  H9       1.0000 0.32790  0.00680  0.26160  Biso   1.000  H
  C7       1.0000 0.27140  0.06470  0.13730  Biso   1.000  C
  H10      1.0000 0.24540  0.03890  0.15880  Biso   1.000  H
  H11      1.0000 0.27860  0.14100  0.16020  Biso   1.000  H
  C8       1.0000 0.21880  0.99860  0.96280  Biso   1.000  C
  H12      1.0000 0.20110  0.94880  0.98640  Biso   1.000  H
  C9       1.0000 0.24610  0.09150  0.86340  Biso   1.000  C
  H13      1.0000 0.25030  0.11770  0.80430  Biso   1.000  H
  C10      1.0000 0.27370  0.12150  0.96330  Biso   1.000  C
  H14      1.0000 0.29930  0.17170  0.98520  Biso   1.000  H
  C11      1.0000 0.11730  0.11060  0.60760  Biso   1.000  C
  C12      1.0000 0.08380  0.19180  0.53410  Biso   1.000  C
  C13      1.0000 0.05450  0.25850  0.56500  Biso   1.000  C
  H15      1.0000 0.05300  0.24740  0.63000  Biso   1.000  H
  C14      1.0000 0.02600  0.34420  0.50150  Biso   1.000  C
  C15      1.0000 0.02900  0.35740  0.40440  Biso   1.000  C
  H16      1.0000 0.01250  0.41550  0.36190  Biso   1.000  H
  C16      1.0000 0.05650  0.28490  0.37070  Biso   1.000  C
  H17      1.0000 0.05730  0.29390  0.30490  Biso   1.000  H
  C17      1.0000 0.08280  0.19920  0.43280  Biso   1.000  C
  C18      1.0000 0.10760  0.11220  0.38600  Biso   1.000  C
  C19      1.0000 0.99650  0.41930  0.54470  Biso   1.000  C
  C20      1.0000 0.96230  0.35060  0.58390  Biso   1.000  C
  C21      1.0000 0.95510  0.37790  0.67500  Biso   1.000  C
  H18      1.0000 0.97190  0.43690  0.71570  Biso   1.000  H
  C22      1.0000 0.92240  0.31500  0.70370  Biso   1.000  C
  H19      1.0000 0.91750  0.33250  0.76430  Biso   1.000  H
  C23      1.0000 0.89710  0.22770  0.64430  Biso   1.000  C
  C24      1.0000 0.90350  0.20350  0.55410  Biso   1.000  C
  C25      1.0000 0.93770  0.26330  0.52430  Biso   1.000  C
  H20      1.0000 0.94340  0.24340  0.46510  Biso   1.000  H
  C26      1.0000 0.86460  0.16670  0.68680  Biso   1.000  C
  C27      1.0000 0.87240  0.11430  0.48040  Biso   1.000  C
  C28      1.0000 0.96310  0.49890  0.45990  Biso   1.000  C
  C29      1.0000 0.03270  0.49350  0.62820  Biso   1.000  C
  C30      1.0000 0.77480  0.96040  0.63050  Biso   1.000  C
  H21      1.0000 0.79150  0.99870  0.59580  Biso   1.000  H
  C31      1.0000 0.75250  0.89430  0.74900  Biso   1.000  C
  H22      1.0000 0.75090  0.88120  0.81360  Biso   1.000  H
  C32      1.0000 0.72490  0.84600  0.66330  Biso   1.000  C
  H23      1.0000 0.70140  0.79220  0.65650  Biso   1.000  H
  C33      1.0000 0.71570  0.86610  0.47220  Biso   1.000  C
  H24      1.0000 0.70610  0.78880  0.46050  Biso   1.000  H
  H25      1.0000 0.74000  0.88010  0.44180  Biso   1.000  H
  C34      1.0000 0.67160  0.94020  0.42110  Biso   1.000  C
  H26      1.0000 0.65690  0.92440  0.34770  Biso   1.000  H
  H27      1.0000 0.64740  0.92870  0.45210  Biso   1.000  H
  C35      1.0000 0.65480  0.12790  0.38340  Biso   1.000  C
  C36      1.0000 0.61910  0.18880  0.42080  Biso   1.000  C
  C37      1.0000 0.64610  0.33040  0.56290  Biso   1.000  C
  H28      1.0000 0.62630  0.38440  0.52000  Biso   1.000  H
  C38      1.0000 0.68870  0.23950  0.69820  Biso   1.000  C
  H29      1.0000 0.70440  0.22010  0.76720  Biso   1.000  H
  C39      1.0000 0.68700  0.17630  0.61630  Biso   1.000  C
  H30      1.0000 0.70080  0.10680  0.61720  Biso   1.000  H
  N1       1.0000 0.34220  0.66430  0.91800  Biso   1.000  N
  N2       1.0000 0.35890  0.77030  0.05630  Biso   1.000  N
  N3       1.0000 0.25480  0.06060  0.02360  Biso   1.000  N
  N4       1.0000 0.21110  0.01600  0.86520  Biso   1.000  N
  N5       1.0000 0.78350  0.96610  0.73010  Biso   1.000  N
  N6       1.0000 0.73720  0.88910  0.58660  Biso   1.000  N
  N7       1.0000 0.65950  0.23980  0.53000  Biso   1.000  N
  N8       1.0000 0.66400  0.33610  0.66390  Biso   1.000  N
  O1       1.0000 0.30328  0.88490  0.16560  Biso   1.000  O
  O2       1.0000 0.10197  0.05510  0.66930  Biso   1.000  O
  O3       1.0000 0.16058  0.10430  0.61250  Biso   1.000  O
  O4       1.0000 0.10110  0.01510  0.39660  Biso   1.000  O
  O5       1.0000 0.12990  0.15630  0.33450  Biso   1.000  O
  O6       1.0000 0.88860  0.07650  0.41330  Biso   1.000  O
  O7       1.0000 0.83540  0.08370  0.49050  Biso   1.000  O
  O8       1.0000 0.82482  0.20500  0.67930  Biso   1.000  O
  O9       1.0000 0.88150  0.07780  0.73820  Biso   1.000  O
  O10      1.0000 0.68870  0.04560  0.43700  Biso   1.000  O
  F1       1.0000 0.01253  0.57990  0.65690  Biso   1.000  F
  F2       1.0000 0.05492  0.43570  0.71430  Biso   1.000  F
  F3       1.0000 0.06550  0.53530  0.59700  Biso   1.000  F
  F4       1.0000 0.98848  0.57580  0.43100  Biso   1.000  F
  F5       1.0000 0.93130  0.55360  0.49440  Biso   1.000  F
  F6       1.0000 0.93458  0.44540  0.37580  Biso   1.000  F
  C40      1.0000 0.66620  0.22680  0.41670  Biso   1.000  C
  Zn3      1.0000 0.65151  0.45255  0.75428  Biso   1.000  Zn
  Zn4      1.0000 0.34438  0.53743  0.82833  Biso   1.000  Zn
  C41      1.0000 0.86480  0.17030  0.01950  Biso   1.000  C
  H31      1.0000 0.88250  0.11240  0.06030  Biso   1.000  H
  C42      1.0000 0.81970  0.26280  0.89230  Biso   1.000  C
  H32      1.0000 0.79970  0.28190  0.82540  Biso   1.000  H
  C43      1.0000 0.82960  0.33090  0.97440  Biso   1.000  C
  H33      1.0000 0.81870  0.40330  0.97510  Biso   1.000  H
  C44      1.0000 0.87940  0.30510  0.16580  Biso   1.000  C
  H34      1.0000 0.90460  0.25310  0.20420  Biso   1.000  H
  H35      1.0000 0.89440  0.37750  0.17020  Biso   1.000  H
  C45      1.0000 0.84270  0.31070  0.21350  Biso   1.000  C
  H36      1.0000 0.82960  0.23680  0.21310  Biso   1.000  H
  H37      1.0000 0.85870  0.33270  0.28510  Biso   1.000  H
  C46      1.0000 0.81550  0.49520  0.18750  Biso   1.000  C
  H38      1.0000 0.84080  0.51590  0.16180  Biso   1.000  H
  H39      1.0000 0.82790  0.50680  0.26160  Biso   1.000  H
  C47      1.0000 0.77140  0.56470  0.13730  Biso   1.000  C
  H40      1.0000 0.74540  0.53890  0.15880  Biso   1.000  H
  H41      1.0000 0.77860  0.64100  0.16020  Biso   1.000  H
  C48      1.0000 0.71880  0.49860  0.96280  Biso   1.000  C
  H42      1.0000 0.70110  0.44880  0.98640  Biso   1.000  H
  C49      1.0000 0.74610  0.59150  0.86340  Biso   1.000  C
  H43      1.0000 0.75030  0.61770  0.80430  Biso   1.000  H
  C50      1.0000 0.77370  0.62150  0.96330  Biso   1.000  C
  H44      1.0000 0.79930  0.67170  0.98520  Biso   1.000  H
  C51      1.0000 0.61730  0.61060  0.60760  Biso   1.000  C
  C52      1.0000 0.58380  0.69180  0.53410  Biso   1.000  C
  C53      1.0000 0.55450  0.75850  0.56500  Biso   1.000  C
  H45      1.0000 0.55300  0.74740  0.63000  Biso   1.000  H
  C54      1.0000 0.52600  0.84420  0.50150  Biso   1.000  C
  C55      1.0000 0.52900  0.85740  0.40440  Biso   1.000  C
  H46      1.0000 0.51250  0.91550  0.36190  Biso   1.000  H
  C56      1.0000 0.55650  0.78490  0.37070  Biso   1.000  C
  H47      1.0000 0.55730  0.79390  0.30490  Biso   1.000  H
  C57      1.0000 0.58280  0.69920  0.43280  Biso   1.000  C
  C58      1.0000 0.60760  0.61220  0.38600  Biso   1.000  C
  C59      1.0000 0.49650  0.91930  0.54470  Biso   1.000  C
  C60      1.0000 0.46230  0.85060  0.58390  Biso   1.000  C
  C61      1.0000 0.45510  0.87790  0.67500  Biso   1.000  C
  H48      1.0000 0.47190  0.93690  0.71570  Biso   1.000  H
  C62      1.0000 0.42240  0.81500  0.70370  Biso   1.000  C
  H49      1.0000 0.41750  0.83250  0.76430  Biso   1.000  H
  C63      1.0000 0.39710  0.72770  0.64430  Biso   1.000  C
  C64      1.0000 0.40350  0.70350  0.55410  Biso   1.000  C
  C65      1.0000 0.43770  0.76330  0.52430  Biso   1.000  C
  H50      1.0000 0.44340  0.74340  0.46510  Biso   1.000  H
  C66      1.0000 0.36460  0.66670  0.68680  Biso   1.000  C
  C67      1.0000 0.37240  0.61430  0.48040  Biso   1.000  C
  C68      1.0000 0.46310  0.99890  0.45990  Biso   1.000  C
  C69      1.0000 0.53270  0.99350  0.62820  Biso   1.000  C
  C70      1.0000 0.27480  0.46040  0.63050  Biso   1.000  C
  H51      1.0000 0.29150  0.49870  0.59580  Biso   1.000  H
  C71      1.0000 0.25250  0.39430  0.74900  Biso   1.000  C
  H52      1.0000 0.25090  0.38120  0.81360  Biso   1.000  H
  C72      1.0000 0.22490  0.34600  0.66330  Biso   1.000  C
  H53      1.0000 0.20140  0.29220  0.65650  Biso   1.000  H
  C73      1.0000 0.21570  0.36610  0.47220  Biso   1.000  C
  H54      1.0000 0.20610  0.28880  0.46050  Biso   1.000  H
  H55      1.0000 0.24000  0.38010  0.44180  Biso   1.000  H
  C74      1.0000 0.17160  0.44020  0.42110  Biso   1.000  C
  H56      1.0000 0.15690  0.42440  0.34770  Biso   1.000  H
  H57      1.0000 0.14740  0.42870  0.45210  Biso   1.000  H
  C75      1.0000 0.15480  0.62790  0.38340  Biso   1.000  C
  C76      1.0000 0.11910  0.68880  0.42080  Biso   1.000  C
  C77      1.0000 0.14610  0.83040  0.56290  Biso   1.000  C
  H58      1.0000 0.12630  0.88440  0.52000  Biso   1.000  H
  C78      1.0000 0.18870  0.73950  0.69820  Biso   1.000  C
  H59      1.0000 0.20440  0.72010  0.76720  Biso   1.000  H
  C79      1.0000 0.18700  0.67630  0.61630  Biso   1.000  C
  H60      1.0000 0.20080  0.60680  0.61720  Biso   1.000  H
  N9       1.0000 0.84220  0.16430  0.91800  Biso   1.000  N
  N10      1.0000 0.85890  0.27030  0.05630  Biso   1.000  N
  N11      1.0000 0.75480  0.56060  0.02360  Biso   1.000  N
  N12      1.0000 0.71110  0.51600  0.86520  Biso   1.000  N
  N13      1.0000 0.28350  0.46610  0.73010  Biso   1.000  N
  N14      1.0000 0.23720  0.38910  0.58660  Biso   1.000  N
  N15      1.0000 0.15950  0.73980  0.53000  Biso   1.000  N
  N16      1.0000 0.16400  0.83610  0.66390  Biso   1.000  N
  O11      1.0000 0.80328  0.38490  0.16560  Biso   1.000  O
  O12      1.0000 0.60197  0.55510  0.66930  Biso   1.000  O
  O13      1.0000 0.66058  0.60430  0.61250  Biso   1.000  O
  O14      1.0000 0.60110  0.51510  0.39660  Biso   1.000  O
  O15      1.0000 0.62990  0.65630  0.33450  Biso   1.000  O
  O16      1.0000 0.38860  0.57650  0.41330  Biso   1.000  O
  O17      1.0000 0.33540  0.58370  0.49050  Biso   1.000  O
  O18      1.0000 0.32482  0.70500  0.67930  Biso   1.000  O
  O19      1.0000 0.38150  0.57780  0.73820  Biso   1.000  O
  O20      1.0000 0.18870  0.54560  0.43700  Biso   1.000  O
  F7       1.0000 0.51253  0.07990  0.65690  Biso   1.000  F
  F8       1.0000 0.55492  0.93570  0.71430  Biso   1.000  F
  F9       1.0000 0.56550  0.03530  0.59700  Biso   1.000  F
  F10      1.0000 0.48848  0.07580  0.43100  Biso   1.000  F
  F11      1.0000 0.43130  0.05360  0.49440  Biso   1.000  F
  F12      1.0000 0.43458  0.94540  0.37580  Biso   1.000  F
  C80      1.0000 0.16620  0.72680  0.41670  Biso   1.000  C
  Zn5      1.0000 0.15151  0.04745  0.25428  Biso   1.000  Zn
  Zn6      1.0000 0.84438  0.96257  0.32833  Biso   1.000  Zn
  C81      1.0000 0.36480  0.32970  0.51950  Biso   1.000  C
  H61      1.0000 0.38250  0.38760  0.56030  Biso   1.000  H
  C82      1.0000 0.31970  0.23720  0.39230  Biso   1.000  C
  H62      1.0000 0.29970  0.21810  0.32540  Biso   1.000  H
  C83      1.0000 0.32960  0.16910  0.47440  Biso   1.000  C
  H63      1.0000 0.31870  0.09670  0.47510  Biso   1.000  H
  C84      1.0000 0.37940  0.19490  0.66580  Biso   1.000  C
  H64      1.0000 0.40460  0.24690  0.70420  Biso   1.000  H
  H65      1.0000 0.39440  0.12250  0.67020  Biso   1.000  H
  C85      1.0000 0.34270  0.18930  0.71350  Biso   1.000  C
  H66      1.0000 0.32960  0.26320  0.71310  Biso   1.000  H
  H67      1.0000 0.35870  0.16730  0.78510  Biso   1.000  H
  C86      1.0000 0.31550  0.00480  0.68750  Biso   1.000  C
  H68      1.0000 0.34080  0.98410  0.66180  Biso   1.000  H
  H69      1.0000 0.32790  0.99320  0.76160  Biso   1.000  H
  C87      1.0000 0.27140  0.93530  0.63730  Biso   1.000  C
  H70      1.0000 0.24540  0.96110  0.65880  Biso   1.000  H
  H71      1.0000 0.27860  0.85900  0.66020  Biso   1.000  H
  C88      1.0000 0.21880  0.00140  0.46280  Biso   1.000  C
  H72      1.0000 0.20110  0.05120  0.48640  Biso   1.000  H
  C89      1.0000 0.24610  0.90850  0.36340  Biso   1.000  C
  H73      1.0000 0.25030  0.88230  0.30430  Biso   1.000  H
  C90      1.0000 0.27370  0.87850  0.46330  Biso   1.000  C
  H74      1.0000 0.29930  0.82830  0.48520  Biso   1.000  H
  C91      1.0000 0.11730  0.88940  0.10760  Biso   1.000  C
  C92      1.0000 0.08380  0.80820  0.03410  Biso   1.000  C
  C93      1.0000 0.05450  0.74150  0.06500  Biso   1.000  C
  H75      1.0000 0.05300  0.75260  0.13000  Biso   1.000  H
  C94      1.0000 0.02600  0.65580  0.00150  Biso   1.000  C
  C95      1.0000 0.02900  0.64260  0.90440  Biso   1.000  C
  H76      1.0000 0.01250  0.58450  0.86190  Biso   1.000  H
  C96      1.0000 0.05650  0.71510  0.87070  Biso   1.000  C
  H77      1.0000 0.05730  0.70610  0.80490  Biso   1.000  H
  C97      1.0000 0.08280  0.80080  0.93280  Biso   1.000  C
  C98      1.0000 0.10760  0.88780  0.88600  Biso   1.000  C
  C99      1.0000 0.99650  0.58070  0.04470  Biso   1.000  C
  C100     1.0000 0.96230  0.64940  0.08390  Biso   1.000  C
  C101     1.0000 0.95510  0.62210  0.17500  Biso   1.000  C
  H78      1.0000 0.97190  0.56310  0.21570  Biso   1.000  H
  C102     1.0000 0.92240  0.68500  0.20370  Biso   1.000  C
  H79      1.0000 0.91750  0.66750  0.26430  Biso   1.000  H
  C103     1.0000 0.89710  0.77230  0.14430  Biso   1.000  C
  C104     1.0000 0.90350  0.79650  0.05410  Biso   1.000  C
  C105     1.0000 0.93770  0.73670  0.02430  Biso   1.000  C
  H80      1.0000 0.94340  0.75660  0.96510  Biso   1.000  H
  C106     1.0000 0.86460  0.83330  0.18680  Biso   1.000  C
  C107     1.0000 0.87240  0.88570  0.98040  Biso   1.000  C
  C108     1.0000 0.96310  0.50110  0.95990  Biso   1.000  C
  C109     1.0000 0.03270  0.50650  0.12820  Biso   1.000  C
  C110     1.0000 0.77480  0.03960  0.13050  Biso   1.000  C
  H81      1.0000 0.79150  0.00130  0.09580  Biso   1.000  H
  C111     1.0000 0.75250  0.10570  0.24900  Biso   1.000  C
  H82      1.0000 0.75090  0.11880  0.31360  Biso   1.000  H
  C112     1.0000 0.72490  0.15400  0.16330  Biso   1.000  C
  H83      1.0000 0.70140  0.20780  0.15650  Biso   1.000  H
  C113     1.0000 0.71570  0.13390  0.97220  Biso   1.000  C
  H84      1.0000 0.70610  0.21120  0.96050  Biso   1.000  H
  H85      1.0000 0.74000  0.11990  0.94180  Biso   1.000  H
  C114     1.0000 0.67160  0.05980  0.92110  Biso   1.000  C
  H86      1.0000 0.65690  0.07560  0.84770  Biso   1.000  H
  H87      1.0000 0.64740  0.07130  0.95210  Biso   1.000  H
  C115     1.0000 0.65480  0.87210  0.88340  Biso   1.000  C
  C116     1.0000 0.61910  0.81120  0.92080  Biso   1.000  C
  C117     1.0000 0.64610  0.66960  0.06290  Biso   1.000  C
  H88      1.0000 0.62630  0.61560  0.02000  Biso   1.000  H
  C118     1.0000 0.68870  0.76050  0.19820  Biso   1.000  C
  H89      1.0000 0.70440  0.77990  0.26720  Biso   1.000  H
  C119     1.0000 0.68700  0.82370  0.11630  Biso   1.000  C
  H90      1.0000 0.70080  0.89320  0.11720  Biso   1.000  H
  N17      1.0000 0.34220  0.33570  0.41800  Biso   1.000  N
  N18      1.0000 0.35890  0.22970  0.55630  Biso   1.000  N
  N19      1.0000 0.25480  0.93940  0.52360  Biso   1.000  N
  N20      1.0000 0.21110  0.98400  0.36520  Biso   1.000  N
  N21      1.0000 0.78350  0.03390  0.23010  Biso   1.000  N
  N22      1.0000 0.73720  0.11090  0.08660  Biso   1.000  N
  N23      1.0000 0.65950  0.76020  0.03000  Biso   1.000  N
  N24      1.0000 0.66400  0.66390  0.16390  Biso   1.000  N
  O21      1.0000 0.30328  0.11510  0.66560  Biso   1.000  O
  O22      1.0000 0.10197  0.94490  0.16930  Biso   1.000  O
  O23      1.0000 0.16058  0.89570  0.11250  Biso   1.000  O
  O24      1.0000 0.10110  0.98490  0.89660  Biso   1.000  O
  O25      1.0000 0.12990  0.84370  0.83450  Biso   1.000  O
  O26      1.0000 0.88860  0.92350  0.91330  Biso   1.000  O
  O27      1.0000 0.83540  0.91630  0.99050  Biso   1.000  O
  O28      1.0000 0.82482  0.79500  0.17930  Biso   1.000  O
  O29      1.0000 0.88150  0.92220  0.23820  Biso   1.000  O
  O30      1.0000 0.68870  0.95440  0.93700  Biso   1.000  O
  F13      1.0000 0.01253  0.42010  0.15690  Biso   1.000  F
  F14      1.0000 0.05492  0.56430  0.21430  Biso   1.000  F
  F15      1.0000 0.06550  0.46470  0.09700  Biso   1.000  F
  F16      1.0000 0.98848  0.42420  0.93100  Biso   1.000  F
  F17      1.0000 0.93130  0.44640  0.99440  Biso   1.000  F
  F18      1.0000 0.93458  0.55460  0.87580  Biso   1.000  F
  C120     1.0000 0.66620  0.77320  0.91670  Biso   1.000  C
  Zn7      1.0000 0.65151  0.54745  0.25428  Biso   1.000  Zn
  Zn8      1.0000 0.34438  0.46257  0.32833  Biso   1.000  Zn
  C121     1.0000 0.86480  0.82970  0.51950  Biso   1.000  C
  H91      1.0000 0.88250  0.88760  0.56030  Biso   1.000  H
  C122     1.0000 0.81970  0.73720  0.39230  Biso   1.000  C
  H92      1.0000 0.79970  0.71810  0.32540  Biso   1.000  H
  C123     1.0000 0.82960  0.66910  0.47440  Biso   1.000  C
  H93      1.0000 0.81870  0.59670  0.47510  Biso   1.000  H
  C124     1.0000 0.87940  0.69490  0.66580  Biso   1.000  C
  H94      1.0000 0.90460  0.74690  0.70420  Biso   1.000  H
  H95      1.0000 0.89440  0.62250  0.67020  Biso   1.000  H
  C125     1.0000 0.84270  0.68930  0.71350  Biso   1.000  C
  H96      1.0000 0.82960  0.76320  0.71310  Biso   1.000  H
  H97      1.0000 0.85870  0.66730  0.78510  Biso   1.000  H
  C126     1.0000 0.81550  0.50480  0.68750  Biso   1.000  C
  H98      1.0000 0.84080  0.48410  0.66180  Biso   1.000  H
  H99      1.0000 0.82790  0.49320  0.76160  Biso   1.000  H
  C127     1.0000 0.77140  0.43530  0.63730  Biso   1.000  C
  H100     1.0000 0.74540  0.46110  0.65880  Biso   1.000  H
  H101     1.0000 0.77860  0.35900  0.66020  Biso   1.000  H
  C128     1.0000 0.71880  0.50140  0.46280  Biso   1.000  C
  H102     1.0000 0.70110  0.55120  0.48640  Biso   1.000  H
  C129     1.0000 0.74610  0.40850  0.36340  Biso   1.000  C
  H103     1.0000 0.75030  0.38230  0.30430  Biso   1.000  H
  C130     1.0000 0.77370  0.37850  0.46330  Biso   1.000  C
  H104     1.0000 0.79930  0.32830  0.48520  Biso   1.000  H
  C131     1.0000 0.61730  0.38940  0.10760  Biso   1.000  C
  C132     1.0000 0.58380  0.30820  0.03410  Biso   1.000  C
  C133     1.0000 0.55450  0.24150  0.06500  Biso   1.000  C
  H105     1.0000 0.55300  0.25260  0.13000  Biso   1.000  H
  C134     1.0000 0.52600  0.15580  0.00150  Biso   1.000  C
  C135     1.0000 0.52900  0.14260  0.90440  Biso   1.000  C
  H106     1.0000 0.51250  0.08450  0.86190  Biso   1.000  H
  C136     1.0000 0.55650  0.21510  0.87070  Biso   1.000  C
  H107     1.0000 0.55730  0.20610  0.80490  Biso   1.000  H
  C137     1.0000 0.58280  0.30080  0.93280  Biso   1.000  C
  C138     1.0000 0.60760  0.38780  0.88600  Biso   1.000  C
  C139     1.0000 0.49650  0.08070  0.04470  Biso   1.000  C
  C140     1.0000 0.46230  0.14940  0.08390  Biso   1.000  C
  C141     1.0000 0.45510  0.12210  0.17500  Biso   1.000  C
  H108     1.0000 0.47190  0.06310  0.21570  Biso   1.000  H
  C142     1.0000 0.42240  0.18500  0.20370  Biso   1.000  C
  H109     1.0000 0.41750  0.16750  0.26430  Biso   1.000  H
  C143     1.0000 0.39710  0.27230  0.14430  Biso   1.000  C
  C144     1.0000 0.40350  0.29650  0.05410  Biso   1.000  C
  C145     1.0000 0.43770  0.23670  0.02430  Biso   1.000  C
  H110     1.0000 0.44340  0.25660  0.96510  Biso   1.000  H
  C146     1.0000 0.36460  0.33330  0.18680  Biso   1.000  C
  C147     1.0000 0.37240  0.38570  0.98040  Biso   1.000  C
  C148     1.0000 0.46310  0.00110  0.95990  Biso   1.000  C
  C149     1.0000 0.53270  0.00650  0.12820  Biso   1.000  C
  C150     1.0000 0.27480  0.53960  0.13050  Biso   1.000  C
  H111     1.0000 0.29150  0.50130  0.09580  Biso   1.000  H
  C151     1.0000 0.25250  0.60570  0.24900  Biso   1.000  C
  H112     1.0000 0.25090  0.61880  0.31360  Biso   1.000  H
  C152     1.0000 0.22490  0.65400  0.16330  Biso   1.000  C
  H113     1.0000 0.20140  0.70780  0.15650  Biso   1.000  H
  C153     1.0000 0.21570  0.63390  0.97220  Biso   1.000  C
  H114     1.0000 0.20610  0.71120  0.96050  Biso   1.000  H
  H115     1.0000 0.24000  0.61990  0.94180  Biso   1.000  H
  C154     1.0000 0.17160  0.55980  0.92110  Biso   1.000  C
  H116     1.0000 0.15690  0.57560  0.84770  Biso   1.000  H
  H117     1.0000 0.14740  0.57130  0.95210  Biso   1.000  H
  C155     1.0000 0.15480  0.37210  0.88340  Biso   1.000  C
  C156     1.0000 0.11910  0.31120  0.92080  Biso   1.000  C
  C157     1.0000 0.14610  0.16960  0.06290  Biso   1.000  C
  H118     1.0000 0.12630  0.11560  0.02000  Biso   1.000  H
  C158     1.0000 0.18870  0.26050  0.19820  Biso   1.000  C
  H119     1.0000 0.20440  0.27990  0.26720  Biso   1.000  H
  C159     1.0000 0.18700  0.32370  0.11630  Biso   1.000  C
  H120     1.0000 0.20080  0.39320  0.11720  Biso   1.000  H
  N25      1.0000 0.84220  0.83570  0.41800  Biso   1.000  N
  N26      1.0000 0.85890  0.72970  0.55630  Biso   1.000  N
  N27      1.0000 0.75480  0.43940  0.52360  Biso   1.000  N
  N28      1.0000 0.71110  0.48400  0.36520  Biso   1.000  N
  N29      1.0000 0.28350  0.53390  0.23010  Biso   1.000  N
  N30      1.0000 0.23720  0.61090  0.08660  Biso   1.000  N
  N31      1.0000 0.15950  0.26020  0.03000  Biso   1.000  N
  N32      1.0000 0.16400  0.16390  0.16390  Biso   1.000  N
  O31      1.0000 0.80328  0.61510  0.66560  Biso   1.000  O
  O32      1.0000 0.60197  0.44490  0.16930  Biso   1.000  O
  O33      1.0000 0.66058  0.39570  0.11250  Biso   1.000  O
  O34      1.0000 0.60110  0.48490  0.89660  Biso   1.000  O
  O35      1.0000 0.62990  0.34370  0.83450  Biso   1.000  O
  O36      1.0000 0.38860  0.42350  0.91330  Biso   1.000  O
  O37      1.0000 0.33540  0.41630  0.99050  Biso   1.000  O
  O38      1.0000 0.32482  0.29500  0.17930  Biso   1.000  O
  O39      1.0000 0.38150  0.42220  0.23820  Biso   1.000  O
  O40      1.0000 0.18870  0.45440  0.93700  Biso   1.000  O
  F19      1.0000 0.51253  0.92010  0.15690  Biso   1.000  F
  F20      1.0000 0.55492  0.06430  0.21430  Biso   1.000  F
  F21      1.0000 0.56550  0.96470  0.09700  Biso   1.000  F
  F22      1.0000 0.48848  0.92420  0.93100  Biso   1.000  F
  F23      1.0000 0.43130  0.94640  0.99440  Biso   1.000  F
  F24      1.0000 0.43458  0.05460  0.87580  Biso   1.000  F
  C160     1.0000 0.16620  0.27320  0.91670  Biso   1.000  C
