data_QUGBUQ_clean
_audit_creation_date              2014-07-02
_audit_creation_method            'Materials Studio'
_symmetry_space_group_name_H-M    'P1'
_symmetry_Int_Tables_number       1
_symmetry_cell_setting            triclinic
loop_
_symmetry_equiv_pos_as_xyz
  x,y,z
_cell_length_a                    8.7726
_cell_length_b                    12.1820
_cell_length_c                    21.9007
_cell_angle_alpha                 92.1750
_cell_angle_beta                  101.5530
_cell_angle_gamma                 90.0000
loop_
_atom_site_label
_atom_site_type_symbol
_atom_site_fract_x
_atom_site_fract_y
_atom_site_fract_z
_atom_site_U_iso_or_equiv
_atom_site_adp_type
_atom_site_occupancy
Ag1    Ag    0.56375   0.43103   0.82594   0.01267  Uiso   1.00
Ag2    Ag    0.73781   0.06897   0.17406   0.01267  Uiso   1.00
Ag3    Ag    0.43625   0.56897   0.17406   0.01267  Uiso   1.00
Ag4    Ag    0.26219   0.93103   0.82594   0.01267  Uiso   1.00
H1     H     0.49500   0.14700   0.80260   0.01267  Uiso   1.00
H2     H     0.18420   0.15830   0.90500   0.01267  Uiso   1.00
H3     H     0.22960   0.43020   0.87520   0.01267  Uiso   1.00
H4     H     0.17980   0.36620   0.92880   0.01267  Uiso   1.00
H5     H     0.55700   0.32810   0.96340   0.01267  Uiso   1.00
H6     H     0.26060   0.57230   0.96260   0.01267  Uiso   1.00
H7     H     0.69240   0.35300   0.19740   0.01267  Uiso   1.00
H8     H     0.27920   0.34170   0.09500   0.01267  Uiso   1.00
H9     H     0.35440   0.06980   0.12480   0.01267  Uiso   1.00
H10    H     0.25100   0.13380   0.07120   0.01267  Uiso   1.00
H11    H     0.59360   0.17190   0.03660   0.01267  Uiso   1.00
H12    H     0.29800   0.92770   0.03740   0.01267  Uiso   1.00
H13    H     0.50500   0.85300   0.19740   0.01267  Uiso   1.00
H14    H     0.81580   0.84170   0.09500   0.01267  Uiso   1.00
H15    H     0.77040   0.56980   0.12480   0.01267  Uiso   1.00
H16    H     0.82020   0.63380   0.07120   0.01267  Uiso   1.00
H17    H     0.44300   0.67190   0.03660   0.01267  Uiso   1.00
H18    H     0.73940   0.42770   0.03740   0.01267  Uiso   1.00
H19    H     0.30760   0.64700   0.80260   0.01267  Uiso   1.00
H20    H     0.72080   0.65830   0.90500   0.01267  Uiso   1.00
H21    H     0.64560   0.93020   0.87520   0.01267  Uiso   1.00
H22    H     0.74900   0.86620   0.92880   0.01267  Uiso   1.00
H23    H     0.40640   0.82810   0.96340   0.01267  Uiso   1.00
H24    H     0.70200   0.07230   0.96260   0.01267  Uiso   1.00
C1     C     0.42845   0.17320   0.82790   0.01267  Uiso   1.00
C2     C     0.26038   0.17750   0.88316   0.01267  Uiso   1.00
C3     C     0.26660   0.38160   0.90900   0.01267  Uiso   1.00
C4     C     0.39086   0.44030   0.95572   0.01267  Uiso   1.00
C5     C     0.53202   0.39730   0.97764   0.01267  Uiso   1.00
C6     C     0.35767   0.54200   0.97754   0.01267  Uiso   1.00
C7     C     0.60055   0.32680   0.17210   0.01267  Uiso   1.00
C8     C     0.37722   0.32250   0.11684   0.01267  Uiso   1.00
C9     C     0.35760   0.11840   0.09100   0.01267  Uiso   1.00
C10    C     0.43514   0.05970   0.04428   0.01267  Uiso   1.00
C11    C     0.55438   0.10270   0.02236   0.01267  Uiso   1.00
C12    C     0.38013   0.95800   0.02246   0.01267  Uiso   1.00
C13    C     0.57155   0.82680   0.17210   0.01267  Uiso   1.00
C14    C     0.73962   0.82250   0.11684   0.01267  Uiso   1.00
C15    C     0.73340   0.61840   0.09100   0.01267  Uiso   1.00
C16    C     0.60914   0.55970   0.04428   0.01267  Uiso   1.00
C17    C     0.46798   0.60270   0.02236   0.01267  Uiso   1.00
C18    C     0.64233   0.45800   0.02246   0.01267  Uiso   1.00
C19    C     0.39945   0.67320   0.82790   0.01267  Uiso   1.00
C20    C     0.62278   0.67750   0.88316   0.01267  Uiso   1.00
C21    C     0.64240   0.88160   0.90900   0.01267  Uiso   1.00
C22    C     0.56486   0.94030   0.95572   0.01267  Uiso   1.00
C23    C     0.44562   0.89730   0.97764   0.01267  Uiso   1.00
C24    C     0.61987   0.04200   0.97754   0.01267  Uiso   1.00
N1     N     0.42379   0.27700   0.84638   0.01267  Uiso   1.00
N2     N     0.32626   0.10810   0.84932   0.01267  Uiso   1.00
N3     N     0.31581   0.27790   0.88242   0.01267  Uiso   1.00
N4     N     0.57741   0.22300   0.15362   0.01267  Uiso   1.00
N5     N     0.47694   0.39190   0.15068   0.01267  Uiso   1.00
N6     N     0.43339   0.22210   0.11758   0.01267  Uiso   1.00
N7     N     0.57621   0.72300   0.15362   0.01267  Uiso   1.00
N8     N     0.67374   0.89190   0.15068   0.01267  Uiso   1.00
N9     N     0.68419   0.72210   0.11758   0.01267  Uiso   1.00
N10    N     0.42259   0.77700   0.84638   0.01267  Uiso   1.00
N11    N     0.52306   0.60810   0.84932   0.01267  Uiso   1.00
N12    N     0.56661   0.77790   0.88242   0.01267  Uiso   1.00
Ag5    Ag    0.03877   0.96311   0.67216   0.01267  Uiso   1.00
Ag6    Ag    0.96123   0.03689   0.32784   0.01267  Uiso   1.00
H25    H     0.94130   0.73040   0.58420   0.01267  Uiso   1.00
H26    H     0.66060   0.97220   0.59380   0.01267  Uiso   1.00
H27    H     0.80720   0.64670   0.47720   0.01267  Uiso   1.00
H28    H     0.66240   0.71070   0.44240   0.01267  Uiso   1.00
H29    H     0.50970   0.65940   0.56080   0.01267  Uiso   1.00
H30    H     0.65690   0.48220   0.42700   0.01267  Uiso   1.00
H31    H     0.24720   0.17290   0.67180   0.01267  Uiso   1.00
H32    H     0.86940   0.14870   0.73880   0.01267  Uiso   1.00
H33    H     0.09080   0.43530   0.75280   0.01267  Uiso   1.00
H34    H     0.05870   0.26960   0.41580   0.01267  Uiso   1.00
H35    H     0.33940   0.02780   0.40620   0.01267  Uiso   1.00
H36    H     0.19280   0.35330   0.52280   0.01267  Uiso   1.00
H37    H     0.33760   0.28930   0.55760   0.01267  Uiso   1.00
H38    H     0.49030   0.34060   0.43920   0.01267  Uiso   1.00
H39    H     0.34310   0.51780   0.57300   0.01267  Uiso   1.00
H40    H     0.75280   0.82710   0.32820   0.01267  Uiso   1.00
H41    H     0.13060   0.85130   0.26120   0.01267  Uiso   1.00
H42    H     0.90920   0.56470   0.24720   0.01267  Uiso   1.00
C25    C     0.85703   0.77780   0.57646   0.01267  Uiso   1.00
C26    C     0.70295   0.90770   0.58070   0.01267  Uiso   1.00
C27    C     0.70785   0.67760   0.48150   0.01267  Uiso   1.00
C28    C     0.60122   0.58510   0.49284   0.01267  Uiso   1.00
C29    C     0.50634   0.59520   0.53628   0.01267  Uiso   1.00
C30    C     0.59427   0.48990   0.45654   0.01267  Uiso   1.00
C31    C     0.32980   0.37950   0.69940   0.01267  Uiso   1.00
C32    C     0.19213   0.31540   0.71066   0.01267  Uiso   1.00
C33    C     0.17375   0.20520   0.69190   0.01267  Uiso   1.00
C34    C     0.95142   0.19120   0.73144   0.01267  Uiso   1.00
C35    C     0.95985   0.29980   0.75210   0.01267  Uiso   1.00
C36    C     0.08250   0.36130   0.74040   0.01267  Uiso   1.00
C37    C     0.83870   0.34800   0.78540   0.01267  Uiso   1.00
C38    C     0.14297   0.22220   0.42354   0.01267  Uiso   1.00
C39    C     0.29705   0.09230   0.41930   0.01267  Uiso   1.00
C40    C     0.29215   0.32240   0.51850   0.01267  Uiso   1.00
C41    C     0.39878   0.41490   0.50716   0.01267  Uiso   1.00
C42    C     0.49366   0.40480   0.46372   0.01267  Uiso   1.00
C43    C     0.40573   0.51010   0.54346   0.01267  Uiso   1.00
C44    C     0.67020   0.62050   0.30060   0.01267  Uiso   1.00
C45    C     0.80787   0.68460   0.28934   0.01267  Uiso   1.00
C46    C     0.82625   0.79480   0.30810   0.01267  Uiso   1.00
C47    C     0.04858   0.80880   0.26856   0.01267  Uiso   1.00
C48    C     0.04015   0.70020   0.24790   0.01267  Uiso   1.00
C49    C     0.91750   0.63870   0.25960   0.01267  Uiso   1.00
C50    C     0.16130   0.65200   0.21460   0.01267  Uiso   1.00
N13    N     0.84320   0.86860   0.60960   0.01267  Uiso   1.00
N14    N     0.63195   0.84630   0.53230   0.01267  Uiso   1.00
N15    N     0.73497   0.76340   0.53094   0.01267  Uiso   1.00
N16    N     0.05467   0.14310   0.70134   0.01267  Uiso   1.00
N17    N     0.15680   0.13140   0.39040   0.01267  Uiso   1.00
N18    N     0.36805   0.15370   0.46770   0.01267  Uiso   1.00
N19    N     0.26503   0.23660   0.46906   0.01267  Uiso   1.00
N20    N     0.94533   0.85690   0.29866   0.01267  Uiso   1.00
O1     O     0.33894   0.47870   0.71508   0.01267  Uiso   1.00
O2     O     0.43125   0.32970   0.67650   0.01267  Uiso   1.00
O3     O     0.82660   0.44730   0.79000   0.01267  Uiso   1.00
O4     O     0.75350   0.28650   0.80460   0.01267  Uiso   1.00
O5     O     0.66106   0.52130   0.28492   0.01267  Uiso   1.00
O6     O     0.56875   0.67030   0.32350   0.01267  Uiso   1.00
O7     O     0.17340   0.55270   0.21000   0.01267  Uiso   1.00
O8     O     0.24650   0.71350   0.19540   0.01267  Uiso   1.00
Ag7    Ag    0.36661   0.53689   0.32784   0.01267  Uiso   1.00
Ag8    Ag    0.63339   0.46311   0.67216   0.01267  Uiso   1.00
H43    H     0.35710   0.76960   0.41580   0.01267  Uiso   1.00
H44    H     0.06680   0.52780   0.40620   0.01267  Uiso   1.00
H45    H     0.33000   0.85330   0.52280   0.01267  Uiso   1.00
H46    H     0.22000   0.78930   0.55760   0.01267  Uiso   1.00
H47    H     0.94890   0.84060   0.43920   0.01267  Uiso   1.00
H48    H     0.22990   0.01780   0.57300   0.01267  Uiso   1.00
H49    H     0.57540   0.32710   0.32820   0.01267  Uiso   1.00
H50    H     0.13060   0.35130   0.26120   0.01267  Uiso   1.00
H51    H     0.33800   0.06470   0.24720   0.01267  Uiso   1.00
H52    H     0.64290   0.23040   0.58420   0.01267  Uiso   1.00
H53    H     0.93320   0.47220   0.59380   0.01267  Uiso   1.00
H54    H     0.67000   0.14670   0.47720   0.01267  Uiso   1.00
H55    H     0.78000   0.21070   0.44240   0.01267  Uiso   1.00
H56    H     0.05110   0.15940   0.56080   0.01267  Uiso   1.00
H57    H     0.77010   0.98220   0.42700   0.01267  Uiso   1.00
H58    H     0.42460   0.67290   0.67180   0.01267  Uiso   1.00
H59    H     0.86940   0.64870   0.73880   0.01267  Uiso   1.00
H60    H     0.66200   0.93530   0.75280   0.01267  Uiso   1.00
C51    C     0.28057   0.72220   0.42354   0.01267  Uiso   1.00
C52    C     0.12225   0.59230   0.41930   0.01267  Uiso   1.00
C53    C     0.22635   0.82240   0.51850   0.01267  Uiso   1.00
C54    C     0.10838   0.91490   0.50716   0.01267  Uiso   1.00
C55    C     0.97006   0.90480   0.46372   0.01267  Uiso   1.00
C56    C     0.13773   0.01010   0.54346   0.01267  Uiso   1.00
C57    C     0.63040   0.12050   0.30060   0.01267  Uiso   1.00
C58    C     0.48147   0.18460   0.28934   0.01267  Uiso   1.00
C59    C     0.48185   0.29480   0.30810   0.01267  Uiso   1.00
C60    C     0.21998   0.30880   0.26856   0.01267  Uiso   1.00
C61    C     0.20775   0.20020   0.24790   0.01267  Uiso   1.00
C62    C     0.34210   0.13870   0.25960   0.01267  Uiso   1.00
C63    C     0.05330   0.15200   0.21460   0.01267  Uiso   1.00
C64    C     0.71943   0.27780   0.57646   0.01267  Uiso   1.00
C65    C     0.87775   0.40770   0.58070   0.01267  Uiso   1.00
C66    C     0.77365   0.17760   0.48150   0.01267  Uiso   1.00
C67    C     0.89162   0.08510   0.49284   0.01267  Uiso   1.00
C68    C     0.02994   0.09520   0.53628   0.01267  Uiso   1.00
C69    C     0.86227   0.98990   0.45654   0.01267  Uiso   1.00
C70    C     0.36960   0.87950   0.69940   0.01267  Uiso   1.00
C71    C     0.51853   0.81540   0.71066   0.01267  Uiso   1.00
C72    C     0.51815   0.70520   0.69190   0.01267  Uiso   1.00
C73    C     0.78002   0.69120   0.73144   0.01267  Uiso   1.00
C74    C     0.79225   0.79980   0.75210   0.01267  Uiso   1.00
C75    C     0.65790   0.86130   0.74040   0.01267  Uiso   1.00
C76    C     0.94670   0.84800   0.78540   0.01267  Uiso   1.00
N21    N     0.23360   0.63140   0.39040   0.01267  Uiso   1.00
N22    N     0.09965   0.65370   0.46770   0.01267  Uiso   1.00
N23    N     0.20403   0.73660   0.46906   0.01267  Uiso   1.00
N24    N     0.35333   0.35690   0.29866   0.01267  Uiso   1.00
N25    N     0.76640   0.36860   0.60960   0.01267  Uiso   1.00
N26    N     0.90035   0.34630   0.53230   0.01267  Uiso   1.00
N27    N     0.79597   0.26340   0.53094   0.01267  Uiso   1.00
N28    N     0.64667   0.64310   0.70134   0.01267  Uiso   1.00
O9     O     0.62386   0.02130   0.28492   0.01267  Uiso   1.00
O10    O     0.75475   0.17030   0.32350   0.01267  Uiso   1.00
O11    O     0.03660   0.05270   0.21000   0.01267  Uiso   1.00
O12    O     0.94890   0.21350   0.19540   0.01267  Uiso   1.00
O13    O     0.37614   0.97870   0.71508   0.01267  Uiso   1.00
O14    O     0.24525   0.82970   0.67650   0.01267  Uiso   1.00
O15    O     0.96340   0.94730   0.79000   0.01267  Uiso   1.00
O16    O     0.05110   0.78650   0.80460   0.01267  Uiso   1.00
