data_image0
_cell_length_a       19.439
_cell_length_b       12.991
_cell_length_c       9.7163
_cell_angle_alpha    90
_cell_angle_beta     93.31
_cell_angle_gamma    90

_symmetry_space_group_name_H-M    "P 1"
_symmetry_int_tables_number       1

loop_
  _symmetry_equiv_pos_as_xyz
  'x, y, z'

loop_
  _atom_site_label
  _atom_site_occupancy
  _atom_site_fract_x
  _atom_site_fract_y
  _atom_site_fract_z
  _atom_site_thermal_displace_type
  _atom_site_B_iso_or_equiv
  _atom_site_type_symbol
  Gd1      1.0000 0.33255  0.33092  0.09794  Biso   1.000  Gd
  Gd2      1.0000 0.12294  0.64739  0.99648  Biso   1.000  Gd
  S1       1.0000 0.31044  0.59311  0.96527  Biso   1.000  S
  S2       1.0000 0.34902  0.11284  0.86784  Biso   1.000  S
  O1       1.0000 0.37310  0.16930  0.74700  Biso   1.000  O
  O2       1.0000 0.24200  0.18550  0.10790  Biso   1.000  O
  O3       1.0000 0.37170  0.17000  0.99430  Biso   1.000  O
  O4       1.0000 0.33930  0.50920  0.05230  Biso   1.000  O
  O5       1.0000 0.23460  0.58500  0.95450  Biso   1.000  O
  O6       1.0000 0.31730  0.19030  0.28170  Biso   1.000  O
  O7       1.0000 0.33990  0.58670  0.82850  Biso   1.000  O
  O8       1.0000 0.33010  0.69190  0.03310  Biso   1.000  O
  O9       1.0000 0.53790  0.18010  0.15710  Biso   1.000  O
  O10      1.0000 0.38120  0.00900  0.87160  Biso   1.000  O
  O11      1.0000 0.45120  0.31350  0.16920  Biso   1.000  O
  O12      1.0000 0.27450  0.10080  0.85540  Biso   1.000  O
  C1       1.0000 0.26730  0.14600  0.21690  Biso   1.000  C
  H1       1.0000 0.24930  0.08920  0.25630  Biso   1.000  H
  Gd3      1.0000 0.83255  0.83092  0.09794  Biso   1.000  Gd
  Gd4      1.0000 0.62294  0.14739  0.99648  Biso   1.000  Gd
  S3       1.0000 0.81044  0.09311  0.96527  Biso   1.000  S
  S4       1.0000 0.84902  0.61284  0.86784  Biso   1.000  S
  O13      1.0000 0.87310  0.66930  0.74700  Biso   1.000  O
  O14      1.0000 0.74200  0.68550  0.10790  Biso   1.000  O
  O15      1.0000 0.87170  0.67000  0.99430  Biso   1.000  O
  O16      1.0000 0.83930  0.00920  0.05230  Biso   1.000  O
  O17      1.0000 0.73460  0.08500  0.95450  Biso   1.000  O
  O18      1.0000 0.81730  0.69030  0.28170  Biso   1.000  O
  O19      1.0000 0.83990  0.08670  0.82850  Biso   1.000  O
  O20      1.0000 0.83010  0.19190  0.03310  Biso   1.000  O
  O21      1.0000 0.03790  0.68010  0.15710  Biso   1.000  O
  O22      1.0000 0.88120  0.50900  0.87160  Biso   1.000  O
  O23      1.0000 0.95120  0.81350  0.16920  Biso   1.000  O
  O24      1.0000 0.77450  0.60080  0.85540  Biso   1.000  O
  C2       1.0000 0.76730  0.64600  0.21690  Biso   1.000  C
  H2       1.0000 0.74930  0.58920  0.25630  Biso   1.000  H
  Gd5      1.0000 0.66745  0.33092  0.40206  Biso   1.000  Gd
  Gd6      1.0000 0.87706  0.64739  0.50352  Biso   1.000  Gd
  S5       1.0000 0.68956  0.59311  0.53473  Biso   1.000  S
  S6       1.0000 0.65098  0.11284  0.63216  Biso   1.000  S
  O25      1.0000 0.62690  0.16930  0.75300  Biso   1.000  O
  O26      1.0000 0.75800  0.18550  0.39210  Biso   1.000  O
  O27      1.0000 0.62830  0.17000  0.50570  Biso   1.000  O
  O28      1.0000 0.66070  0.50920  0.44770  Biso   1.000  O
  O29      1.0000 0.76540  0.58500  0.54550  Biso   1.000  O
  O30      1.0000 0.68270  0.19030  0.21830  Biso   1.000  O
  O31      1.0000 0.66010  0.58670  0.67150  Biso   1.000  O
  O32      1.0000 0.66990  0.69190  0.46690  Biso   1.000  O
  O33      1.0000 0.46210  0.18010  0.34290  Biso   1.000  O
  O34      1.0000 0.61880  0.00900  0.62840  Biso   1.000  O
  O35      1.0000 0.54880  0.31350  0.33080  Biso   1.000  O
  O36      1.0000 0.72550  0.10080  0.64460  Biso   1.000  O
  C3       1.0000 0.73270  0.14600  0.28310  Biso   1.000  C
  H3       1.0000 0.75070  0.08920  0.24370  Biso   1.000  H
  Gd7      1.0000 0.16745  0.83092  0.40206  Biso   1.000  Gd
  Gd8      1.0000 0.37706  0.14739  0.50352  Biso   1.000  Gd
  S7       1.0000 0.18956  0.09311  0.53473  Biso   1.000  S
  S8       1.0000 0.15098  0.61284  0.63216  Biso   1.000  S
  O37      1.0000 0.12690  0.66930  0.75300  Biso   1.000  O
  O38      1.0000 0.25800  0.68550  0.39210  Biso   1.000  O
  O39      1.0000 0.12830  0.67000  0.50570  Biso   1.000  O
  O40      1.0000 0.16070  0.00920  0.44770  Biso   1.000  O
  O41      1.0000 0.26540  0.08500  0.54550  Biso   1.000  O
  O42      1.0000 0.18270  0.69030  0.21830  Biso   1.000  O
  O43      1.0000 0.16010  0.08670  0.67150  Biso   1.000  O
  O44      1.0000 0.16990  0.19190  0.46690  Biso   1.000  O
  O45      1.0000 0.96210  0.68010  0.34290  Biso   1.000  O
  O46      1.0000 0.11880  0.50900  0.62840  Biso   1.000  O
  O47      1.0000 0.04880  0.81350  0.33080  Biso   1.000  O
  O48      1.0000 0.22550  0.60080  0.64460  Biso   1.000  O
  C4       1.0000 0.23270  0.64600  0.28310  Biso   1.000  C
  H4       1.0000 0.25070  0.58920  0.24370  Biso   1.000  H
  Gd9      1.0000 0.66745  0.66908  0.90206  Biso   1.000  Gd
  Gd10     1.0000 0.87706  0.35261  0.00352  Biso   1.000  Gd
  S9       1.0000 0.68956  0.40689  0.03473  Biso   1.000  S
  S10      1.0000 0.65098  0.88716  0.13216  Biso   1.000  S
  O49      1.0000 0.62690  0.83070  0.25300  Biso   1.000  O
  O50      1.0000 0.75800  0.81450  0.89210  Biso   1.000  O
  O51      1.0000 0.62830  0.83000  0.00570  Biso   1.000  O
  O52      1.0000 0.66070  0.49080  0.94770  Biso   1.000  O
  O53      1.0000 0.76540  0.41500  0.04550  Biso   1.000  O
  O54      1.0000 0.68270  0.80970  0.71830  Biso   1.000  O
  O55      1.0000 0.66010  0.41330  0.17150  Biso   1.000  O
  O56      1.0000 0.66990  0.30810  0.96690  Biso   1.000  O
  O57      1.0000 0.46210  0.81990  0.84290  Biso   1.000  O
  O58      1.0000 0.61880  0.99100  0.12840  Biso   1.000  O
  O59      1.0000 0.54880  0.68650  0.83080  Biso   1.000  O
  O60      1.0000 0.72550  0.89920  0.14460  Biso   1.000  O
  C5       1.0000 0.73270  0.85400  0.78310  Biso   1.000  C
  H5       1.0000 0.75070  0.91080  0.74370  Biso   1.000  H
  Gd11     1.0000 0.16745  0.16908  0.90206  Biso   1.000  Gd
  Gd12     1.0000 0.37706  0.85261  0.00352  Biso   1.000  Gd
  S11      1.0000 0.18956  0.90689  0.03473  Biso   1.000  S
  S12      1.0000 0.15098  0.38716  0.13216  Biso   1.000  S
  O61      1.0000 0.12690  0.33070  0.25300  Biso   1.000  O
  O62      1.0000 0.25800  0.31450  0.89210  Biso   1.000  O
  O63      1.0000 0.12830  0.33000  0.00570  Biso   1.000  O
  O64      1.0000 0.16070  0.99080  0.94770  Biso   1.000  O
  O65      1.0000 0.26540  0.91500  0.04550  Biso   1.000  O
  O66      1.0000 0.18270  0.30970  0.71830  Biso   1.000  O
  O67      1.0000 0.16010  0.91330  0.17150  Biso   1.000  O
  O68      1.0000 0.16990  0.80810  0.96690  Biso   1.000  O
  O69      1.0000 0.96210  0.31990  0.84290  Biso   1.000  O
  O70      1.0000 0.11880  0.49100  0.12840  Biso   1.000  O
  O71      1.0000 0.04880  0.18650  0.83080  Biso   1.000  O
  O72      1.0000 0.22550  0.39920  0.14460  Biso   1.000  O
  C6       1.0000 0.23270  0.35400  0.78310  Biso   1.000  C
  H6       1.0000 0.25070  0.41080  0.74370  Biso   1.000  H
  Gd13     1.0000 0.33255  0.66908  0.59794  Biso   1.000  Gd
  Gd14     1.0000 0.12294  0.35261  0.49648  Biso   1.000  Gd
  S13      1.0000 0.31044  0.40689  0.46527  Biso   1.000  S
  S14      1.0000 0.34902  0.88716  0.36784  Biso   1.000  S
  O73      1.0000 0.37310  0.83070  0.24700  Biso   1.000  O
  O74      1.0000 0.24200  0.81450  0.60790  Biso   1.000  O
  O75      1.0000 0.37170  0.83000  0.49430  Biso   1.000  O
  O76      1.0000 0.33930  0.49080  0.55230  Biso   1.000  O
  O77      1.0000 0.23460  0.41500  0.45450  Biso   1.000  O
  O78      1.0000 0.31730  0.80970  0.78170  Biso   1.000  O
  O79      1.0000 0.33990  0.41330  0.32850  Biso   1.000  O
  O80      1.0000 0.33010  0.30810  0.53310  Biso   1.000  O
  O81      1.0000 0.53790  0.81990  0.65710  Biso   1.000  O
  O82      1.0000 0.38120  0.99100  0.37160  Biso   1.000  O
  O83      1.0000 0.45120  0.68650  0.66920  Biso   1.000  O
  O84      1.0000 0.27450  0.89920  0.35540  Biso   1.000  O
  C7       1.0000 0.26730  0.85400  0.71690  Biso   1.000  C
  H7       1.0000 0.24930  0.91080  0.75630  Biso   1.000  H
  Gd15     1.0000 0.83255  0.16908  0.59794  Biso   1.000  Gd
  Gd16     1.0000 0.62294  0.85261  0.49648  Biso   1.000  Gd
  S15      1.0000 0.81044  0.90689  0.46527  Biso   1.000  S
  S16      1.0000 0.84902  0.38716  0.36784  Biso   1.000  S
  O85      1.0000 0.87310  0.33070  0.24700  Biso   1.000  O
  O86      1.0000 0.74200  0.31450  0.60790  Biso   1.000  O
  O87      1.0000 0.87170  0.33000  0.49430  Biso   1.000  O
  O88      1.0000 0.83930  0.99080  0.55230  Biso   1.000  O
  O89      1.0000 0.73460  0.91500  0.45450  Biso   1.000  O
  O90      1.0000 0.81730  0.30970  0.78170  Biso   1.000  O
  O91      1.0000 0.83990  0.91330  0.32850  Biso   1.000  O
  O92      1.0000 0.83010  0.80810  0.53310  Biso   1.000  O
  O93      1.0000 0.03790  0.31990  0.65710  Biso   1.000  O
  O94      1.0000 0.88120  0.49100  0.37160  Biso   1.000  O
  O95      1.0000 0.95120  0.18650  0.66920  Biso   1.000  O
  O96      1.0000 0.77450  0.39920  0.35540  Biso   1.000  O
  C8       1.0000 0.76730  0.35400  0.71690  Biso   1.000  C
  H8       1.0000 0.74930  0.41080  0.75630  Biso   1.000  H
  S17      1.0000 0.50000  0.24700  0.25000  Biso   1.000  S
  S18      1.0000 0.00000  0.74700  0.25000  Biso   1.000  S
  S19      1.0000 0.50000  0.75300  0.75000  Biso   1.000  S
  S20      1.0000 0.00000  0.25300  0.75000  Biso   1.000  S
