data_image0
_cell_length_a       12.7905
_cell_length_b       25.9152
_cell_length_c       10.6329
_cell_angle_alpha    90
_cell_angle_beta     92.472
_cell_angle_gamma    90

_symmetry_space_group_name_H-M    "P 1"
_symmetry_int_tables_number       1

loop_
  _symmetry_equiv_pos_as_xyz
  'x, y, z'

loop_
  _atom_site_label
  _atom_site_occupancy
  _atom_site_fract_x
  _atom_site_fract_y
  _atom_site_fract_z
  _atom_site_thermal_displace_type
  _atom_site_B_iso_or_equiv
  _atom_site_type_symbol
  Fe1      1.0000 0.81432  0.10255  0.18721  Biso   1.000  Fe
  Na1      1.0000 0.30866  0.29398  0.31686  Biso   1.000  Na
  Na2      1.0000 0.34799  0.31174  0.02611  Biso   1.000  Na
  C1       1.0000 0.60538  0.22032  0.25230  Biso   1.000  C
  Cl1      1.0000 0.64844  0.25465  0.38370  Biso   1.000  Cl
  C2       1.0000 0.51368  0.23698  0.18310  Biso   1.000  C
  O1       1.0000 0.46183  0.27583  0.20590  Biso   1.000  O
  C3       1.0000 0.47437  0.20395  0.06880  Biso   1.000  C
  O2       1.0000 0.39816  0.22084  0.00642  Biso   1.000  O
  C4       1.0000 0.52897  0.15775  0.04150  Biso   1.000  C
  Cl2      1.0000 0.48633  0.12087  0.91402  Biso   1.000  Cl
  C5       1.0000 0.62203  0.14560  0.10500  Biso   1.000  C
  O3       1.0000 0.68314  0.10870  0.07655  Biso   1.000  O
  C6       1.0000 0.65885  0.17699  0.21880  Biso   1.000  C
  O4       1.0000 0.74069  0.15923  0.27764  Biso   1.000  O
  C7       1.0000 0.04474  0.20670  0.09450  Biso   1.000  C
  Cl3      1.0000 0.01225  0.23579  0.95197  Biso   1.000  Cl
  C8       1.0000 0.98178  0.16857  0.13950  Biso   1.000  C
  O5       1.0000 0.89659  0.15190  0.08507  Biso   1.000  O
  C9       1.0000 0.01033  0.14233  0.26370  Biso   1.000  C
  O6       1.0000 0.94417  0.10876  0.29916  Biso   1.000  O
  C10      1.0000 0.10228  0.15478  0.32860  Biso   1.000  C
  Cl4      1.0000 0.13611  0.12364  0.46854  Biso   1.000  Cl
  C11      1.0000 0.16762  0.19508  0.28830  Biso   1.000  C
  O7       1.0000 0.24837  0.20978  0.34559  Biso   1.000  O
  C12      1.0000 0.13646  0.22418  0.16450  Biso   1.000  C
  O8       1.0000 0.19298  0.26010  0.13470  Biso   1.000  O
  C13      1.0000 0.28110  0.45935  0.18050  Biso   1.000  C
  Cl5      1.0000 0.35072  0.46692  0.04576  Biso   1.000  Cl
  C14      1.0000 0.23866  0.50192  0.23710  Biso   1.000  C
  O9       1.0000 0.24442  0.54828  0.19630  Biso   1.000  O
  C15      1.0000 0.18098  0.49612  0.35820  Biso   1.000  C
  O10      1.0000 0.14826  0.53871  0.40415  Biso   1.000  O
  C16      1.0000 0.16701  0.44814  0.40920  Biso   1.000  C
  Cl6      1.0000 0.09637  0.44203  0.54340  Biso   1.000  Cl
  C17      1.0000 0.20992  0.40292  0.35520  Biso   1.000  C
  O11      1.0000 0.20177  0.35901  0.39732  Biso   1.000  O
  C18      1.0000 0.27217  0.40913  0.23320  Biso   1.000  C
  O12      1.0000 0.30997  0.36947  0.18911  Biso   1.000  O
  Fe2      1.0000 0.18568  0.60255  0.31279  Biso   1.000  Fe
  Na3      1.0000 0.69134  0.79398  0.18314  Biso   1.000  Na
  Na4      1.0000 0.65201  0.81174  0.47389  Biso   1.000  Na
  C19      1.0000 0.39462  0.72032  0.24770  Biso   1.000  C
  Cl7      1.0000 0.35156  0.75465  0.11630  Biso   1.000  Cl
  C20      1.0000 0.48632  0.73698  0.31690  Biso   1.000  C
  O13      1.0000 0.53817  0.77583  0.29410  Biso   1.000  O
  C21      1.0000 0.52563  0.70395  0.43120  Biso   1.000  C
  O14      1.0000 0.60184  0.72084  0.49358  Biso   1.000  O
  C22      1.0000 0.47103  0.65775  0.45850  Biso   1.000  C
  Cl8      1.0000 0.51367  0.62087  0.58598  Biso   1.000  Cl
  C23      1.0000 0.37797  0.64560  0.39500  Biso   1.000  C
  O15      1.0000 0.31686  0.60870  0.42345  Biso   1.000  O
  C24      1.0000 0.34115  0.67699  0.28120  Biso   1.000  C
  O16      1.0000 0.25931  0.65923  0.22236  Biso   1.000  O
  C25      1.0000 0.95526  0.70670  0.40550  Biso   1.000  C
  Cl9      1.0000 0.98775  0.73579  0.54803  Biso   1.000  Cl
  C26      1.0000 0.01822  0.66857  0.36050  Biso   1.000  C
  O17      1.0000 0.10341  0.65190  0.41493  Biso   1.000  O
  C27      1.0000 0.98967  0.64233  0.23630  Biso   1.000  C
  O18      1.0000 0.05583  0.60876  0.20084  Biso   1.000  O
  C28      1.0000 0.89772  0.65478  0.17140  Biso   1.000  C
  Cl10     1.0000 0.86389  0.62364  0.03146  Biso   1.000  Cl
  C29      1.0000 0.83238  0.69508  0.21170  Biso   1.000  C
  O19      1.0000 0.75163  0.70978  0.15441  Biso   1.000  O
  C30      1.0000 0.86354  0.72418  0.33550  Biso   1.000  C
  O20      1.0000 0.80702  0.76010  0.36530  Biso   1.000  O
  C31      1.0000 0.71890  0.95935  0.31950  Biso   1.000  C
  Cl11     1.0000 0.64928  0.96692  0.45424  Biso   1.000  Cl
  C32      1.0000 0.76134  0.00192  0.26290  Biso   1.000  C
  O21      1.0000 0.75558  0.04828  0.30370  Biso   1.000  O
  C33      1.0000 0.81902  0.99612  0.14180  Biso   1.000  C
  O22      1.0000 0.85174  0.03871  0.09585  Biso   1.000  O
  C34      1.0000 0.83299  0.94814  0.09080  Biso   1.000  C
  Cl12     1.0000 0.90363  0.94203  0.95660  Biso   1.000  Cl
  C35      1.0000 0.79008  0.90292  0.14480  Biso   1.000  C
  O23      1.0000 0.79823  0.85901  0.10268  Biso   1.000  O
  C36      1.0000 0.72783  0.90913  0.26680  Biso   1.000  C
  O24      1.0000 0.69003  0.86947  0.31089  Biso   1.000  O
  Fe3      1.0000 0.18568  0.89745  0.81279  Biso   1.000  Fe
  Na5      1.0000 0.69134  0.70602  0.68314  Biso   1.000  Na
  Na6      1.0000 0.65201  0.68826  0.97389  Biso   1.000  Na
  C37      1.0000 0.39462  0.77968  0.74770  Biso   1.000  C
  Cl13     1.0000 0.35156  0.74535  0.61630  Biso   1.000  Cl
  C38      1.0000 0.48632  0.76302  0.81690  Biso   1.000  C
  O25      1.0000 0.53817  0.72417  0.79410  Biso   1.000  O
  C39      1.0000 0.52563  0.79605  0.93120  Biso   1.000  C
  O26      1.0000 0.60184  0.77916  0.99358  Biso   1.000  O
  C40      1.0000 0.47103  0.84225  0.95850  Biso   1.000  C
  Cl14     1.0000 0.51367  0.87913  0.08598  Biso   1.000  Cl
  C41      1.0000 0.37797  0.85440  0.89500  Biso   1.000  C
  O27      1.0000 0.31686  0.89130  0.92345  Biso   1.000  O
  C42      1.0000 0.34115  0.82301  0.78120  Biso   1.000  C
  O28      1.0000 0.25931  0.84077  0.72236  Biso   1.000  O
  C43      1.0000 0.95526  0.79330  0.90550  Biso   1.000  C
  Cl15     1.0000 0.98775  0.76421  0.04803  Biso   1.000  Cl
  C44      1.0000 0.01822  0.83143  0.86050  Biso   1.000  C
  O29      1.0000 0.10341  0.84810  0.91493  Biso   1.000  O
  C45      1.0000 0.98967  0.85767  0.73630  Biso   1.000  C
  O30      1.0000 0.05583  0.89124  0.70084  Biso   1.000  O
  C46      1.0000 0.89772  0.84522  0.67140  Biso   1.000  C
  Cl16     1.0000 0.86389  0.87636  0.53146  Biso   1.000  Cl
  C47      1.0000 0.83238  0.80492  0.71170  Biso   1.000  C
  O31      1.0000 0.75163  0.79022  0.65441  Biso   1.000  O
  C48      1.0000 0.86354  0.77582  0.83550  Biso   1.000  C
  O32      1.0000 0.80702  0.73990  0.86530  Biso   1.000  O
  C49      1.0000 0.71890  0.54065  0.81950  Biso   1.000  C
  Cl17     1.0000 0.64928  0.53308  0.95424  Biso   1.000  Cl
  C50      1.0000 0.76134  0.49808  0.76290  Biso   1.000  C
  O33      1.0000 0.75558  0.45172  0.80370  Biso   1.000  O
  C51      1.0000 0.81902  0.50388  0.64180  Biso   1.000  C
  O34      1.0000 0.85174  0.46129  0.59585  Biso   1.000  O
  C52      1.0000 0.83299  0.55186  0.59080  Biso   1.000  C
  Cl18     1.0000 0.90363  0.55797  0.45660  Biso   1.000  Cl
  C53      1.0000 0.79008  0.59708  0.64480  Biso   1.000  C
  O35      1.0000 0.79823  0.64099  0.60268  Biso   1.000  O
  C54      1.0000 0.72783  0.59087  0.76680  Biso   1.000  C
  O36      1.0000 0.69003  0.63053  0.81089  Biso   1.000  O
  Fe4      1.0000 0.81432  0.39745  0.68721  Biso   1.000  Fe
  Na7      1.0000 0.30866  0.20602  0.81686  Biso   1.000  Na
  Na8      1.0000 0.34799  0.18826  0.52611  Biso   1.000  Na
  C55      1.0000 0.60538  0.27968  0.75230  Biso   1.000  C
  Cl19     1.0000 0.64844  0.24535  0.88370  Biso   1.000  Cl
  C56      1.0000 0.51368  0.26302  0.68310  Biso   1.000  C
  O37      1.0000 0.46183  0.22417  0.70590  Biso   1.000  O
  C57      1.0000 0.47437  0.29605  0.56880  Biso   1.000  C
  O38      1.0000 0.39816  0.27916  0.50642  Biso   1.000  O
  C58      1.0000 0.52897  0.34225  0.54150  Biso   1.000  C
  Cl20     1.0000 0.48633  0.37913  0.41402  Biso   1.000  Cl
  C59      1.0000 0.62203  0.35440  0.60500  Biso   1.000  C
  O39      1.0000 0.68314  0.39130  0.57655  Biso   1.000  O
  C60      1.0000 0.65885  0.32301  0.71880  Biso   1.000  C
  O40      1.0000 0.74069  0.34077  0.77764  Biso   1.000  O
  C61      1.0000 0.04474  0.29330  0.59450  Biso   1.000  C
  Cl21     1.0000 0.01225  0.26421  0.45197  Biso   1.000  Cl
  C62      1.0000 0.98178  0.33143  0.63950  Biso   1.000  C
  O41      1.0000 0.89659  0.34810  0.58507  Biso   1.000  O
  C63      1.0000 0.01033  0.35767  0.76370  Biso   1.000  C
  O42      1.0000 0.94417  0.39124  0.79916  Biso   1.000  O
  C64      1.0000 0.10228  0.34522  0.82860  Biso   1.000  C
  Cl22     1.0000 0.13611  0.37636  0.96854  Biso   1.000  Cl
  C65      1.0000 0.16762  0.30492  0.78830  Biso   1.000  C
  O43      1.0000 0.24837  0.29022  0.84559  Biso   1.000  O
  C66      1.0000 0.13646  0.27582  0.66450  Biso   1.000  C
  O44      1.0000 0.19298  0.23990  0.63470  Biso   1.000  O
  C67      1.0000 0.28110  0.04065  0.68050  Biso   1.000  C
  Cl23     1.0000 0.35072  0.03308  0.54576  Biso   1.000  Cl
  C68      1.0000 0.23866  0.99808  0.73710  Biso   1.000  C
  O45      1.0000 0.24442  0.95172  0.69630  Biso   1.000  O
  C69      1.0000 0.18098  0.00388  0.85820  Biso   1.000  C
  O46      1.0000 0.14826  0.96129  0.90415  Biso   1.000  O
  C70      1.0000 0.16701  0.05186  0.90920  Biso   1.000  C
  Cl24     1.0000 0.09637  0.05797  0.04340  Biso   1.000  Cl
  C71      1.0000 0.20992  0.09708  0.85520  Biso   1.000  C
  O47      1.0000 0.20177  0.14099  0.89732  Biso   1.000  O
  C72      1.0000 0.27217  0.09087  0.73320  Biso   1.000  C
  O48      1.0000 0.30997  0.13053  0.68911  Biso   1.000  O
