data_image0
_cell_length_a       12.7623
_cell_length_b       8.3831
_cell_length_c       23.961
_cell_angle_alpha    90
_cell_angle_beta     104.924
_cell_angle_gamma    90

_symmetry_space_group_name_H-M    "P 1"
_symmetry_int_tables_number       1

loop_
  _symmetry_equiv_pos_as_xyz
  'x, y, z'

loop_
  _atom_site_label
  _atom_site_occupancy
  _atom_site_fract_x
  _atom_site_fract_y
  _atom_site_fract_z
  _atom_site_thermal_displace_type
  _atom_site_B_iso_or_equiv
  _atom_site_type_symbol
  La1      1.0000 0.90642  0.71699  0.12520  Biso   1.000  La
  La2      1.0000 0.09360  0.00943  0.38315  Biso   1.000  La
  C1       1.0000 0.97420  0.54520  0.26512  Biso   1.000  C
  H1       1.0000 0.03820  0.48280  0.26180  Biso   1.000  H
  H2       1.0000 0.95250  0.50680  0.29960  Biso   1.000  H
  C2       1.0000 0.00450  0.72060  0.27279  Biso   1.000  C
  C3       1.0000 0.78250  0.57120  0.22612  Biso   1.000  C
  H3       1.0000 0.79420  0.67510  0.24640  Biso   1.000  H
  H4       1.0000 0.76130  0.49250  0.25200  Biso   1.000  H
  C4       1.0000 0.69170  0.58750  0.17123  Biso   1.000  C
  C5       1.0000 0.04020  0.39860  0.08880  Biso   1.000  C
  H5       1.0000 0.02540  0.44060  0.04890  Biso   1.000  H
  H6       1.0000 0.06690  0.28770  0.08870  Biso   1.000  H
  C6       1.0000 0.12660  0.50070  0.12891  Biso   1.000  C
  C7       1.0000 0.84780  0.33350  0.06305  Biso   1.000  C
  H7       1.0000 0.79480  0.28500  0.08170  Biso   1.000  H
  H8       1.0000 0.87580  0.24770  0.04240  Biso   1.000  H
  C8       1.0000 0.78960  0.45720  0.01905  Biso   1.000  C
  C9       1.0000 0.87580  0.34860  0.19640  Biso   1.000  C
  H9       1.0000 0.80140  0.32650  0.17270  Biso   1.000  H
  H10      1.0000 0.88900  0.28150  0.23150  Biso   1.000  H
  C10      1.0000 0.95680  0.30550  0.16226  Biso   1.000  C
  H11      1.0000 0.03120  0.32550  0.18630  Biso   1.000  H
  H12      1.0000 0.95050  0.19050  0.15270  Biso   1.000  H
  N1       1.0000 0.88470  0.51940  0.21333  Biso   1.000  N
  N2       1.0000 0.93860  0.39960  0.10814  Biso   1.000  N
  N3       1.0000 0.74240  0.99090  0.11319  Biso   1.000  N
  N4       1.0000 0.05640  0.90020  0.06546  Biso   1.000  N
  O1       1.0000 0.98850  0.80700  0.22833  Biso   1.000  O
  O2       1.0000 0.04540  0.76680  0.32334  Biso   1.000  O
  O3       1.0000 0.71690  0.63190  0.12596  Biso   1.000  O
  O4       1.0000 0.59780  0.55920  0.17423  Biso   1.000  O
  O5       1.0000 0.09460  0.61100  0.15671  Biso   1.000  O
  O6       1.0000 0.22320  0.47040  0.13229  Biso   1.000  O
  O7       1.0000 0.81830  0.60110  0.02801  Biso   1.000  O
  O8       1.0000 0.71590  0.40740  0.97806  Biso   1.000  O
  O9       1.0000 0.76000  0.93270  0.06795  Biso   1.000  O
  O10      1.0000 0.80690  0.95800  0.16081  Biso   1.000  O
  O11      1.0000 0.66380  0.07890  0.11107  Biso   1.000  O
  O12      1.0000 0.03600  0.95240  0.11233  Biso   1.000  O
  O13      1.0000 0.00700  0.77630  0.04410  Biso   1.000  O
  O14      1.0000 0.12150  0.96810  0.04410  Biso   1.000  O
  O15      1.0000 0.18850  0.74960  0.43456  Biso   1.000  O
  H13      1.0000 0.20290  0.72560  0.41040  Biso   1.000  H
  H14      1.0000 0.23930  0.78080  0.46740  Biso   1.000  H
  La3      1.0000 0.59358  0.21699  0.37480  Biso   1.000  La
  La4      1.0000 0.40640  0.50943  0.11685  Biso   1.000  La
  C11      1.0000 0.52580  0.04520  0.23488  Biso   1.000  C
  H15      1.0000 0.46180  0.98280  0.23820  Biso   1.000  H
  H16      1.0000 0.54750  0.00680  0.20040  Biso   1.000  H
  C12      1.0000 0.49550  0.22060  0.22721  Biso   1.000  C
  C13      1.0000 0.71750  0.07120  0.27388  Biso   1.000  C
  H17      1.0000 0.70580  0.17510  0.25360  Biso   1.000  H
  H18      1.0000 0.73870  0.99250  0.24800  Biso   1.000  H
  C14      1.0000 0.80830  0.08750  0.32877  Biso   1.000  C
  C15      1.0000 0.45980  0.89860  0.41120  Biso   1.000  C
  H19      1.0000 0.47460  0.94060  0.45110  Biso   1.000  H
  H20      1.0000 0.43310  0.78770  0.41130  Biso   1.000  H
  C16      1.0000 0.37340  0.00070  0.37109  Biso   1.000  C
  C17      1.0000 0.65220  0.83350  0.43695  Biso   1.000  C
  H21      1.0000 0.70520  0.78500  0.41830  Biso   1.000  H
  H22      1.0000 0.62420  0.74770  0.45760  Biso   1.000  H
  C18      1.0000 0.71040  0.95720  0.48095  Biso   1.000  C
  C19      1.0000 0.62420  0.84860  0.30360  Biso   1.000  C
  H23      1.0000 0.69860  0.82650  0.32730  Biso   1.000  H
  H24      1.0000 0.61100  0.78150  0.26850  Biso   1.000  H
  C20      1.0000 0.54320  0.80550  0.33774  Biso   1.000  C
  H25      1.0000 0.46880  0.82550  0.31370  Biso   1.000  H
  H26      1.0000 0.54950  0.69050  0.34730  Biso   1.000  H
  N5       1.0000 0.61530  0.01940  0.28667  Biso   1.000  N
  N6       1.0000 0.56140  0.89960  0.39186  Biso   1.000  N
  N7       1.0000 0.75760  0.49090  0.38681  Biso   1.000  N
  N8       1.0000 0.44360  0.40020  0.43454  Biso   1.000  N
  O16      1.0000 0.51150  0.30700  0.27167  Biso   1.000  O
  O17      1.0000 0.45460  0.26680  0.17666  Biso   1.000  O
  O18      1.0000 0.78310  0.13190  0.37404  Biso   1.000  O
  O19      1.0000 0.90220  0.05920  0.32577  Biso   1.000  O
  O20      1.0000 0.40540  0.11100  0.34329  Biso   1.000  O
  O21      1.0000 0.27680  0.97040  0.36771  Biso   1.000  O
  O22      1.0000 0.68170  0.10110  0.47199  Biso   1.000  O
  O23      1.0000 0.78410  0.90740  0.52194  Biso   1.000  O
  O24      1.0000 0.74000  0.43270  0.43205  Biso   1.000  O
  O25      1.0000 0.69310  0.45800  0.33919  Biso   1.000  O
  O26      1.0000 0.83620  0.57890  0.38893  Biso   1.000  O
  O27      1.0000 0.46400  0.45240  0.38767  Biso   1.000  O
  O28      1.0000 0.49300  0.27630  0.45590  Biso   1.000  O
  O29      1.0000 0.37850  0.46810  0.45590  Biso   1.000  O
  O30      1.0000 0.31150  0.24960  0.06544  Biso   1.000  O
  H27      1.0000 0.29710  0.22560  0.08960  Biso   1.000  H
  H28      1.0000 0.26070  0.28080  0.03260  Biso   1.000  H
  La5      1.0000 0.09358  0.28301  0.87480  Biso   1.000  La
  La6      1.0000 0.90640  0.99057  0.61685  Biso   1.000  La
  C21      1.0000 0.02580  0.45480  0.73488  Biso   1.000  C
  H29      1.0000 0.96180  0.51720  0.73820  Biso   1.000  H
  H30      1.0000 0.04750  0.49320  0.70040  Biso   1.000  H
  C22      1.0000 0.99550  0.27940  0.72721  Biso   1.000  C
  C23      1.0000 0.21750  0.42880  0.77388  Biso   1.000  C
  H31      1.0000 0.20580  0.32490  0.75360  Biso   1.000  H
  H32      1.0000 0.23870  0.50750  0.74800  Biso   1.000  H
  C24      1.0000 0.30830  0.41250  0.82877  Biso   1.000  C
  C25      1.0000 0.95980  0.60140  0.91120  Biso   1.000  C
  H33      1.0000 0.97460  0.55940  0.95110  Biso   1.000  H
  H34      1.0000 0.93310  0.71230  0.91130  Biso   1.000  H
  C26      1.0000 0.87340  0.49930  0.87109  Biso   1.000  C
  C27      1.0000 0.15220  0.66650  0.93695  Biso   1.000  C
  H35      1.0000 0.20520  0.71500  0.91830  Biso   1.000  H
  H36      1.0000 0.12420  0.75230  0.95760  Biso   1.000  H
  C28      1.0000 0.21040  0.54280  0.98095  Biso   1.000  C
  C29      1.0000 0.12420  0.65140  0.80360  Biso   1.000  C
  H37      1.0000 0.19860  0.67350  0.82730  Biso   1.000  H
  H38      1.0000 0.11100  0.71850  0.76850  Biso   1.000  H
  C30      1.0000 0.04320  0.69450  0.83774  Biso   1.000  C
  H39      1.0000 0.96880  0.67450  0.81370  Biso   1.000  H
  H40      1.0000 0.04950  0.80950  0.84730  Biso   1.000  H
  N9       1.0000 0.11530  0.48060  0.78667  Biso   1.000  N
  N10      1.0000 0.06140  0.60040  0.89186  Biso   1.000  N
  N11      1.0000 0.25760  0.00910  0.88681  Biso   1.000  N
  N12      1.0000 0.94360  0.09980  0.93454  Biso   1.000  N
  O31      1.0000 0.01150  0.19300  0.77167  Biso   1.000  O
  O32      1.0000 0.95460  0.23320  0.67666  Biso   1.000  O
  O33      1.0000 0.28310  0.36810  0.87404  Biso   1.000  O
  O34      1.0000 0.40220  0.44080  0.82577  Biso   1.000  O
  O35      1.0000 0.90540  0.38900  0.84329  Biso   1.000  O
  O36      1.0000 0.77680  0.52960  0.86771  Biso   1.000  O
  O37      1.0000 0.18170  0.39890  0.97199  Biso   1.000  O
  O38      1.0000 0.28410  0.59260  0.02194  Biso   1.000  O
  O39      1.0000 0.24000  0.06730  0.93205  Biso   1.000  O
  O40      1.0000 0.19310  0.04200  0.83919  Biso   1.000  O
  O41      1.0000 0.33620  0.92110  0.88893  Biso   1.000  O
  O42      1.0000 0.96400  0.04760  0.88767  Biso   1.000  O
  O43      1.0000 0.99300  0.22370  0.95590  Biso   1.000  O
  O44      1.0000 0.87850  0.03190  0.95590  Biso   1.000  O
  O45      1.0000 0.81150  0.25040  0.56544  Biso   1.000  O
  H41      1.0000 0.79710  0.27440  0.58960  Biso   1.000  H
  H42      1.0000 0.76070  0.21920  0.53260  Biso   1.000  H
  La7      1.0000 0.40642  0.78301  0.62520  Biso   1.000  La
  La8      1.0000 0.59360  0.49057  0.88315  Biso   1.000  La
  C31      1.0000 0.47420  0.95480  0.76512  Biso   1.000  C
  H43      1.0000 0.53820  0.01720  0.76180  Biso   1.000  H
  H44      1.0000 0.45250  0.99320  0.79960  Biso   1.000  H
  C32      1.0000 0.50450  0.77940  0.77279  Biso   1.000  C
  C33      1.0000 0.28250  0.92880  0.72612  Biso   1.000  C
  H45      1.0000 0.29420  0.82490  0.74640  Biso   1.000  H
  H46      1.0000 0.26130  0.00750  0.75200  Biso   1.000  H
  C34      1.0000 0.19170  0.91250  0.67123  Biso   1.000  C
  C35      1.0000 0.54020  0.10140  0.58880  Biso   1.000  C
  H47      1.0000 0.52540  0.05940  0.54890  Biso   1.000  H
  H48      1.0000 0.56690  0.21230  0.58870  Biso   1.000  H
  C36      1.0000 0.62660  0.99930  0.62891  Biso   1.000  C
  C37      1.0000 0.34780  0.16650  0.56305  Biso   1.000  C
  H49      1.0000 0.29480  0.21500  0.58170  Biso   1.000  H
  H50      1.0000 0.37580  0.25230  0.54240  Biso   1.000  H
  C38      1.0000 0.28960  0.04280  0.51905  Biso   1.000  C
  C39      1.0000 0.37580  0.15140  0.69640  Biso   1.000  C
  H51      1.0000 0.30140  0.17350  0.67270  Biso   1.000  H
  H52      1.0000 0.38900  0.21850  0.73150  Biso   1.000  H
  C40      1.0000 0.45680  0.19450  0.66226  Biso   1.000  C
  H53      1.0000 0.53120  0.17450  0.68630  Biso   1.000  H
  H54      1.0000 0.45050  0.30950  0.65270  Biso   1.000  H
  N13      1.0000 0.38470  0.98060  0.71333  Biso   1.000  N
  N14      1.0000 0.43860  0.10040  0.60814  Biso   1.000  N
  N15      1.0000 0.24240  0.50910  0.61319  Biso   1.000  N
  N16      1.0000 0.55640  0.59980  0.56546  Biso   1.000  N
  O46      1.0000 0.48850  0.69300  0.72833  Biso   1.000  O
  O47      1.0000 0.54540  0.73320  0.82334  Biso   1.000  O
  O48      1.0000 0.21690  0.86810  0.62596  Biso   1.000  O
  O49      1.0000 0.09780  0.94080  0.67423  Biso   1.000  O
  O50      1.0000 0.59460  0.88900  0.65671  Biso   1.000  O
  O51      1.0000 0.72320  0.02960  0.63229  Biso   1.000  O
  O52      1.0000 0.31830  0.89890  0.52801  Biso   1.000  O
  O53      1.0000 0.21590  0.09260  0.47806  Biso   1.000  O
  O54      1.0000 0.26000  0.56730  0.56795  Biso   1.000  O
  O55      1.0000 0.30690  0.54200  0.66081  Biso   1.000  O
  O56      1.0000 0.16380  0.42110  0.61107  Biso   1.000  O
  O57      1.0000 0.53600  0.54760  0.61233  Biso   1.000  O
  O58      1.0000 0.50700  0.72370  0.54410  Biso   1.000  O
  O59      1.0000 0.62150  0.53190  0.54410  Biso   1.000  O
  O60      1.0000 0.68850  0.75040  0.93456  Biso   1.000  O
  H55      1.0000 0.70290  0.77440  0.91040  Biso   1.000  H
  H56      1.0000 0.73930  0.71920  0.96740  Biso   1.000  H
