data_QUKYOL_clean
_audit_creation_date              2014-07-02
_audit_creation_method            'Materials Studio'
_symmetry_space_group_name_H-M    'P1'
_symmetry_Int_Tables_number       1
_symmetry_cell_setting            triclinic
loop_
_symmetry_equiv_pos_as_xyz
  x,y,z
_cell_length_a                    8.3028
_cell_length_b                    9.4630
_cell_length_c                    20.6398
_cell_angle_alpha                 90.0000
_cell_angle_beta                  90.0000
_cell_angle_gamma                 109.8670
loop_
_atom_site_label
_atom_site_type_symbol
_atom_site_fract_x
_atom_site_fract_y
_atom_site_fract_z
_atom_site_U_iso_or_equiv
_atom_site_adp_type
_atom_site_occupancy
La1    La    0.37685   0.39893   0.64839   0.01267  Uiso   1.00
La2    La    0.62315   0.10107   0.14839   0.01267  Uiso   1.00
La3    La    0.62315   0.60107   0.35161   0.01267  Uiso   1.00
La4    La    0.37685   0.89893   0.85161   0.01267  Uiso   1.00
Cu1    Cu    0.03685   0.94895   0.70321   0.01267  Uiso   1.00
Cu2    Cu    0.96315   0.55105   0.20321   0.01267  Uiso   1.00
Cu3    Cu    0.96315   0.05105   0.29679   0.01267  Uiso   1.00
Cu4    Cu    0.03685   0.44895   0.79679   0.01267  Uiso   1.00
P1     P     0.20913   0.69441   0.69982   0.01267  Uiso   1.00
P2     P     0.79087   0.80559   0.19982   0.01267  Uiso   1.00
P3     P     0.79087   0.30559   0.30018   0.01267  Uiso   1.00
P4     P     0.20913   0.19441   0.80018   0.01267  Uiso   1.00
H1     H     0.77930   0.73920   0.59300   0.01267  Uiso   1.00
H2     H     0.86720   0.61420   0.60350   0.01267  Uiso   1.00
H3     H     0.10620   0.90110   0.53020   0.01267  Uiso   1.00
H4     H     0.94510   0.94430   0.55420   0.01267  Uiso   1.00
H5     H     0.14300   0.68040   0.59040   0.01267  Uiso   1.00
H6     H     0.27710   0.84250   0.60740   0.01267  Uiso   1.00
H7     H     0.22070   0.76080   0.09300   0.01267  Uiso   1.00
H8     H     0.13280   0.88580   0.10350   0.01267  Uiso   1.00
H9     H     0.89380   0.59890   0.03020   0.01267  Uiso   1.00
H10    H     0.05490   0.55570   0.05420   0.01267  Uiso   1.00
H11    H     0.85700   0.81960   0.09040   0.01267  Uiso   1.00
H12    H     0.72290   0.65750   0.10740   0.01267  Uiso   1.00
H13    H     0.22070   0.26080   0.40700   0.01267  Uiso   1.00
H14    H     0.13280   0.38580   0.39650   0.01267  Uiso   1.00
H15    H     0.89380   0.09890   0.46980   0.01267  Uiso   1.00
H16    H     0.05490   0.05570   0.44580   0.01267  Uiso   1.00
H17    H     0.85700   0.31960   0.40960   0.01267  Uiso   1.00
H18    H     0.72290   0.15750   0.39260   0.01267  Uiso   1.00
H19    H     0.77930   0.23920   0.90700   0.01267  Uiso   1.00
H20    H     0.86720   0.11420   0.89650   0.01267  Uiso   1.00
H21    H     0.10620   0.40110   0.96980   0.01267  Uiso   1.00
H22    H     0.94510   0.44430   0.94580   0.01267  Uiso   1.00
H23    H     0.14300   0.18040   0.90960   0.01267  Uiso   1.00
H24    H     0.27710   0.34250   0.89260   0.01267  Uiso   1.00
C1     C     0.78080   0.67750   0.68952   0.01267  Uiso   1.00
C2     C     0.85700   0.70780   0.62146   0.01267  Uiso   1.00
C3     C     0.05600   0.93630   0.56777   0.01267  Uiso   1.00
C4     C     0.17650   0.08930   0.59003   0.01267  Uiso   1.00
C5     C     0.17060   0.76370   0.62177   0.01267  Uiso   1.00
C6     C     0.56920   0.46190   0.50243   0.01267  Uiso   1.00
C7     C     0.21920   0.82250   0.18952   0.01267  Uiso   1.00
C8     C     0.14300   0.79220   0.12146   0.01267  Uiso   1.00
C9     C     0.94400   0.56370   0.06777   0.01267  Uiso   1.00
C10    C     0.82350   0.41070   0.09003   0.01267  Uiso   1.00
C11    C     0.82940   0.73630   0.12177   0.01267  Uiso   1.00
C12    C     0.43080   0.03810   0.00243   0.01267  Uiso   1.00
C13    C     0.21920   0.32250   0.31048   0.01267  Uiso   1.00
C14    C     0.14300   0.29220   0.37854   0.01267  Uiso   1.00
C15    C     0.94400   0.06370   0.43223   0.01267  Uiso   1.00
C16    C     0.82350   0.91070   0.40997   0.01267  Uiso   1.00
C17    C     0.82940   0.23630   0.37823   0.01267  Uiso   1.00
C18    C     0.43080   0.53810   0.49757   0.01267  Uiso   1.00
C19    C     0.78080   0.17750   0.81048   0.01267  Uiso   1.00
C20    C     0.85700   0.20780   0.87854   0.01267  Uiso   1.00
C21    C     0.05600   0.43630   0.93223   0.01267  Uiso   1.00
C22    C     0.17650   0.58930   0.90997   0.01267  Uiso   1.00
C23    C     0.17060   0.26370   0.87823   0.01267  Uiso   1.00
C24    C     0.56920   0.96190   0.99757   0.01267  Uiso   1.00
N1     N     0.02870   0.82730   0.62213   0.01267  Uiso   1.00
N2     N     0.97130   0.67270   0.12213   0.01267  Uiso   1.00
N3     N     0.97130   0.17270   0.37787   0.01267  Uiso   1.00
N4     N     0.02870   0.32730   0.87787   0.01267  Uiso   1.00
O1     O     0.84250   0.77830   0.73291   0.01267  Uiso   1.00
O2     O     0.65840   0.55890   0.69929   0.01267  Uiso   1.00
O3     O     0.19930   0.10880   0.65176   0.01267  Uiso   1.00
O4     O     0.24480   0.19080   0.55110   0.01267  Uiso   1.00
O5     O     0.35670   0.63630   0.69051   0.01267  Uiso   1.00
O6     O     0.04350   0.56490   0.71906   0.01267  Uiso   1.00
O7     O     0.24840   0.83030   0.74420   0.01267  Uiso   1.00
O8     O     0.59130   0.41230   0.55738   0.01267  Uiso   1.00
O9     O     0.64990   0.45670   0.45198   0.01267  Uiso   1.00
O10    O     0.15750   0.72170   0.23291   0.01267  Uiso   1.00
O11    O     0.34160   0.94110   0.19929   0.01267  Uiso   1.00
O12    O     0.80070   0.39120   0.15176   0.01267  Uiso   1.00
O13    O     0.75520   0.30920   0.05110   0.01267  Uiso   1.00
O14    O     0.64330   0.86370   0.19051   0.01267  Uiso   1.00
O15    O     0.95650   0.93510   0.21906   0.01267  Uiso   1.00
O16    O     0.75160   0.66970   0.24420   0.01267  Uiso   1.00
O17    O     0.40870   0.08770   0.05738   0.01267  Uiso   1.00
O18    O     0.35010   0.04330   0.95198   0.01267  Uiso   1.00
O19    O     0.15750   0.22170   0.26709   0.01267  Uiso   1.00
O20    O     0.34160   0.44110   0.30071   0.01267  Uiso   1.00
O21    O     0.80070   0.89120   0.34824   0.01267  Uiso   1.00
O22    O     0.75520   0.80920   0.44890   0.01267  Uiso   1.00
O23    O     0.64330   0.36370   0.30949   0.01267  Uiso   1.00
O24    O     0.95650   0.43510   0.28094   0.01267  Uiso   1.00
O25    O     0.75160   0.16970   0.25580   0.01267  Uiso   1.00
O26    O     0.40870   0.58770   0.44262   0.01267  Uiso   1.00
O27    O     0.35010   0.54330   0.54802   0.01267  Uiso   1.00
O28    O     0.84250   0.27830   0.76709   0.01267  Uiso   1.00
O29    O     0.65840   0.05890   0.80071   0.01267  Uiso   1.00
O30    O     0.19930   0.60880   0.84824   0.01267  Uiso   1.00
O31    O     0.24480   0.69080   0.94890   0.01267  Uiso   1.00
O32    O     0.35670   0.13630   0.80949   0.01267  Uiso   1.00
O33    O     0.04350   0.06490   0.78094   0.01267  Uiso   1.00
O34    O     0.24840   0.33030   0.75580   0.01267  Uiso   1.00
O35    O     0.59130   0.91230   0.94262   0.01267  Uiso   1.00
O36    O     0.64990   0.95670   0.04802   0.01267  Uiso   1.00
