data_QUKYUR_clean
_audit_creation_date              2014-07-02
_audit_creation_method            'Materials Studio'
_symmetry_space_group_name_H-M    'P1'
_symmetry_Int_Tables_number       1
_symmetry_cell_setting            triclinic
loop_
_symmetry_equiv_pos_as_xyz
  x,y,z
_cell_length_a                    8.2368
_cell_length_b                    9.4063
_cell_length_c                    20.3660
_cell_angle_alpha                 90.0000
_cell_angle_beta                  90.0000
_cell_angle_gamma                 110.2860
loop_
_atom_site_label
_atom_site_type_symbol
_atom_site_fract_x
_atom_site_fract_y
_atom_site_fract_z
_atom_site_U_iso_or_equiv
_atom_site_adp_type
_atom_site_occupancy
Nd1    Nd    0.38068   0.40280   0.64808   0.01267  Uiso   1.00
Nd2    Nd    0.61932   0.09720   0.14808   0.01267  Uiso   1.00
Nd3    Nd    0.61932   0.59720   0.35192   0.01267  Uiso   1.00
Nd4    Nd    0.38068   0.90280   0.85192   0.01267  Uiso   1.00
Cu1    Cu    0.03966   0.95409   0.70291   0.01267  Uiso   1.00
Cu2    Cu    0.96034   0.54591   0.20291   0.01267  Uiso   1.00
Cu3    Cu    0.96034   0.04591   0.29709   0.01267  Uiso   1.00
Cu4    Cu    0.03966   0.45409   0.79709   0.01267  Uiso   1.00
P1     P     0.21773   0.69964   0.69938   0.01267  Uiso   1.00
P2     P     0.78227   0.80036   0.19938   0.01267  Uiso   1.00
P3     P     0.78227   0.30036   0.30062   0.01267  Uiso   1.00
P4     P     0.21773   0.19964   0.80062   0.01267  Uiso   1.00
H1     H     0.78270   0.73820   0.59140   0.01267  Uiso   1.00
H2     H     0.87350   0.61500   0.60370   0.01267  Uiso   1.00
H3     H     0.11070   0.90510   0.52870   0.01267  Uiso   1.00
H4     H     0.94740   0.94670   0.55320   0.01267  Uiso   1.00
H5     H     0.15220   0.68840   0.58950   0.01267  Uiso   1.00
H6     H     0.28640   0.85040   0.60660   0.01267  Uiso   1.00
H7     H     0.21730   0.76180   0.09140   0.01267  Uiso   1.00
H8     H     0.12650   0.88500   0.10370   0.01267  Uiso   1.00
H9     H     0.88930   0.59490   0.02870   0.01267  Uiso   1.00
H10    H     0.05260   0.55330   0.05320   0.01267  Uiso   1.00
H11    H     0.84780   0.81160   0.08950   0.01267  Uiso   1.00
H12    H     0.71360   0.64960   0.10660   0.01267  Uiso   1.00
H13    H     0.21730   0.26180   0.40860   0.01267  Uiso   1.00
H14    H     0.12650   0.38500   0.39630   0.01267  Uiso   1.00
H15    H     0.88930   0.09490   0.47130   0.01267  Uiso   1.00
H16    H     0.05260   0.05330   0.44680   0.01267  Uiso   1.00
H17    H     0.84780   0.31160   0.41050   0.01267  Uiso   1.00
H18    H     0.71360   0.14960   0.39340   0.01267  Uiso   1.00
H19    H     0.78270   0.23820   0.90860   0.01267  Uiso   1.00
H20    H     0.87350   0.11500   0.89630   0.01267  Uiso   1.00
H21    H     0.11070   0.40510   0.97130   0.01267  Uiso   1.00
H22    H     0.94740   0.44670   0.94680   0.01267  Uiso   1.00
H23    H     0.15220   0.18840   0.91050   0.01267  Uiso   1.00
H24    H     0.28640   0.35040   0.89340   0.01267  Uiso   1.00
C1     C     0.78260   0.67960   0.68958   0.01267  Uiso   1.00
C2     C     0.86130   0.70910   0.62100   0.01267  Uiso   1.00
C3     C     0.06000   0.94040   0.56678   0.01267  Uiso   1.00
C4     C     0.18090   0.09570   0.58864   0.01267  Uiso   1.00
C5     C     0.17990   0.77160   0.62087   0.01267  Uiso   1.00
C6     C     0.56960   0.46200   0.50264   0.01267  Uiso   1.00
C7     C     0.21740   0.82040   0.18958   0.01267  Uiso   1.00
C8     C     0.13870   0.79090   0.12100   0.01267  Uiso   1.00
C9     C     0.94000   0.55960   0.06678   0.01267  Uiso   1.00
C10    C     0.81910   0.40430   0.08864   0.01267  Uiso   1.00
C11    C     0.82010   0.72840   0.12087   0.01267  Uiso   1.00
C12    C     0.43040   0.03800   0.00264   0.01267  Uiso   1.00
C13    C     0.21740   0.32040   0.31042   0.01267  Uiso   1.00
C14    C     0.13870   0.29090   0.37900   0.01267  Uiso   1.00
C15    C     0.94000   0.05960   0.43322   0.01267  Uiso   1.00
C16    C     0.81910   0.90430   0.41136   0.01267  Uiso   1.00
C17    C     0.82010   0.22840   0.37913   0.01267  Uiso   1.00
C18    C     0.43040   0.53800   0.49736   0.01267  Uiso   1.00
C19    C     0.78260   0.17960   0.81042   0.01267  Uiso   1.00
C20    C     0.86130   0.20910   0.87900   0.01267  Uiso   1.00
C21    C     0.06000   0.44040   0.93322   0.01267  Uiso   1.00
C22    C     0.18090   0.59570   0.91136   0.01267  Uiso   1.00
C23    C     0.17990   0.27160   0.87913   0.01267  Uiso   1.00
C24    C     0.56960   0.96200   0.99736   0.01267  Uiso   1.00
N1     N     0.03410   0.83210   0.62175   0.01267  Uiso   1.00
N2     N     0.96590   0.66790   0.12175   0.01267  Uiso   1.00
N3     N     0.96590   0.16790   0.37825   0.01267  Uiso   1.00
N4     N     0.03410   0.33210   0.87825   0.01267  Uiso   1.00
O1     O     0.84400   0.78120   0.73333   0.01267  Uiso   1.00
O2     O     0.65830   0.55900   0.69970   0.01267  Uiso   1.00
O3     O     0.20400   0.11680   0.65119   0.01267  Uiso   1.00
O4     O     0.24850   0.19830   0.54930   0.01267  Uiso   1.00
O5     O     0.36280   0.63810   0.68955   0.01267  Uiso   1.00
O6     O     0.04780   0.57080   0.71860   0.01267  Uiso   1.00
O7     O     0.26100   0.83540   0.74497   0.01267  Uiso   1.00
O8     O     0.59360   0.41460   0.55853   0.01267  Uiso   1.00
O9     O     0.64820   0.45500   0.45095   0.01267  Uiso   1.00
O10    O     0.15600   0.71880   0.23333   0.01267  Uiso   1.00
O11    O     0.34170   0.94100   0.19970   0.01267  Uiso   1.00
O12    O     0.79600   0.38320   0.15119   0.01267  Uiso   1.00
O13    O     0.75150   0.30170   0.04930   0.01267  Uiso   1.00
O14    O     0.63720   0.86190   0.18955   0.01267  Uiso   1.00
O15    O     0.95220   0.92920   0.21860   0.01267  Uiso   1.00
O16    O     0.73900   0.66460   0.24497   0.01267  Uiso   1.00
O17    O     0.40640   0.08540   0.05853   0.01267  Uiso   1.00
O18    O     0.35180   0.04500   0.95095   0.01267  Uiso   1.00
O19    O     0.15600   0.21880   0.26667   0.01267  Uiso   1.00
O20    O     0.34170   0.44100   0.30030   0.01267  Uiso   1.00
O21    O     0.79600   0.88320   0.34881   0.01267  Uiso   1.00
O22    O     0.75150   0.80170   0.45070   0.01267  Uiso   1.00
O23    O     0.63720   0.36190   0.31045   0.01267  Uiso   1.00
O24    O     0.95220   0.42920   0.28140   0.01267  Uiso   1.00
O25    O     0.73900   0.16460   0.25503   0.01267  Uiso   1.00
O26    O     0.40640   0.58540   0.44147   0.01267  Uiso   1.00
O27    O     0.35180   0.54500   0.54905   0.01267  Uiso   1.00
O28    O     0.84400   0.28120   0.76667   0.01267  Uiso   1.00
O29    O     0.65830   0.05900   0.80030   0.01267  Uiso   1.00
O30    O     0.20400   0.61680   0.84881   0.01267  Uiso   1.00
O31    O     0.24850   0.69830   0.95070   0.01267  Uiso   1.00
O32    O     0.36280   0.13810   0.81045   0.01267  Uiso   1.00
O33    O     0.04780   0.07080   0.78140   0.01267  Uiso   1.00
O34    O     0.26100   0.33540   0.75503   0.01267  Uiso   1.00
O35    O     0.59360   0.91460   0.94147   0.01267  Uiso   1.00
O36    O     0.64820   0.95500   0.04905   0.01267  Uiso   1.00
