data_QULMIU_clean
_audit_creation_date              2014-07-02
_audit_creation_method            'Materials Studio'
_symmetry_space_group_name_H-M    'P1'
_symmetry_Int_Tables_number       1
_symmetry_cell_setting            triclinic
loop_
_symmetry_equiv_pos_as_xyz
  x,y,z
_cell_length_a                    8.1160
_cell_length_b                    17.1946
_cell_length_c                    17.1946
_cell_angle_alpha                 62.4277
_cell_angle_beta                  80.9476
_cell_angle_gamma                 99.0524
loop_
_atom_site_label
_atom_site_type_symbol
_atom_site_fract_x
_atom_site_fract_y
_atom_site_fract_z
_atom_site_U_iso_or_equiv
_atom_site_adp_type
_atom_site_occupancy
In1    In    0.07595   0.29999   0.26869   0.01267  Uiso   1.00
In2    In    0.34464   0.26869   0.43132   0.01267  Uiso   1.00
In3    In    0.77596   0.43132   0.29999   0.01267  Uiso   1.00
In4    In    0.92405   0.70001   0.73131   0.01267  Uiso   1.00
In5    In    0.65536   0.73131   0.56868   0.01267  Uiso   1.00
In6    In    0.22404   0.56868   0.70001   0.01267  Uiso   1.00
H1     H     0.94380   0.72850   0.86290   0.01267  Uiso   1.00
H2     H     0.09910   0.80130   0.79800   0.01267  Uiso   1.00
H3     H     0.75150   0.26180   0.36670   0.01267  Uiso   1.00
H4     H     0.37750   0.55050   0.03290   0.01267  Uiso   1.00
H5     H     0.36650   0.74390   0.78650   0.01267  Uiso   1.00
H6     H     0.93420   0.61700   0.99170   0.01267  Uiso   1.00
H7     H     0.80670   0.86290   0.40860   0.01267  Uiso   1.00
H8     H     0.89710   0.79800   0.40070   0.01267  Uiso   1.00
H9     H     0.11820   0.36670   0.37150   0.01267  Uiso   1.00
H10    H     0.41040   0.03290   0.41660   0.01267  Uiso   1.00
H11    H     0.15300   0.78650   0.46960   0.01267  Uiso   1.00
H12    H     0.92590   0.99170   0.39130   0.01267  Uiso   1.00
H13    H     0.21530   0.40860   0.72850   0.01267  Uiso   1.00
H14    H     0.29780   0.40070   0.80130   0.01267  Uiso   1.00
H15    H     0.48970   0.37150   0.26180   0.01267  Uiso   1.00
H16    H     0.82700   0.41660   0.55050   0.01267  Uiso   1.00
H17    H     0.62260   0.46960   0.74390   0.01267  Uiso   1.00
H18    H     0.31720   0.39130   0.61700   0.01267  Uiso   1.00
H19    H     0.05620   0.27150   0.13710   0.01267  Uiso   1.00
H20    H     0.90090   0.19870   0.20200   0.01267  Uiso   1.00
H21    H     0.24850   0.73820   0.63330   0.01267  Uiso   1.00
H22    H     0.62250   0.44950   0.96710   0.01267  Uiso   1.00
H23    H     0.63350   0.25610   0.21350   0.01267  Uiso   1.00
H24    H     0.06580   0.38300   0.00830   0.01267  Uiso   1.00
H25    H     0.19330   0.13710   0.59140   0.01267  Uiso   1.00
H26    H     0.10290   0.20200   0.59930   0.01267  Uiso   1.00
H27    H     0.88180   0.63330   0.62850   0.01267  Uiso   1.00
H28    H     0.58960   0.96710   0.58340   0.01267  Uiso   1.00
H29    H     0.84700   0.21350   0.53040   0.01267  Uiso   1.00
H30    H     0.07410   0.00830   0.60870   0.01267  Uiso   1.00
H31    H     0.78470   0.59140   0.27150   0.01267  Uiso   1.00
H32    H     0.70220   0.59930   0.19870   0.01267  Uiso   1.00
H33    H     0.51030   0.62850   0.73820   0.01267  Uiso   1.00
H34    H     0.17300   0.58340   0.44950   0.01267  Uiso   1.00
H35    H     0.37740   0.53040   0.25610   0.01267  Uiso   1.00
H36    H     0.68280   0.60870   0.38300   0.01267  Uiso   1.00
C1     C     0.05022   0.49814   0.12208   0.01267  Uiso   1.00
C2     C     0.14194   0.57068   0.02626   0.01267  Uiso   1.00
C3     C     0.31685   0.58505   0.99440   0.01267  Uiso   1.00
C4     C     0.40283   0.65023   0.90574   0.01267  Uiso   1.00
C5     C     0.59570   0.66860   0.87380   0.01267  Uiso   1.00
C6     C     0.31093   0.70193   0.84704   0.01267  Uiso   1.00
C7     C     0.13680   0.68931   0.88071   0.01267  Uiso   1.00
C8     C     0.05116   0.62456   0.96968   0.01267  Uiso   1.00
C9     C     0.17230   0.12208   0.37978   0.01267  Uiso   1.00
C10    C     0.16820   0.02626   0.40306   0.01267  Uiso   1.00
C11    C     0.31125   0.99440   0.42055   0.01267  Uiso   1.00
C12    C     0.30857   0.90574   0.44403   0.01267  Uiso   1.00
C13    C     0.46950   0.87380   0.45760   0.01267  Uiso   1.00
C14    C     0.15797   0.84704   0.45103   0.01267  Uiso   1.00
C15    C     0.01751   0.88071   0.42998   0.01267  Uiso   1.00
C16    C     0.02084   0.96968   0.40576   0.01267  Uiso   1.00
C17    C     0.55208   0.37978   0.49814   0.01267  Uiso   1.00
C18    C     0.57126   0.40306   0.57068   0.01267  Uiso   1.00
C19    C     0.73180   0.42055   0.58505   0.01267  Uiso   1.00
C20    C     0.75260   0.44403   0.65023   0.01267  Uiso   1.00
C21    C     0.92710   0.45760   0.66860   0.01267  Uiso   1.00
C22    C     0.60900   0.45103   0.70193   0.01267  Uiso   1.00
C23    C     0.44749   0.42998   0.68931   0.01267  Uiso   1.00
C24    C     0.42660   0.40576   0.62456   0.01267  Uiso   1.00
C25    C     0.94978   0.50186   0.87792   0.01267  Uiso   1.00
C26    C     0.85806   0.42932   0.97374   0.01267  Uiso   1.00
C27    C     0.68315   0.41495   0.00560   0.01267  Uiso   1.00
C28    C     0.59717   0.34977   0.09426   0.01267  Uiso   1.00
C29    C     0.40430   0.33140   0.12620   0.01267  Uiso   1.00
C30    C     0.68907   0.29807   0.15296   0.01267  Uiso   1.00
C31    C     0.86320   0.31069   0.11929   0.01267  Uiso   1.00
C32    C     0.94884   0.37544   0.03032   0.01267  Uiso   1.00
C33    C     0.82770   0.87792   0.62022   0.01267  Uiso   1.00
C34    C     0.83180   0.97374   0.59694   0.01267  Uiso   1.00
C35    C     0.68875   0.00560   0.57945   0.01267  Uiso   1.00
C36    C     0.69143   0.09426   0.55597   0.01267  Uiso   1.00
C37    C     0.53050   0.12620   0.54240   0.01267  Uiso   1.00
C38    C     0.84203   0.15296   0.54897   0.01267  Uiso   1.00
C39    C     0.98249   0.11929   0.57002   0.01267  Uiso   1.00
C40    C     0.97916   0.03032   0.59424   0.01267  Uiso   1.00
C41    C     0.44792   0.62022   0.50186   0.01267  Uiso   1.00
C42    C     0.42874   0.59694   0.42932   0.01267  Uiso   1.00
C43    C     0.26820   0.57945   0.41495   0.01267  Uiso   1.00
C44    C     0.24740   0.55597   0.34977   0.01267  Uiso   1.00
C45    C     0.07290   0.54240   0.33140   0.01267  Uiso   1.00
C46    C     0.39100   0.54897   0.29807   0.01267  Uiso   1.00
C47    C     0.55251   0.57002   0.31069   0.01267  Uiso   1.00
C48    C     0.57340   0.59424   0.37544   0.01267  Uiso   1.00
N1     N     0.04154   0.74468   0.82166   0.01267  Uiso   1.00
N2     N     0.86320   0.82166   0.43366   0.01267  Uiso   1.00
N3     N     0.29686   0.43366   0.74468   0.01267  Uiso   1.00
N4     N     0.95846   0.25532   0.17834   0.01267  Uiso   1.00
N5     N     0.13680   0.17834   0.56634   0.01267  Uiso   1.00
N6     N     0.70314   0.56634   0.25532   0.01267  Uiso   1.00
O1     O     0.13050   0.44138   0.16408   0.01267  Uiso   1.00
O2     O     0.89887   0.49875   0.15584   0.01267  Uiso   1.00
O3     O     0.65554   0.68320   0.79378   0.01267  Uiso   1.00
O4     O     0.68466   0.66806   0.92558   0.01267  Uiso   1.00
O5     O     0.83245   0.30868   0.32103   0.01267  Uiso   1.00
O6     O     0.29458   0.16408   0.39454   0.01267  Uiso   1.00
O7     O     0.05471   0.15584   0.34541   0.01267  Uiso   1.00
O8     O     0.44932   0.79378   0.52302   0.01267  Uiso   1.00
O9     O     0.61024   0.92558   0.40636   0.01267  Uiso   1.00
O10    O     0.15348   0.32103   0.37029   0.01267  Uiso   1.00
O11    O     0.68912   0.39454   0.44138   0.01267  Uiso   1.00
O12    O     0.40012   0.34541   0.49875   0.01267  Uiso   1.00
O13    O     0.97234   0.52302   0.68320   0.01267  Uiso   1.00
O14    O     0.01660   0.40636   0.66806   0.01267  Uiso   1.00
O15    O     0.52377   0.37029   0.30868   0.01267  Uiso   1.00
O16    O     0.86950   0.55862   0.83592   0.01267  Uiso   1.00
O17    O     0.10113   0.50125   0.84416   0.01267  Uiso   1.00
O18    O     0.34446   0.31680   0.20622   0.01267  Uiso   1.00
O19    O     0.31534   0.33194   0.07442   0.01267  Uiso   1.00
O20    O     0.16755   0.69132   0.67897   0.01267  Uiso   1.00
O21    O     0.70542   0.83592   0.60546   0.01267  Uiso   1.00
O22    O     0.94529   0.84416   0.65459   0.01267  Uiso   1.00
O23    O     0.55068   0.20622   0.47698   0.01267  Uiso   1.00
O24    O     0.38976   0.07442   0.59364   0.01267  Uiso   1.00
O25    O     0.84652   0.67897   0.62971   0.01267  Uiso   1.00
O26    O     0.31088   0.60546   0.55862   0.01267  Uiso   1.00
O27    O     0.59988   0.65459   0.50125   0.01267  Uiso   1.00
O28    O     0.02766   0.47698   0.31680   0.01267  Uiso   1.00
O29    O     0.98340   0.59364   0.33194   0.01267  Uiso   1.00
O30    O     0.47623   0.62971   0.69132   0.01267  Uiso   1.00
