data_image0
_cell_length_a       9.4491
_cell_length_b       10.0762
_cell_length_c       11.5763
_cell_angle_alpha    73.093
_cell_angle_beta     89.597
_cell_angle_gamma    80.097

_symmetry_space_group_name_H-M    "P 1"
_symmetry_int_tables_number       1

loop_
  _symmetry_equiv_pos_as_xyz
  'x, y, z'

loop_
  _atom_site_label
  _atom_site_occupancy
  _atom_site_fract_x
  _atom_site_fract_y
  _atom_site_fract_z
  _atom_site_thermal_displace_type
  _atom_site_B_iso_or_equiv
  _atom_site_type_symbol
  Mn1      1.0000 0.00947  0.08932  0.16786  Biso   1.000  Mn
  O1       1.0000 0.03260  0.21219  0.41233  Biso   1.000  O
  O2       1.0000 0.98120  0.28500  0.21232  Biso   1.000  O
  O3       1.0000 0.06970  0.89890  0.12465  Biso   1.000  O
  O4       1.0000 0.99130  0.77700  0.01132  Biso   1.000  O
  O5       1.0000 0.02110  0.54476  0.19814  Biso   1.000  O
  O6       1.0000 0.10431  0.01180  0.66595  Biso   1.000  O
  O7       1.0000 0.23810  0.91860  0.83410  Biso   1.000  O
  O8       1.0000 0.77200  0.95070  0.75945  Biso   1.000  O
  O9       1.0000 0.80125  0.08270  0.57070  Biso   1.000  O
  O10      1.0000 0.48060  0.99780  0.71107  Biso   1.000  O
  C1       1.0000 0.01900  0.30120  0.31110  Biso   1.000  C
  C2       1.0000 0.04930  0.44200  0.30620  Biso   1.000  C
  C3       1.0000 0.09600  0.49530  0.38980  Biso   1.000  C
  H1       1.0000 0.12340  0.44570  0.47190  Biso   1.000  H
  C4       1.0000 0.09620  0.64070  0.33100  Biso   1.000  C
  H2       1.0000 0.12310  0.70710  0.36660  Biso   1.000  H
  C5       1.0000 0.05130  0.66580  0.21560  Biso   1.000  C
  C6       1.0000 0.03450  0.79090  0.10950  Biso   1.000  C
  C7       1.0000 0.22350  0.98640  0.72490  Biso   1.000  C
  C8       1.0000 0.34410  0.04560  0.65800  Biso   1.000  C
  C9       1.0000 0.34560  0.14150  0.55030  Biso   1.000  C
  H3       1.0000 0.26520  0.19030  0.49680  Biso   1.000  H
  C10      1.0000 0.49060  0.15520  0.53230  Biso   1.000  C
  H4       1.0000 0.52640  0.21570  0.46360  Biso   1.000  H
  C11      1.0000 0.56910  0.06770  0.62910  Biso   1.000  C
  C12      1.0000 0.72710  0.03000  0.65650  Biso   1.000  C
  Mn2      1.0000 0.99053  0.91068  0.83214  Biso   1.000  Mn
  O11      1.0000 0.96740  0.78781  0.58767  Biso   1.000  O
  O12      1.0000 0.01880  0.71500  0.78768  Biso   1.000  O
  O13      1.0000 0.93030  0.10110  0.87535  Biso   1.000  O
  O14      1.0000 0.00870  0.22300  0.98868  Biso   1.000  O
  O15      1.0000 0.97890  0.45524  0.80186  Biso   1.000  O
  O16      1.0000 0.89569  0.98820  0.33405  Biso   1.000  O
  O17      1.0000 0.76190  0.08140  0.16590  Biso   1.000  O
  O18      1.0000 0.22800  0.04930  0.24055  Biso   1.000  O
  O19      1.0000 0.19875  0.91730  0.42930  Biso   1.000  O
  O20      1.0000 0.51940  0.00220  0.28893  Biso   1.000  O
  C13      1.0000 0.98100  0.69880  0.68890  Biso   1.000  C
  C14      1.0000 0.95070  0.55800  0.69380  Biso   1.000  C
  C15      1.0000 0.90400  0.50470  0.61020  Biso   1.000  C
  H5       1.0000 0.87660  0.55430  0.52810  Biso   1.000  H
  C16      1.0000 0.90380  0.35930  0.66900  Biso   1.000  C
  H6       1.0000 0.87690  0.29290  0.63340  Biso   1.000  H
  C17      1.0000 0.94870  0.33420  0.78440  Biso   1.000  C
  C18      1.0000 0.96550  0.20910  0.89050  Biso   1.000  C
  C19      1.0000 0.77650  0.01360  0.27510  Biso   1.000  C
  C20      1.0000 0.65590  0.95440  0.34200  Biso   1.000  C
  C21      1.0000 0.65440  0.85850  0.44970  Biso   1.000  C
  H7       1.0000 0.73480  0.80970  0.50320  Biso   1.000  H
  C22      1.0000 0.50940  0.84480  0.46770  Biso   1.000  C
  H8       1.0000 0.47360  0.78430  0.53640  Biso   1.000  H
  C23      1.0000 0.43090  0.93230  0.37090  Biso   1.000  C
  C24      1.0000 0.27290  0.97000  0.34350  Biso   1.000  C
  Mn3      1.0000 0.00000  0.00000  0.50000  Biso   1.000  Mn
