data_image0
_cell_length_a       29.726
_cell_length_b       9.186
_cell_length_c       16.198
_cell_angle_alpha    90
_cell_angle_beta     112.79
_cell_angle_gamma    90

_symmetry_space_group_name_H-M    "P 1"
_symmetry_int_tables_number       1

loop_
  _symmetry_equiv_pos_as_xyz
  'x, y, z'

loop_
  _atom_site_label
  _atom_site_occupancy
  _atom_site_fract_x
  _atom_site_fract_y
  _atom_site_fract_z
  _atom_site_thermal_displace_type
  _atom_site_B_iso_or_equiv
  _atom_site_type_symbol
  Dy1      1.0000 0.49720  0.83763  0.40382  Biso   1.000  Dy
  C1       1.0000 0.92030  0.38900  0.50620  Biso   1.000  C
  C2       1.0000 0.86610  0.36620  0.47890  Biso   1.000  C
  C3       1.0000 0.84040  0.46190  0.51050  Biso   1.000  C
  H1       1.0000 0.85650  0.53410  0.55140  Biso   1.000  H
  C4       1.0000 0.79010  0.44770  0.47990  Biso   1.000  C
  C5       1.0000 0.76570  0.33890  0.42120  Biso   1.000  C
  H2       1.0000 0.73220  0.32700  0.40380  Biso   1.000  H
  C6       1.0000 0.79198  0.24750  0.38860  Biso   1.000  C
  C7       1.0000 0.84200  0.25920  0.41800  Biso   1.000  C
  H3       1.0000 0.85940  0.19530  0.39700  Biso   1.000  H
  C8       1.0000 0.71920  0.58590  0.45880  Biso   1.000  C
  C9       1.0000 0.68570  0.59660  0.49740  Biso   1.000  C
  H4       1.0000 0.69430  0.57110  0.55710  Biso   1.000  H
  C10      1.0000 0.63910  0.64570  0.44710  Biso   1.000  C
  H5       1.0000 0.61660  0.65510  0.47370  Biso   1.000  H
  C11      1.0000 0.62570  0.68080  0.35820  Biso   1.000  C
  C12      1.0000 0.66040  0.66970  0.32000  Biso   1.000  C
  H6       1.0000 0.65190  0.69480  0.26020  Biso   1.000  H
  C13      1.0000 0.70690  0.62230  0.36950  Biso   1.000  C
  H7       1.0000 0.72990  0.61460  0.34370  Biso   1.000  H
  C14      1.0000 0.57554  0.73530  0.30510  Biso   1.000  C
  C15      1.0000 0.71940  0.15370  0.27610  Biso   1.000  C
  C16      1.0000 0.70000  0.27460  0.22470  Biso   1.000  C
  H8       1.0000 0.71980  0.35380  0.22610  Biso   1.000  H
  C17      1.0000 0.65120  0.27710  0.17130  Biso   1.000  C
  H9       1.0000 0.63780  0.35920  0.13680  Biso   1.000  H
  C18      1.0000 0.62160  0.15960  0.16790  Biso   1.000  C
  C19      1.0000 0.64160  0.04170  0.22070  Biso   1.000  C
  H10      1.0000 0.62180  0.96290  0.21970  Biso   1.000  H
  C20      1.0000 0.69050  0.03660  0.27550  Biso   1.000  C
  H11      1.0000 0.70360  0.95560  0.31120  Biso   1.000  H
  C21      1.0000 0.56930  0.15600  0.10240  Biso   1.000  C
  O1       1.0000 0.93938  0.49060  0.55870  Biso   1.000  O
  O2       1.0000 0.94239  0.30480  0.47340  Biso   1.000  O
  O3       1.0000 0.76577  0.54230  0.51380  Biso   1.000  O
  O4       1.0000 0.76944  0.14030  0.32720  Biso   1.000  O
  O5       1.0000 0.54547  0.73690  0.34250  Biso   1.000  O
  O6       1.0000 0.56613  0.77620  0.22650  Biso   1.000  O
  O7       1.0000 0.55529  0.24810  0.04140  Biso   1.000  O
  O8       1.0000 0.54270  0.05440  0.10870  Biso   1.000  O
  Dy2      1.0000 0.99720  0.33763  0.40382  Biso   1.000  Dy
  C22      1.0000 0.42030  0.88900  0.50620  Biso   1.000  C
  C23      1.0000 0.36610  0.86620  0.47890  Biso   1.000  C
  C24      1.0000 0.34040  0.96190  0.51050  Biso   1.000  C
  H12      1.0000 0.35650  0.03410  0.55140  Biso   1.000  H
  C25      1.0000 0.29010  0.94770  0.47990  Biso   1.000  C
  C26      1.0000 0.26570  0.83890  0.42120  Biso   1.000  C
  H13      1.0000 0.23220  0.82700  0.40380  Biso   1.000  H
  C27      1.0000 0.29198  0.74750  0.38860  Biso   1.000  C
  C28      1.0000 0.34200  0.75920  0.41800  Biso   1.000  C
  H14      1.0000 0.35940  0.69530  0.39700  Biso   1.000  H
  C29      1.0000 0.21920  0.08590  0.45880  Biso   1.000  C
  C30      1.0000 0.18570  0.09660  0.49740  Biso   1.000  C
  H15      1.0000 0.19430  0.07110  0.55710  Biso   1.000  H
  C31      1.0000 0.13910  0.14570  0.44710  Biso   1.000  C
  H16      1.0000 0.11660  0.15510  0.47370  Biso   1.000  H
  C32      1.0000 0.12570  0.18080  0.35820  Biso   1.000  C
  C33      1.0000 0.16040  0.16970  0.32000  Biso   1.000  C
  H17      1.0000 0.15190  0.19480  0.26020  Biso   1.000  H
  C34      1.0000 0.20690  0.12230  0.36950  Biso   1.000  C
  H18      1.0000 0.22990  0.11460  0.34370  Biso   1.000  H
  C35      1.0000 0.07554  0.23530  0.30510  Biso   1.000  C
  C36      1.0000 0.21940  0.65370  0.27610  Biso   1.000  C
  C37      1.0000 0.20000  0.77460  0.22470  Biso   1.000  C
  H19      1.0000 0.21980  0.85380  0.22610  Biso   1.000  H
  C38      1.0000 0.15120  0.77710  0.17130  Biso   1.000  C
  H20      1.0000 0.13780  0.85920  0.13680  Biso   1.000  H
  C39      1.0000 0.12160  0.65960  0.16790  Biso   1.000  C
  C40      1.0000 0.14160  0.54170  0.22070  Biso   1.000  C
  H21      1.0000 0.12180  0.46290  0.21970  Biso   1.000  H
  C41      1.0000 0.19050  0.53660  0.27550  Biso   1.000  C
  H22      1.0000 0.20360  0.45560  0.31120  Biso   1.000  H
  C42      1.0000 0.06930  0.65600  0.10240  Biso   1.000  C
  O9       1.0000 0.43938  0.99060  0.55870  Biso   1.000  O
  O10      1.0000 0.44239  0.80480  0.47340  Biso   1.000  O
  O11      1.0000 0.26577  0.04230  0.51380  Biso   1.000  O
  O12      1.0000 0.26944  0.64030  0.32720  Biso   1.000  O
  O13      1.0000 0.04547  0.23690  0.34250  Biso   1.000  O
  O14      1.0000 0.06613  0.27620  0.22650  Biso   1.000  O
  O15      1.0000 0.05529  0.74810  0.04140  Biso   1.000  O
  O16      1.0000 0.04270  0.55440  0.10870  Biso   1.000  O
  Dy3      1.0000 0.50280  0.83763  0.09618  Biso   1.000  Dy
  C43      1.0000 0.07970  0.38900  0.99380  Biso   1.000  C
  C44      1.0000 0.13390  0.36620  0.02110  Biso   1.000  C
  C45      1.0000 0.15960  0.46190  0.98950  Biso   1.000  C
  H23      1.0000 0.14350  0.53410  0.94860  Biso   1.000  H
  C46      1.0000 0.20990  0.44770  0.02010  Biso   1.000  C
  C47      1.0000 0.23430  0.33890  0.07880  Biso   1.000  C
  H24      1.0000 0.26780  0.32700  0.09620  Biso   1.000  H
  C48      1.0000 0.20802  0.24750  0.11140  Biso   1.000  C
  C49      1.0000 0.15800  0.25920  0.08200  Biso   1.000  C
  H25      1.0000 0.14060  0.19530  0.10300  Biso   1.000  H
  C50      1.0000 0.28080  0.58590  0.04120  Biso   1.000  C
  C51      1.0000 0.31430  0.59660  0.00260  Biso   1.000  C
  H26      1.0000 0.30570  0.57110  0.94290  Biso   1.000  H
  C52      1.0000 0.36090  0.64570  0.05290  Biso   1.000  C
  H27      1.0000 0.38340  0.65510  0.02630  Biso   1.000  H
  C53      1.0000 0.37430  0.68080  0.14180  Biso   1.000  C
  C54      1.0000 0.33960  0.66970  0.18000  Biso   1.000  C
  H28      1.0000 0.34810  0.69480  0.23980  Biso   1.000  H
  C55      1.0000 0.29310  0.62230  0.13050  Biso   1.000  C
  H29      1.0000 0.27010  0.61460  0.15630  Biso   1.000  H
  C56      1.0000 0.42446  0.73530  0.19490  Biso   1.000  C
  C57      1.0000 0.28060  0.15370  0.22390  Biso   1.000  C
  C58      1.0000 0.30000  0.27460  0.27530  Biso   1.000  C
  H30      1.0000 0.28020  0.35380  0.27390  Biso   1.000  H
  C59      1.0000 0.34880  0.27710  0.32870  Biso   1.000  C
  H31      1.0000 0.36220  0.35920  0.36320  Biso   1.000  H
  C60      1.0000 0.37840  0.15960  0.33210  Biso   1.000  C
  C61      1.0000 0.35840  0.04170  0.27930  Biso   1.000  C
  H32      1.0000 0.37820  0.96290  0.28030  Biso   1.000  H
  C62      1.0000 0.30950  0.03660  0.22450  Biso   1.000  C
  H33      1.0000 0.29640  0.95560  0.18880  Biso   1.000  H
  C63      1.0000 0.43070  0.15600  0.39760  Biso   1.000  C
  O17      1.0000 0.06062  0.49060  0.94130  Biso   1.000  O
  O18      1.0000 0.05761  0.30480  0.02660  Biso   1.000  O
  O19      1.0000 0.23423  0.54230  0.98620  Biso   1.000  O
  O20      1.0000 0.23056  0.14030  0.17280  Biso   1.000  O
  O21      1.0000 0.45453  0.73690  0.15750  Biso   1.000  O
  O22      1.0000 0.43387  0.77620  0.27350  Biso   1.000  O
  O23      1.0000 0.44471  0.24810  0.45860  Biso   1.000  O
  O24      1.0000 0.45730  0.05440  0.39130  Biso   1.000  O
  Dy4      1.0000 0.00280  0.33763  0.09618  Biso   1.000  Dy
  C64      1.0000 0.57970  0.88900  0.99380  Biso   1.000  C
  C65      1.0000 0.63390  0.86620  0.02110  Biso   1.000  C
  C66      1.0000 0.65960  0.96190  0.98950  Biso   1.000  C
  H34      1.0000 0.64350  0.03410  0.94860  Biso   1.000  H
  C67      1.0000 0.70990  0.94770  0.02010  Biso   1.000  C
  C68      1.0000 0.73430  0.83890  0.07880  Biso   1.000  C
  H35      1.0000 0.76780  0.82700  0.09620  Biso   1.000  H
  C69      1.0000 0.70802  0.74750  0.11140  Biso   1.000  C
  C70      1.0000 0.65800  0.75920  0.08200  Biso   1.000  C
  H36      1.0000 0.64060  0.69530  0.10300  Biso   1.000  H
  C71      1.0000 0.78080  0.08590  0.04120  Biso   1.000  C
  C72      1.0000 0.81430  0.09660  0.00260  Biso   1.000  C
  H37      1.0000 0.80570  0.07110  0.94290  Biso   1.000  H
  C73      1.0000 0.86090  0.14570  0.05290  Biso   1.000  C
  H38      1.0000 0.88340  0.15510  0.02630  Biso   1.000  H
  C74      1.0000 0.87430  0.18080  0.14180  Biso   1.000  C
  C75      1.0000 0.83960  0.16970  0.18000  Biso   1.000  C
  H39      1.0000 0.84810  0.19480  0.23980  Biso   1.000  H
  C76      1.0000 0.79310  0.12230  0.13050  Biso   1.000  C
  H40      1.0000 0.77010  0.11460  0.15630  Biso   1.000  H
  C77      1.0000 0.92446  0.23530  0.19490  Biso   1.000  C
  C78      1.0000 0.78060  0.65370  0.22390  Biso   1.000  C
  C79      1.0000 0.80000  0.77460  0.27530  Biso   1.000  C
  H41      1.0000 0.78020  0.85380  0.27390  Biso   1.000  H
  C80      1.0000 0.84880  0.77710  0.32870  Biso   1.000  C
  H42      1.0000 0.86220  0.85920  0.36320  Biso   1.000  H
  C81      1.0000 0.87840  0.65960  0.33210  Biso   1.000  C
  C82      1.0000 0.85840  0.54170  0.27930  Biso   1.000  C
  H43      1.0000 0.87820  0.46290  0.28030  Biso   1.000  H
  C83      1.0000 0.80950  0.53660  0.22450  Biso   1.000  C
  H44      1.0000 0.79640  0.45560  0.18880  Biso   1.000  H
  C84      1.0000 0.93070  0.65600  0.39760  Biso   1.000  C
  O25      1.0000 0.56062  0.99060  0.94130  Biso   1.000  O
  O26      1.0000 0.55761  0.80480  0.02660  Biso   1.000  O
  O27      1.0000 0.73423  0.04230  0.98620  Biso   1.000  O
  O28      1.0000 0.73056  0.64030  0.17280  Biso   1.000  O
  O29      1.0000 0.95453  0.23690  0.15750  Biso   1.000  O
  O30      1.0000 0.93387  0.27620  0.27350  Biso   1.000  O
  O31      1.0000 0.94471  0.74810  0.45860  Biso   1.000  O
  O32      1.0000 0.95730  0.55440  0.39130  Biso   1.000  O
  Dy5      1.0000 0.50280  0.16237  0.59618  Biso   1.000  Dy
  C85      1.0000 0.07970  0.61100  0.49380  Biso   1.000  C
  C86      1.0000 0.13390  0.63380  0.52110  Biso   1.000  C
  C87      1.0000 0.15960  0.53810  0.48950  Biso   1.000  C
  H45      1.0000 0.14350  0.46590  0.44860  Biso   1.000  H
  C88      1.0000 0.20990  0.55230  0.52010  Biso   1.000  C
  C89      1.0000 0.23430  0.66110  0.57880  Biso   1.000  C
  H46      1.0000 0.26780  0.67300  0.59620  Biso   1.000  H
  C90      1.0000 0.20802  0.75250  0.61140  Biso   1.000  C
  C91      1.0000 0.15800  0.74080  0.58200  Biso   1.000  C
  H47      1.0000 0.14060  0.80470  0.60300  Biso   1.000  H
  C92      1.0000 0.28080  0.41410  0.54120  Biso   1.000  C
  C93      1.0000 0.31430  0.40340  0.50260  Biso   1.000  C
  H48      1.0000 0.30570  0.42890  0.44290  Biso   1.000  H
  C94      1.0000 0.36090  0.35430  0.55290  Biso   1.000  C
  H49      1.0000 0.38340  0.34490  0.52630  Biso   1.000  H
  C95      1.0000 0.37430  0.31920  0.64180  Biso   1.000  C
  C96      1.0000 0.33960  0.33030  0.68000  Biso   1.000  C
  H50      1.0000 0.34810  0.30520  0.73980  Biso   1.000  H
  C97      1.0000 0.29310  0.37770  0.63050  Biso   1.000  C
  H51      1.0000 0.27010  0.38540  0.65630  Biso   1.000  H
  C98      1.0000 0.42446  0.26470  0.69490  Biso   1.000  C
  C99      1.0000 0.28060  0.84630  0.72390  Biso   1.000  C
  C100     1.0000 0.30000  0.72540  0.77530  Biso   1.000  C
  H52      1.0000 0.28020  0.64620  0.77390  Biso   1.000  H
  C101     1.0000 0.34880  0.72290  0.82870  Biso   1.000  C
  H53      1.0000 0.36220  0.64080  0.86320  Biso   1.000  H
  C102     1.0000 0.37840  0.84040  0.83210  Biso   1.000  C
  C103     1.0000 0.35840  0.95830  0.77930  Biso   1.000  C
  H54      1.0000 0.37820  0.03710  0.78030  Biso   1.000  H
  C104     1.0000 0.30950  0.96340  0.72450  Biso   1.000  C
  H55      1.0000 0.29640  0.04440  0.68880  Biso   1.000  H
  C105     1.0000 0.43070  0.84400  0.89760  Biso   1.000  C
  O33      1.0000 0.06062  0.50940  0.44130  Biso   1.000  O
  O34      1.0000 0.05761  0.69520  0.52660  Biso   1.000  O
  O35      1.0000 0.23423  0.45770  0.48620  Biso   1.000  O
  O36      1.0000 0.23056  0.85970  0.67280  Biso   1.000  O
  O37      1.0000 0.45453  0.26310  0.65750  Biso   1.000  O
  O38      1.0000 0.43387  0.22380  0.77350  Biso   1.000  O
  O39      1.0000 0.44471  0.75190  0.95860  Biso   1.000  O
  O40      1.0000 0.45730  0.94560  0.89130  Biso   1.000  O
  Dy6      1.0000 0.00280  0.66237  0.59618  Biso   1.000  Dy
  C106     1.0000 0.57970  0.11100  0.49380  Biso   1.000  C
  C107     1.0000 0.63390  0.13380  0.52110  Biso   1.000  C
  C108     1.0000 0.65960  0.03810  0.48950  Biso   1.000  C
  H56      1.0000 0.64350  0.96590  0.44860  Biso   1.000  H
  C109     1.0000 0.70990  0.05230  0.52010  Biso   1.000  C
  C110     1.0000 0.73430  0.16110  0.57880  Biso   1.000  C
  H57      1.0000 0.76780  0.17300  0.59620  Biso   1.000  H
  C111     1.0000 0.70802  0.25250  0.61140  Biso   1.000  C
  C112     1.0000 0.65800  0.24080  0.58200  Biso   1.000  C
  H58      1.0000 0.64060  0.30470  0.60300  Biso   1.000  H
  C113     1.0000 0.78080  0.91410  0.54120  Biso   1.000  C
  C114     1.0000 0.81430  0.90340  0.50260  Biso   1.000  C
  H59      1.0000 0.80570  0.92890  0.44290  Biso   1.000  H
  C115     1.0000 0.86090  0.85430  0.55290  Biso   1.000  C
  H60      1.0000 0.88340  0.84490  0.52630  Biso   1.000  H
  C116     1.0000 0.87430  0.81920  0.64180  Biso   1.000  C
  C117     1.0000 0.83960  0.83030  0.68000  Biso   1.000  C
  H61      1.0000 0.84810  0.80520  0.73980  Biso   1.000  H
  C118     1.0000 0.79310  0.87770  0.63050  Biso   1.000  C
  H62      1.0000 0.77010  0.88540  0.65630  Biso   1.000  H
  C119     1.0000 0.92446  0.76470  0.69490  Biso   1.000  C
  C120     1.0000 0.78060  0.34630  0.72390  Biso   1.000  C
  C121     1.0000 0.80000  0.22540  0.77530  Biso   1.000  C
  H63      1.0000 0.78020  0.14620  0.77390  Biso   1.000  H
  C122     1.0000 0.84880  0.22290  0.82870  Biso   1.000  C
  H64      1.0000 0.86220  0.14080  0.86320  Biso   1.000  H
  C123     1.0000 0.87840  0.34040  0.83210  Biso   1.000  C
  C124     1.0000 0.85840  0.45830  0.77930  Biso   1.000  C
  H65      1.0000 0.87820  0.53710  0.78030  Biso   1.000  H
  C125     1.0000 0.80950  0.46340  0.72450  Biso   1.000  C
  H66      1.0000 0.79640  0.54440  0.68880  Biso   1.000  H
  C126     1.0000 0.93070  0.34400  0.89760  Biso   1.000  C
  O41      1.0000 0.56062  0.00940  0.44130  Biso   1.000  O
  O42      1.0000 0.55761  0.19520  0.52660  Biso   1.000  O
  O43      1.0000 0.73423  0.95770  0.48620  Biso   1.000  O
  O44      1.0000 0.73056  0.35970  0.67280  Biso   1.000  O
  O45      1.0000 0.95453  0.76310  0.65750  Biso   1.000  O
  O46      1.0000 0.93387  0.72380  0.77350  Biso   1.000  O
  O47      1.0000 0.94471  0.25190  0.95860  Biso   1.000  O
  O48      1.0000 0.95730  0.44560  0.89130  Biso   1.000  O
  Dy7      1.0000 0.49720  0.16237  0.90382  Biso   1.000  Dy
  C127     1.0000 0.92030  0.61100  0.00620  Biso   1.000  C
  C128     1.0000 0.86610  0.63380  0.97890  Biso   1.000  C
  C129     1.0000 0.84040  0.53810  0.01050  Biso   1.000  C
  H67      1.0000 0.85650  0.46590  0.05140  Biso   1.000  H
  C130     1.0000 0.79010  0.55230  0.97990  Biso   1.000  C
  C131     1.0000 0.76570  0.66110  0.92120  Biso   1.000  C
  H68      1.0000 0.73220  0.67300  0.90380  Biso   1.000  H
  C132     1.0000 0.79198  0.75250  0.88860  Biso   1.000  C
  C133     1.0000 0.84200  0.74080  0.91800  Biso   1.000  C
  H69      1.0000 0.85940  0.80470  0.89700  Biso   1.000  H
  C134     1.0000 0.71920  0.41410  0.95880  Biso   1.000  C
  C135     1.0000 0.68570  0.40340  0.99740  Biso   1.000  C
  H70      1.0000 0.69430  0.42890  0.05710  Biso   1.000  H
  C136     1.0000 0.63910  0.35430  0.94710  Biso   1.000  C
  H71      1.0000 0.61660  0.34490  0.97370  Biso   1.000  H
  C137     1.0000 0.62570  0.31920  0.85820  Biso   1.000  C
  C138     1.0000 0.66040  0.33030  0.82000  Biso   1.000  C
  H72      1.0000 0.65190  0.30520  0.76020  Biso   1.000  H
  C139     1.0000 0.70690  0.37770  0.86950  Biso   1.000  C
  H73      1.0000 0.72990  0.38540  0.84370  Biso   1.000  H
  C140     1.0000 0.57554  0.26470  0.80510  Biso   1.000  C
  C141     1.0000 0.71940  0.84630  0.77610  Biso   1.000  C
  C142     1.0000 0.70000  0.72540  0.72470  Biso   1.000  C
  H74      1.0000 0.71980  0.64620  0.72610  Biso   1.000  H
  C143     1.0000 0.65120  0.72290  0.67130  Biso   1.000  C
  H75      1.0000 0.63780  0.64080  0.63680  Biso   1.000  H
  C144     1.0000 0.62160  0.84040  0.66790  Biso   1.000  C
  C145     1.0000 0.64160  0.95830  0.72070  Biso   1.000  C
  H76      1.0000 0.62180  0.03710  0.71970  Biso   1.000  H
  C146     1.0000 0.69050  0.96340  0.77550  Biso   1.000  C
  H77      1.0000 0.70360  0.04440  0.81120  Biso   1.000  H
  C147     1.0000 0.56930  0.84400  0.60240  Biso   1.000  C
  O49      1.0000 0.93938  0.50940  0.05870  Biso   1.000  O
  O50      1.0000 0.94239  0.69520  0.97340  Biso   1.000  O
  O51      1.0000 0.76577  0.45770  0.01380  Biso   1.000  O
  O52      1.0000 0.76944  0.85970  0.82720  Biso   1.000  O
  O53      1.0000 0.54547  0.26310  0.84250  Biso   1.000  O
  O54      1.0000 0.56613  0.22380  0.72650  Biso   1.000  O
  O55      1.0000 0.55529  0.75190  0.54140  Biso   1.000  O
  O56      1.0000 0.54270  0.94560  0.60870  Biso   1.000  O
  Dy8      1.0000 0.99720  0.66237  0.90382  Biso   1.000  Dy
  C148     1.0000 0.42030  0.11100  0.00620  Biso   1.000  C
  C149     1.0000 0.36610  0.13380  0.97890  Biso   1.000  C
  C150     1.0000 0.34040  0.03810  0.01050  Biso   1.000  C
  H78      1.0000 0.35650  0.96590  0.05140  Biso   1.000  H
  C151     1.0000 0.29010  0.05230  0.97990  Biso   1.000  C
  C152     1.0000 0.26570  0.16110  0.92120  Biso   1.000  C
  H79      1.0000 0.23220  0.17300  0.90380  Biso   1.000  H
  C153     1.0000 0.29198  0.25250  0.88860  Biso   1.000  C
  C154     1.0000 0.34200  0.24080  0.91800  Biso   1.000  C
  H80      1.0000 0.35940  0.30470  0.89700  Biso   1.000  H
  C155     1.0000 0.21920  0.91410  0.95880  Biso   1.000  C
  C156     1.0000 0.18570  0.90340  0.99740  Biso   1.000  C
  H81      1.0000 0.19430  0.92890  0.05710  Biso   1.000  H
  C157     1.0000 0.13910  0.85430  0.94710  Biso   1.000  C
  H82      1.0000 0.11660  0.84490  0.97370  Biso   1.000  H
  C158     1.0000 0.12570  0.81920  0.85820  Biso   1.000  C
  C159     1.0000 0.16040  0.83030  0.82000  Biso   1.000  C
  H83      1.0000 0.15190  0.80520  0.76020  Biso   1.000  H
  C160     1.0000 0.20690  0.87770  0.86950  Biso   1.000  C
  H84      1.0000 0.22990  0.88540  0.84370  Biso   1.000  H
  C161     1.0000 0.07554  0.76470  0.80510  Biso   1.000  C
  C162     1.0000 0.21940  0.34630  0.77610  Biso   1.000  C
  C163     1.0000 0.20000  0.22540  0.72470  Biso   1.000  C
  H85      1.0000 0.21980  0.14620  0.72610  Biso   1.000  H
  C164     1.0000 0.15120  0.22290  0.67130  Biso   1.000  C
  H86      1.0000 0.13780  0.14080  0.63680  Biso   1.000  H
  C165     1.0000 0.12160  0.34040  0.66790  Biso   1.000  C
  C166     1.0000 0.14160  0.45830  0.72070  Biso   1.000  C
  H87      1.0000 0.12180  0.53710  0.71970  Biso   1.000  H
  C167     1.0000 0.19050  0.46340  0.77550  Biso   1.000  C
  H88      1.0000 0.20360  0.54440  0.81120  Biso   1.000  H
  C168     1.0000 0.06930  0.34400  0.60240  Biso   1.000  C
  O57      1.0000 0.43938  0.00940  0.05870  Biso   1.000  O
  O58      1.0000 0.44239  0.19520  0.97340  Biso   1.000  O
  O59      1.0000 0.26577  0.95770  0.01380  Biso   1.000  O
  O60      1.0000 0.26944  0.35970  0.82720  Biso   1.000  O
  O61      1.0000 0.04547  0.76310  0.84250  Biso   1.000  O
  O62      1.0000 0.06613  0.72380  0.72650  Biso   1.000  O
  O63      1.0000 0.05529  0.25190  0.54140  Biso   1.000  O
  O64      1.0000 0.04270  0.44560  0.60870  Biso   1.000  O
