data_image0
_cell_length_a       9.1741
_cell_length_b       9.3387
_cell_length_c       17.7642
_cell_angle_alpha    83.75
_cell_angle_beta     72.724
_cell_angle_gamma    86.44

_symmetry_space_group_name_H-M    "P 1"
_symmetry_int_tables_number       1

loop_
  _symmetry_equiv_pos_as_xyz
  'x, y, z'

loop_
  _atom_site_label
  _atom_site_occupancy
  _atom_site_fract_x
  _atom_site_fract_y
  _atom_site_fract_z
  _atom_site_thermal_displace_type
  _atom_site_B_iso_or_equiv
  _atom_site_type_symbol
  C1       1.0000 0.66950  0.20540  0.82640  Biso   1.000  C
  C2       1.0000 0.56590  0.23710  0.91670  Biso   1.000  C
  H1       1.0000 0.52200  0.14900  0.94670  Biso   1.000  H
  H2       1.0000 0.62760  0.27740  0.94460  Biso   1.000  H
  C3       1.0000 0.34020  0.36590  0.98720  Biso   1.000  C
  H3       1.0000 0.28640  0.27950  0.01320  Biso   1.000  H
  H4       1.0000 0.39580  0.39750  0.02080  Biso   1.000  H
  C4       1.0000 0.22980  0.48360  0.97000  Biso   1.000  C
  C5       1.0000 0.71180  0.69980  0.77030  Biso   1.000  C
  C6       1.0000 0.61100  0.81100  0.73660  Biso   1.000  C
  H5       1.0000 0.58320  0.89050  0.76950  Biso   1.000  H
  H6       1.0000 0.66760  0.84890  0.68360  Biso   1.000  H
  C7       1.0000 0.39540  0.83800  0.68380  Biso   1.000  C
  H7       1.0000 0.46580  0.86400  0.63200  Biso   1.000  H
  H8       1.0000 0.35580  0.92590  0.70820  Biso   1.000  H
  C8       1.0000 0.26500  0.75470  0.67530  Biso   1.000  C
  C9       1.0000 0.24360  0.23270  0.70450  Biso   1.000  C
  C10      1.0000 0.37190  0.23710  0.61850  Biso   1.000  C
  H9       1.0000 0.42650  0.14490  0.61140  Biso   1.000  H
  H10      1.0000 0.32480  0.25970  0.57630  Biso   1.000  H
  C11      1.0000 0.60230  0.35450  0.54240  Biso   1.000  C
  H11      1.0000 0.66150  0.26450  0.53730  Biso   1.000  H
  H12      1.0000 0.56420  0.37520  0.49680  Biso   1.000  H
  C12      1.0000 0.69780  0.47490  0.54870  Biso   1.000  C
  C13      1.0000 0.15710  0.89830  0.88470  Biso   1.000  C
  N1       1.0000 0.06500  0.85050  0.86220  Biso   1.000  N
  O1       1.0000 0.63820  0.26780  0.75840  Biso   1.000  O
  O2       1.0000 0.44930  0.33770  0.90554  Biso   1.000  O
  O3       1.0000 0.24410  0.52820  0.89058  Biso   1.000  O
  O4       1.0000 0.78020  0.12260  0.82550  Biso   1.000  O
  O5       1.0000 0.13380  0.52410  0.03665  Biso   1.000  O
  O6       1.0000 0.65830  0.57710  0.80007  Biso   1.000  O
  O7       1.0000 0.47730  0.74640  0.73407  Biso   1.000  O
  O8       1.0000 0.25710  0.62270  0.70251  Biso   1.000  O
  O9       1.0000 0.84250  0.73530  0.76450  Biso   1.000  O
  O10      1.0000 0.17310  0.82330  0.64066  Biso   1.000  O
  O11      1.0000 0.25790  0.30410  0.76460  Biso   1.000  O
  O12      1.0000 0.47180  0.34590  0.61825  Biso   1.000  O
  O13      1.0000 0.65370  0.54200  0.61701  Biso   1.000  O
  O14      1.0000 0.13300  0.15990  0.71060  Biso   1.000  O
  O15      1.0000 0.81320  0.50170  0.48482  Biso   1.000  O
  S1       1.0000 0.28425  0.96940  0.91944  Biso   1.000  S
  Pr1      1.0000 0.45383  0.47322  0.75633  Biso   1.000  Pr
  Na1      1.0000 0.02091  0.60233  0.83614  Biso   1.000  Na
  Na2      1.0000 0.96443  0.97032  0.73585  Biso   1.000  Na
  Na3      1.0000 0.02948  0.62731  0.62484  Biso   1.000  Na
  C14      1.0000 0.33050  0.79460  0.17360  Biso   1.000  C
  C15      1.0000 0.43410  0.76290  0.08330  Biso   1.000  C
  H13      1.0000 0.47800  0.85100  0.05330  Biso   1.000  H
  H14      1.0000 0.37240  0.72260  0.05540  Biso   1.000  H
  C16      1.0000 0.65980  0.63410  0.01280  Biso   1.000  C
  H15      1.0000 0.71360  0.72050  0.98680  Biso   1.000  H
  H16      1.0000 0.60420  0.60250  0.97920  Biso   1.000  H
  C17      1.0000 0.77020  0.51640  0.03000  Biso   1.000  C
  C18      1.0000 0.28820  0.30020  0.22970  Biso   1.000  C
  C19      1.0000 0.38900  0.18900  0.26340  Biso   1.000  C
  H17      1.0000 0.41680  0.10950  0.23050  Biso   1.000  H
  H18      1.0000 0.33240  0.15110  0.31640  Biso   1.000  H
  C20      1.0000 0.60460  0.16200  0.31620  Biso   1.000  C
  H19      1.0000 0.53420  0.13600  0.36800  Biso   1.000  H
  H20      1.0000 0.64420  0.07410  0.29180  Biso   1.000  H
  C21      1.0000 0.73500  0.24530  0.32470  Biso   1.000  C
  C22      1.0000 0.75640  0.76730  0.29550  Biso   1.000  C
  C23      1.0000 0.62810  0.76290  0.38150  Biso   1.000  C
  H21      1.0000 0.57350  0.85510  0.38860  Biso   1.000  H
  H22      1.0000 0.67520  0.74030  0.42370  Biso   1.000  H
  C24      1.0000 0.39770  0.64550  0.45760  Biso   1.000  C
  H23      1.0000 0.33850  0.73550  0.46270  Biso   1.000  H
  H24      1.0000 0.43580  0.62480  0.50320  Biso   1.000  H
  C25      1.0000 0.30220  0.52510  0.45130  Biso   1.000  C
  C26      1.0000 0.84290  0.10170  0.11530  Biso   1.000  C
  N2       1.0000 0.93500  0.14950  0.13780  Biso   1.000  N
  O16      1.0000 0.36180  0.73220  0.24160  Biso   1.000  O
  O17      1.0000 0.55070  0.66230  0.09446  Biso   1.000  O
  O18      1.0000 0.75590  0.47180  0.10942  Biso   1.000  O
  O19      1.0000 0.21980  0.87740  0.17450  Biso   1.000  O
  O20      1.0000 0.86620  0.47590  0.96335  Biso   1.000  O
  O21      1.0000 0.34170  0.42290  0.19993  Biso   1.000  O
  O22      1.0000 0.52270  0.25360  0.26593  Biso   1.000  O
  O23      1.0000 0.74290  0.37730  0.29749  Biso   1.000  O
  O24      1.0000 0.15750  0.26470  0.23550  Biso   1.000  O
  O25      1.0000 0.82690  0.17670  0.35934  Biso   1.000  O
  O26      1.0000 0.74210  0.69590  0.23540  Biso   1.000  O
  O27      1.0000 0.52820  0.65410  0.38175  Biso   1.000  O
  O28      1.0000 0.34630  0.45800  0.38299  Biso   1.000  O
  O29      1.0000 0.86700  0.84010  0.28940  Biso   1.000  O
  O30      1.0000 0.18680  0.49830  0.51518  Biso   1.000  O
  S2       1.0000 0.71575  0.03060  0.08056  Biso   1.000  S
  Pr2      1.0000 0.54617  0.52678  0.24367  Biso   1.000  Pr
  Na4      1.0000 0.97909  0.39767  0.16386  Biso   1.000  Na
  Na5      1.0000 0.03557  0.02968  0.26415  Biso   1.000  Na
  Na6      1.0000 0.97052  0.37269  0.37516  Biso   1.000  Na
