data_image0
_cell_length_a       17.2471
_cell_length_b       18.932
_cell_length_c       21.34
_cell_angle_alpha    88.588
_cell_angle_beta     73.431
_cell_angle_gamma    66.759

_symmetry_space_group_name_H-M    "P 1"
_symmetry_int_tables_number       1

loop_
  _symmetry_equiv_pos_as_xyz
  'x, y, z'

loop_
  _atom_site_label
  _atom_site_occupancy
  _atom_site_fract_x
  _atom_site_fract_y
  _atom_site_fract_z
  _atom_site_thermal_displace_type
  _atom_site_B_iso_or_equiv
  _atom_site_type_symbol
  O1       1.0000 0.45150  0.91430  0.52240  Biso   1.000  O
  O2       1.0000 0.50990  0.98710  0.40280  Biso   1.000  O
  O3       1.0000 0.37210  0.07970  0.52620  Biso   1.000  O
  C1       1.0000 0.40150  0.88730  0.50780  Biso   1.000  C
  Zn1      1.0000 0.41288  0.96403  0.39277  Biso   1.000  Zn
  N1       1.0000 0.54450  0.01770  0.35260  Biso   1.000  N
  C2       1.0000 0.37120  0.83490  0.55380  Biso   1.000  C
  O4       1.0000 0.37970  0.89850  0.45410  Biso   1.000  O
  N2       1.0000 0.33920  0.97680  0.33270  Biso   1.000  N
  O5       1.0000 0.31150  0.05990  0.44960  Biso   1.000  O
  O6       1.0000 0.51270  0.03170  0.30330  Biso   1.000  O
  O7       1.0000 0.59490  0.05160  0.35840  Biso   1.000  O
  C3       1.0000 0.31860  0.80240  0.53770  Biso   1.000  C
  C4       1.0000 0.39970  0.81610  0.60880  Biso   1.000  C
  C5       1.0000 0.29940  0.74920  0.57840  Biso   1.000  C
  H1       1.0000 0.29790  0.81650  0.50120  Biso   1.000  H
  C6       1.0000 0.37280  0.76610  0.64970  Biso   1.000  C
  H2       1.0000 0.43550  0.83800  0.61790  Biso   1.000  H
  C7       1.0000 0.32060  0.73130  0.63630  Biso   1.000  C
  H3       1.0000 0.26970  0.72330  0.56600  Biso   1.000  H
  H4       1.0000 0.39180  0.75420  0.68690  Biso   1.000  H
  C8       1.0000 0.29910  0.67410  0.67060  Biso   1.000  C
  C9       1.0000 0.28430  0.62000  0.69840  Biso   1.000  C
  C10      1.0000 0.26820  0.55920  0.72510  Biso   1.000  C
  C11      1.0000 0.26970  0.54010  0.78840  Biso   1.000  C
  C12      1.0000 0.24320  0.51590  0.68820  Biso   1.000  C
  C13      1.0000 0.28620  0.58270  0.83790  Biso   1.000  C
  C14      1.0000 0.24290  0.48260  0.81510  Biso   1.000  C
  C15      1.0000 0.24430  0.52370  0.61590  Biso   1.000  C
  C16      1.0000 0.21950  0.45670  0.71410  Biso   1.000  C
  C17      1.0000 0.35930  0.52110  0.85780  Biso   1.000  C
  C18      1.0000 0.20450  0.61030  0.89630  Biso   1.000  C
  H5       1.0000 0.30180  0.62510  0.81920  Biso   1.000  H
  C19      1.0000 0.24400  0.47390  0.88820  Biso   1.000  C
  C20      1.0000 0.21840  0.43880  0.77810  Biso   1.000  C
  C21      1.0000 0.30780  0.44240  0.58130  Biso   1.000  C
  C22      1.0000 0.15590  0.53110  0.61250  Biso   1.000  C
  H6       1.0000 0.26060  0.56610  0.59820  Biso   1.000  H
  C23      1.0000 0.19970  0.41250  0.66580  Biso   1.000  C
  C24      1.0000 0.33950  0.45940  0.88450  Biso   1.000  C
  C25      1.0000 0.44330  0.51950  0.85120  Biso   1.000  C
  C26      1.0000 0.18430  0.54960  0.92410  Biso   1.000  C
  C27      1.0000 0.15520  0.68540  0.92640  Biso   1.000  C
  H7       1.0000 0.22900  0.43110  0.90680  Biso   1.000  H
  C28      1.0000 0.20090  0.37560  0.80340  Biso   1.000  C
  C29      1.0000 0.28370  0.38340  0.60770  Biso   1.000  C
  C30      1.0000 0.38350  0.42410  0.52700  Biso   1.000  C
  C31      1.0000 0.13320  0.47210  0.64070  Biso   1.000  C
  C32      1.0000 0.10030  0.59260  0.58690  Biso   1.000  C
  H8       1.0000 0.18220  0.37130  0.68470  Biso   1.000  H
  C33      1.0000 0.39580  0.39810  0.90920  Biso   1.000  C
  C34      1.0000 0.49800  0.45880  0.87750  Biso   1.000  C
  H9       1.0000 0.45960  0.55840  0.83220  Biso   1.000  H
  C35      1.0000 0.10930  0.56510  0.97840  Biso   1.000  C
  C36      1.0000 0.07660  0.70510  0.97780  Biso   1.000  C
  H10      1.0000 0.17140  0.72480  0.90850  Biso   1.000  H
  C37      1.0000 0.18450  0.32140  0.82580  Biso   1.000  C
  C38      1.0000 0.33760  0.30700  0.58270  Biso   1.000  C
  C39      1.0000 0.43510  0.34700  0.50250  Biso   1.000  C
  H11      1.0000 0.40160  0.46260  0.50940  Biso   1.000  H
  C40      1.0000 0.05220  0.47090  0.64140  Biso   1.000  C
  C41      1.0000 0.02050  0.59200  0.58450  Biso   1.000  C
  H12      1.0000 0.11740  0.63150  0.56850  Biso   1.000  H
  C42      1.0000 0.47680  0.39980  0.90840  Biso   1.000  C
  H13      1.0000 0.38190  0.35660  0.92390  Biso   1.000  H
  H14      1.0000 0.55400  0.45700  0.87360  Biso   1.000  H
  C43      1.0000 0.05730  0.64280  0.00220  Biso   1.000  C
  H15      1.0000 0.09580  0.52510  0.99740  Biso   1.000  H
  H16      1.0000 0.04080  0.75580  0.99590  Biso   1.000  H
  C44      1.0000 0.15720  0.26470  0.85320  Biso   1.000  C
  C45      1.0000 0.41000  0.28820  0.52720  Biso   1.000  C
  H17      1.0000 0.32300  0.26740  0.60260  Biso   1.000  H
  H18      1.0000 0.48650  0.33390  0.46710  Biso   1.000  H
  C46      1.0000 0.00080  0.53180  0.61340  Biso   1.000  C
  H19      1.0000 0.03460  0.43240  0.66030  Biso   1.000  H
  H20      1.0000 0.98210  0.63060  0.56660  Biso   1.000  H
  H21      1.0000 0.51380  0.36280  0.92830  Biso   1.000  H
  H22      1.0000 0.00730  0.65360  0.03810  Biso   1.000  H
  C47      1.0000 0.11430  0.23380  0.82160  Biso   1.000  C
  C48      1.0000 0.17730  0.23330  0.90930  Biso   1.000  C
  H23      1.0000 0.44390  0.23710  0.50850  Biso   1.000  H
  H24      1.0000 0.94800  0.53080  0.61160  Biso   1.000  H
  C49      1.0000 0.08970  0.17560  0.85080  Biso   1.000  C
  H25      1.0000 0.10290  0.25170  0.78280  Biso   1.000  H
  C50      1.0000 0.14530  0.17990  0.93930  Biso   1.000  C
  H26      1.0000 0.21170  0.24810  0.92790  Biso   1.000  H
  C51      1.0000 0.09910  0.15060  0.91070  Biso   1.000  C
  H27      1.0000 0.06410  0.15360  0.82840  Biso   1.000  H
  H28      1.0000 0.15530  0.16250  0.97880  Biso   1.000  H
  C52      1.0000 0.06080  0.09510  0.94370  Biso   1.000  C
  O8       1.0000 0.03490  0.06450  0.90880  Biso   1.000  O
  O9       1.0000 0.05590  0.09110  0.00060  Biso   1.000  O
  Zn2      1.0000 0.98277  0.98473  0.94109  Biso   1.000  Zn
  N3       1.0000 0.92780  0.97680  0.87150  Biso   1.000  N
  O10      1.0000 0.10900  0.90440  0.91170  Biso   1.000  O
  O11      1.0000 0.86500  0.07330  0.99950  Biso   1.000  O
  C53      1.0000 0.92900  0.02340  0.82040  Biso   1.000  C
  C54      1.0000 0.87710  0.93380  0.88080  Biso   1.000  C
  C55      1.0000 0.15620  0.89250  0.94820  Biso   1.000  C
  C56      1.0000 0.88060  0.03180  0.77640  Biso   1.000  C
  H29      1.0000 0.96430  0.05110  0.81570  Biso   1.000  H
  C57      1.0000 0.82580  0.94370  0.83750  Biso   1.000  C
  H30      1.0000 0.87660  0.89990  0.91340  Biso   1.000  H
  C58      1.0000 0.25280  0.83910  0.92100  Biso   1.000  C
  C59      1.0000 0.82840  0.98940  0.78540  Biso   1.000  C
  H31      1.0000 0.88360  0.06450  0.74300  Biso   1.000  H
  H32      1.0000 0.78800  0.91810  0.84400  Biso   1.000  H
  C60      1.0000 0.30730  0.82660  0.96130  Biso   1.000  C
  C61      1.0000 0.28360  0.79950  0.85810  Biso   1.000  C
  C62      1.0000 0.77400  0.99940  0.74360  Biso   1.000  C
  C63      1.0000 0.39630  0.77330  0.93830  Biso   1.000  C
  H33      1.0000 0.28600  0.85720  0.00160  Biso   1.000  H
  C64      1.0000 0.37200  0.74680  0.83620  Biso   1.000  C
  H34      1.0000 0.24720  0.81000  0.83080  Biso   1.000  H
  C65      1.0000 0.80330  0.00540  0.67700  Biso   1.000  C
  C66      1.0000 0.68600  0.00720  0.77040  Biso   1.000  C
  C67      1.0000 0.42780  0.73490  0.87520  Biso   1.000  C
  H35      1.0000 0.43360  0.76240  0.96510  Biso   1.000  H
  H36      1.0000 0.39330  0.71810  0.79550  Biso   1.000  H
  C68      1.0000 0.74700  0.01680  0.63830  Biso   1.000  C
  H37      1.0000 0.86050  0.00310  0.65840  Biso   1.000  H
  C69      1.0000 0.62750  0.01740  0.73400  Biso   1.000  C
  H38      1.0000 0.66560  0.00470  0.81560  Biso   1.000  H
  C70      1.0000 0.51460  0.67750  0.85070  Biso   1.000  C
  H39      1.0000 0.76710  0.02010  0.59290  Biso   1.000  H
  H40      1.0000 0.57060  0.01870  0.75170  Biso   1.000  H
  C71      1.0000 0.58690  0.62260  0.82210  Biso   1.000  C
  C72      1.0000 0.66530  0.55970  0.78850  Biso   1.000  C
  C73      1.0000 0.68330  0.54610  0.72060  Biso   1.000  C
  C74      1.0000 0.73160  0.51600  0.81600  Biso   1.000  C
  C75      1.0000 0.62000  0.58820  0.67940  Biso   1.000  C
  C76      1.0000 0.75990  0.48560  0.68260  Biso   1.000  C
  C77      1.0000 0.72650  0.52600  0.88710  Biso   1.000  C
  C78      1.0000 0.81000  0.45700  0.77730  Biso   1.000  C
  C79      1.0000 0.60700  0.53160  0.64500  Biso   1.000  C
  C80      1.0000 0.67470  0.62080  0.62690  Biso   1.000  C
  H41      1.0000 0.56420  0.62940  0.70580  Biso   1.000  H
  C81      1.0000 0.76470  0.48290  0.61120  Biso   1.000  C
  C82      1.0000 0.82530  0.44050  0.71060  Biso   1.000  C
  C83      1.0000 0.74200  0.44000  0.90790  Biso   1.000  C
  C84      1.0000 0.80750  0.53640  0.88840  Biso   1.000  C
  H42      1.0000 0.67180  0.56630  0.91440  Biso   1.000  H
  C85      1.0000 0.87210  0.41240  0.81620  Biso   1.000  C
  C86      1.0000 0.68330  0.46950  0.60840  Biso   1.000  C
  C87      1.0000 0.52510  0.53110  0.64720  Biso   1.000  C
  C88      1.0000 0.75260  0.56040  0.59120  Biso   1.000  C
  C89      1.0000 0.65200  0.69960  0.62060  Biso   1.000  C
  H43      1.0000 0.82030  0.44170  0.58450  Biso   1.000  H
  C90      1.0000 0.90530  0.37900  0.67110  Biso   1.000  C
  C91      1.0000 0.81960  0.38170  0.86860  Biso   1.000  C
  C92      1.0000 0.68390  0.42280  0.96030  Biso   1.000  C
  C93      1.0000 0.88530  0.47570  0.85140  Biso   1.000  C
  C94      1.0000 0.81250  0.59870  0.91840  Biso   1.000  C
  H44      1.0000 0.92810  0.37170  0.78930  Biso   1.000  H
  C95      1.0000 0.68060  0.41040  0.57230  Biso   1.000  C
  C96      1.0000 0.52320  0.47090  0.61220  Biso   1.000  C
  H45      1.0000 0.47260  0.57080  0.67190  Biso   1.000  H
  C97      1.0000 0.80580  0.58580  0.54220  Biso   1.000  C
  C98      1.0000 0.71160  0.72030  0.57240  Biso   1.000  C
  H46      1.0000 0.59870  0.73680  0.64630  Biso   1.000  H
  C99      1.0000 0.96930  0.32640  0.64160  Biso   1.000  C
  C100     1.0000 0.84050  0.30450  0.87940  Biso   1.000  C
  C101     1.0000 0.70610  0.34590  0.97290  Biso   1.000  C
  H47      1.0000 0.63360  0.46140  0.98720  Biso   1.000  H
  C102     1.0000 0.96720  0.47750  0.84660  Biso   1.000  C
  C103     1.0000 0.89420  0.60000  0.91480  Biso   1.000  C
  H48      1.0000 0.76000  0.63760  0.94440  Biso   1.000  H
  C104     1.0000 0.59890  0.40990  0.57390  Biso   1.000  C
  H49      1.0000 0.73290  0.37170  0.54610  Biso   1.000  H
  H50      1.0000 0.46850  0.47190  0.61300  Biso   1.000  H
  C105     1.0000 0.78900  0.66330  0.53150  Biso   1.000  C
  H51      1.0000 0.85860  0.54780  0.51610  Biso   1.000  H
  H52      1.0000 0.69940  0.77200  0.56710  Biso   1.000  H
  C106     1.0000 0.05040  0.26760  0.60650  Biso   1.000  C
  C107     1.0000 0.78250  0.28810  0.93260  Biso   1.000  C
  H53      1.0000 0.89200  0.26560  0.85290  Biso   1.000  H
  H54      1.0000 0.66870  0.33390  0.00800  Biso   1.000  H
  C108     1.0000 0.97150  0.53770  0.88000  Biso   1.000  C
  H55      1.0000 0.01860  0.43870  0.82110  Biso   1.000  H
  H56      1.0000 0.89580  0.64150  0.93620  Biso   1.000  H
  H57      1.0000 0.59580  0.37000  0.55140  Biso   1.000  H
  H58      1.0000 0.82630  0.67710  0.49800  Biso   1.000  H
  C109     1.0000 0.12050  0.24300  0.63310  Biso   1.000  C
  C110     1.0000 0.06600  0.23150  0.54540  Biso   1.000  C
  H59      1.0000 0.79350  0.23700  0.94070  Biso   1.000  H
  H60      1.0000 0.02590  0.53810  0.87830  Biso   1.000  H
  C111     1.0000 0.20440  0.18750  0.59860  Biso   1.000  C
  H61      1.0000 0.11120  0.26440  0.67490  Biso   1.000  H
  C112     1.0000 0.14800  0.17380  0.51210  Biso   1.000  C
  H62      1.0000 0.02050  0.24800  0.52620  Biso   1.000  H
  C113     1.0000 0.21910  0.15090  0.53800  Biso   1.000  C
  H63      1.0000 0.25190  0.17510  0.61570  Biso   1.000  H
  H64      1.0000 0.15580  0.14840  0.47230  Biso   1.000  H
  C114     1.0000 0.31040  0.09440  0.49890  Biso   1.000  C
  O12      1.0000 0.54850  0.08570  0.47760  Biso   1.000  O
  O13      1.0000 0.49010  0.01290  0.59720  Biso   1.000  O
  O14      1.0000 0.62790  0.92030  0.47380  Biso   1.000  O
  C115     1.0000 0.59850  0.11270  0.49220  Biso   1.000  C
  Zn3      1.0000 0.58712  0.03597  0.60723  Biso   1.000  Zn
  N4       1.0000 0.45550  0.98230  0.64740  Biso   1.000  N
  C116     1.0000 0.62880  0.16510  0.44620  Biso   1.000  C
  O15      1.0000 0.62030  0.10150  0.54590  Biso   1.000  O
  N5       1.0000 0.66080  0.02320  0.66730  Biso   1.000  N
  O16      1.0000 0.68850  0.94010  0.55040  Biso   1.000  O
  O17      1.0000 0.48730  0.96830  0.69670  Biso   1.000  O
  O18      1.0000 0.40510  0.94840  0.64160  Biso   1.000  O
  C117     1.0000 0.68140  0.19760  0.46230  Biso   1.000  C
  C118     1.0000 0.60030  0.18390  0.39120  Biso   1.000  C
  C119     1.0000 0.70060  0.25080  0.42160  Biso   1.000  C
  H65      1.0000 0.70210  0.18350  0.49880  Biso   1.000  H
  C120     1.0000 0.62720  0.23390  0.35030  Biso   1.000  C
  H66      1.0000 0.56450  0.16200  0.38210  Biso   1.000  H
  C121     1.0000 0.67940  0.26870  0.36370  Biso   1.000  C
  H67      1.0000 0.73030  0.27670  0.43400  Biso   1.000  H
  H68      1.0000 0.60820  0.24580  0.31310  Biso   1.000  H
  C122     1.0000 0.70090  0.32590  0.32940  Biso   1.000  C
  C123     1.0000 0.71570  0.38000  0.30160  Biso   1.000  C
  C124     1.0000 0.73180  0.44080  0.27490  Biso   1.000  C
  C125     1.0000 0.73030  0.45990  0.21160  Biso   1.000  C
  C126     1.0000 0.75680  0.48410  0.31180  Biso   1.000  C
  C127     1.0000 0.71380  0.41730  0.16210  Biso   1.000  C
  C128     1.0000 0.75710  0.51740  0.18490  Biso   1.000  C
  C129     1.0000 0.75570  0.47630  0.38410  Biso   1.000  C
  C130     1.0000 0.78050  0.54330  0.28590  Biso   1.000  C
  C131     1.0000 0.64070  0.47890  0.14220  Biso   1.000  C
  C132     1.0000 0.79550  0.38970  0.10370  Biso   1.000  C
  H69      1.0000 0.69820  0.37490  0.18080  Biso   1.000  H
  C133     1.0000 0.75600  0.52610  0.11180  Biso   1.000  C
  C134     1.0000 0.78160  0.56120  0.22190  Biso   1.000  C
  C135     1.0000 0.69220  0.55760  0.41870  Biso   1.000  C
  C136     1.0000 0.84410  0.46890  0.38750  Biso   1.000  C
  H70      1.0000 0.73940  0.43390  0.40180  Biso   1.000  H
  C137     1.0000 0.80030  0.58750  0.33420  Biso   1.000  C
  C138     1.0000 0.66050  0.54060  0.11550  Biso   1.000  C
  C139     1.0000 0.55670  0.48050  0.14880  Biso   1.000  C
  C140     1.0000 0.81570  0.45040  0.07590  Biso   1.000  C
  C141     1.0000 0.84480  0.31460  0.07360  Biso   1.000  C
  H71      1.0000 0.77100  0.56890  0.09320  Biso   1.000  H
  C142     1.0000 0.79910  0.62440  0.19660  Biso   1.000  C
  C143     1.0000 0.71630  0.61660  0.39230  Biso   1.000  C
  C144     1.0000 0.61650  0.57590  0.47300  Biso   1.000  C
  C145     1.0000 0.86680  0.52790  0.35930  Biso   1.000  C
  C146     1.0000 0.89970  0.40740  0.41310  Biso   1.000  C
  H72      1.0000 0.81780  0.62870  0.31530  Biso   1.000  H
  C147     1.0000 0.60420  0.60190  0.09080  Biso   1.000  C
  C148     1.0000 0.50200  0.54120  0.12250  Biso   1.000  C
  H73      1.0000 0.54040  0.44160  0.16780  Biso   1.000  H
  C149     1.0000 0.89070  0.43490  0.02160  Biso   1.000  C
  C150     1.0000 0.92340  0.29490  0.02220  Biso   1.000  C
  H74      1.0000 0.82860  0.27520  0.09150  Biso   1.000  H
  C151     1.0000 0.81550  0.67860  0.17420  Biso   1.000  C
  C152     1.0000 0.66240  0.69300  0.41730  Biso   1.000  C
  C153     1.0000 0.56490  0.65300  0.49750  Biso   1.000  C
  H75      1.0000 0.59840  0.53740  0.49060  Biso   1.000  H
  C154     1.0000 0.94780  0.52910  0.35860  Biso   1.000  C
  C155     1.0000 0.97950  0.40800  0.41550  Biso   1.000  C
  H76      1.0000 0.88260  0.36850  0.43150  Biso   1.000  H
  C156     1.0000 0.52320  0.60020  0.09160  Biso   1.000  C
  H77      1.0000 0.61810  0.64340  0.07610  Biso   1.000  H
  H78      1.0000 0.44600  0.54300  0.12640  Biso   1.000  H
  C157     1.0000 0.94270  0.35720  0.99780  Biso   1.000  C
  H79      1.0000 0.90420  0.47490  0.00260  Biso   1.000  H
  H80      1.0000 0.95920  0.24420  0.00410  Biso   1.000  H
  C158     1.0000 0.84280  0.73530  0.14680  Biso   1.000  C
  C159     1.0000 0.59000  0.71180  0.47280  Biso   1.000  C
  H81      1.0000 0.67700  0.73260  0.39740  Biso   1.000  H
  H82      1.0000 0.51350  0.66610  0.53290  Biso   1.000  H
  C160     1.0000 0.99920  0.46820  0.38660  Biso   1.000  C
  H83      1.0000 0.96540  0.56760  0.33970  Biso   1.000  H
  H84      1.0000 0.01790  0.36940  0.43340  Biso   1.000  H
  H85      1.0000 0.48620  0.63720  0.07170  Biso   1.000  H
  H86      1.0000 0.99270  0.34640  0.96190  Biso   1.000  H
  C161     1.0000 0.88570  0.76620  0.17840  Biso   1.000  C
  C162     1.0000 0.82270  0.76670  0.09070  Biso   1.000  C
  H87      1.0000 0.55610  0.76290  0.49150  Biso   1.000  H
  H88      1.0000 0.05200  0.46920  0.38840  Biso   1.000  H
  C163     1.0000 0.91030  0.82440  0.14920  Biso   1.000  C
  H89      1.0000 0.89710  0.74830  0.21720  Biso   1.000  H
  C164     1.0000 0.85470  0.82010  0.06070  Biso   1.000  C
  H90      1.0000 0.78830  0.75190  0.07210  Biso   1.000  H
  C165     1.0000 0.90090  0.84940  0.08930  Biso   1.000  C
  H91      1.0000 0.93590  0.84640  0.17160  Biso   1.000  H
  H92      1.0000 0.84470  0.83750  0.02120  Biso   1.000  H
  C166     1.0000 0.93920  0.90490  0.05630  Biso   1.000  C
  O19      1.0000 0.96510  0.93550  0.09120  Biso   1.000  O
  O20      1.0000 0.94410  0.90890  0.99940  Biso   1.000  O
  Zn4      1.0000 0.01723  0.01527  0.05891  Biso   1.000  Zn
  N6       1.0000 0.07220  0.02320  0.12850  Biso   1.000  N
  O21      1.0000 0.89100  0.09560  0.08830  Biso   1.000  O
  O22      1.0000 0.13500  0.92670  0.00050  Biso   1.000  O
  C167     1.0000 0.07100  0.97660  0.17960  Biso   1.000  C
  C168     1.0000 0.12290  0.06620  0.11920  Biso   1.000  C
  C169     1.0000 0.84380  0.10750  0.05180  Biso   1.000  C
  C170     1.0000 0.11940  0.96820  0.22360  Biso   1.000  C
  H93      1.0000 0.03570  0.94890  0.18430  Biso   1.000  H
  C171     1.0000 0.17420  0.05630  0.16250  Biso   1.000  C
  H94      1.0000 0.12340  0.10010  0.08660  Biso   1.000  H
  C172     1.0000 0.74720  0.16090  0.07900  Biso   1.000  C
  C173     1.0000 0.17160  0.01060  0.21460  Biso   1.000  C
  H95      1.0000 0.11640  0.93550  0.25700  Biso   1.000  H
  H96      1.0000 0.21200  0.08190  0.15600  Biso   1.000  H
  C174     1.0000 0.69270  0.17340  0.03870  Biso   1.000  C
  C175     1.0000 0.71640  0.20050  0.14190  Biso   1.000  C
  C176     1.0000 0.22600  0.00060  0.25640  Biso   1.000  C
  C177     1.0000 0.60370  0.22670  0.06170  Biso   1.000  C
  H97      1.0000 0.71400  0.14280  0.99840  Biso   1.000  H
  C178     1.0000 0.62800  0.25320  0.16380  Biso   1.000  C
  H98      1.0000 0.75280  0.19000  0.16920  Biso   1.000  H
  C179     1.0000 0.19670  0.99460  0.32300  Biso   1.000  C
  C180     1.0000 0.31400  0.99280  0.22960  Biso   1.000  C
  C181     1.0000 0.57220  0.26510  0.12480  Biso   1.000  C
  H99      1.0000 0.56640  0.23760  0.03490  Biso   1.000  H
  H100     1.0000 0.60670  0.28190  0.20450  Biso   1.000  H
  C182     1.0000 0.25300  0.98320  0.36170  Biso   1.000  C
  H101     1.0000 0.13950  0.99690  0.34160  Biso   1.000  H
  C183     1.0000 0.37250  0.98260  0.26600  Biso   1.000  C
  H102     1.0000 0.33440  0.99530  0.18440  Biso   1.000  H
  C184     1.0000 0.48540  0.32250  0.14930  Biso   1.000  C
  H103     1.0000 0.23290  0.97990  0.40710  Biso   1.000  H
  H104     1.0000 0.42940  0.98130  0.24830  Biso   1.000  H
  C185     1.0000 0.41310  0.37740  0.17790  Biso   1.000  C
  C186     1.0000 0.33470  0.44030  0.21150  Biso   1.000  C
  C187     1.0000 0.31670  0.45390  0.27940  Biso   1.000  C
  C188     1.0000 0.26840  0.48400  0.18400  Biso   1.000  C
  C189     1.0000 0.38000  0.41180  0.32060  Biso   1.000  C
  C190     1.0000 0.24010  0.51440  0.31740  Biso   1.000  C
  C191     1.0000 0.27350  0.47400  0.11290  Biso   1.000  C
  C192     1.0000 0.19000  0.54300  0.22270  Biso   1.000  C
  C193     1.0000 0.39300  0.46840  0.35500  Biso   1.000  C
  C194     1.0000 0.32530  0.37920  0.37310  Biso   1.000  C
  H105     1.0000 0.43580  0.37060  0.29420  Biso   1.000  H
  C195     1.0000 0.23530  0.51710  0.38880  Biso   1.000  C
  C196     1.0000 0.17470  0.55950  0.28940  Biso   1.000  C
  C197     1.0000 0.25800  0.56000  0.09210  Biso   1.000  C
  C198     1.0000 0.19250  0.46360  0.11160  Biso   1.000  C
  H106     1.0000 0.32820  0.43370  0.08560  Biso   1.000  H
  C199     1.0000 0.12790  0.58760  0.18380  Biso   1.000  C
  C200     1.0000 0.31670  0.53050  0.39160  Biso   1.000  C
  C201     1.0000 0.47490  0.46890  0.35280  Biso   1.000  C
  C202     1.0000 0.24740  0.43960  0.40880  Biso   1.000  C
  C203     1.0000 0.34800  0.30040  0.37940  Biso   1.000  C
  H107     1.0000 0.17970  0.55830  0.41550  Biso   1.000  H
  C204     1.0000 0.09470  0.62100  0.32890  Biso   1.000  C
  C205     1.0000 0.18040  0.61830  0.13140  Biso   1.000  C
  C206     1.0000 0.31610  0.57720  0.03970  Biso   1.000  C
  C207     1.0000 0.11470  0.52430  0.14860  Biso   1.000  C
  C208     1.0000 0.18750  0.40130  0.08160  Biso   1.000  C
  H108     1.0000 0.07190  0.62830  0.21070  Biso   1.000  H
  C209     1.0000 0.31940  0.58960  0.42770  Biso   1.000  C
  C210     1.0000 0.47680  0.52910  0.38780  Biso   1.000  C
  H109     1.0000 0.52740  0.42920  0.32810  Biso   1.000  H
  C211     1.0000 0.19420  0.41420  0.45780  Biso   1.000  C
  C212     1.0000 0.28840  0.27970  0.42760  Biso   1.000  C
  H110     1.0000 0.40130  0.26320  0.35370  Biso   1.000  H
  C213     1.0000 0.03070  0.67360  0.35840  Biso   1.000  C
  C214     1.0000 0.15950  0.69550  0.12060  Biso   1.000  C
  C215     1.0000 0.29390  0.65410  0.02710  Biso   1.000  C
  H111     1.0000 0.36640  0.53860  0.01280  Biso   1.000  H
  C216     1.0000 0.03280  0.52250  0.15340  Biso   1.000  C
  C217     1.0000 0.10580  0.40000  0.08520  Biso   1.000  C
  H112     1.0000 0.24000  0.36240  0.05560  Biso   1.000  H
  C218     1.0000 0.40110  0.59010  0.42610  Biso   1.000  C
  H113     1.0000 0.26710  0.62830  0.45390  Biso   1.000  H
  H114     1.0000 0.53150  0.52810  0.38700  Biso   1.000  H
  C219     1.0000 0.21100  0.33670  0.46850  Biso   1.000  C
  H115     1.0000 0.14140  0.45220  0.48390  Biso   1.000  H
  H116     1.0000 0.30060  0.22800  0.43290  Biso   1.000  H
  C220     1.0000 0.94960  0.73240  0.39350  Biso   1.000  C
  C221     1.0000 0.21750  0.71190  0.06740  Biso   1.000  C
  H117     1.0000 0.10800  0.73440  0.14710  Biso   1.000  H
  H118     1.0000 0.33130  0.66610  0.99200  Biso   1.000  H
  C222     1.0000 0.02850  0.46230  0.12000  Biso   1.000  C
  H119     1.0000 0.98140  0.56130  0.17890  Biso   1.000  H
  H120     1.0000 0.10420  0.35850  0.06380  Biso   1.000  H
  H121     1.0000 0.40420  0.63000  0.44860  Biso   1.000  H
  H122     1.0000 0.17370  0.32290  0.50200  Biso   1.000  H
  C223     1.0000 0.87950  0.75700  0.36690  Biso   1.000  C
  C224     1.0000 0.93400  0.76850  0.45460  Biso   1.000  C
  H123     1.0000 0.20650  0.76300  0.05930  Biso   1.000  H
  H124     1.0000 0.97410  0.46190  0.12170  Biso   1.000  H
  C225     1.0000 0.79560  0.81250  0.40140  Biso   1.000  C
  H125     1.0000 0.88880  0.73560  0.32510  Biso   1.000  H
  C226     1.0000 0.85200  0.82620  0.48790  Biso   1.000  C
  H126     1.0000 0.97950  0.75200  0.47380  Biso   1.000  H
  C227     1.0000 0.78090  0.84910  0.46200  Biso   1.000  C
  H127     1.0000 0.74810  0.82490  0.38430  Biso   1.000  H
  H128     1.0000 0.84420  0.85160  0.52770  Biso   1.000  H
  C228     1.0000 0.68960  0.90560  0.50110  Biso   1.000  C
  Zn5      1.0000 0.50000  0.00000  0.50000  Biso   1.000  Zn
