data_image0
_cell_length_a       9.6867
_cell_length_b       15.449
_cell_length_c       27.303
_cell_angle_alpha    90
_cell_angle_beta     90
_cell_angle_gamma    90

_symmetry_space_group_name_H-M    "P 1"
_symmetry_int_tables_number       1

loop_
  _symmetry_equiv_pos_as_xyz
  'x, y, z'

loop_
  _atom_site_label
  _atom_site_occupancy
  _atom_site_fract_x
  _atom_site_fract_y
  _atom_site_fract_z
  _atom_site_thermal_displace_type
  _atom_site_B_iso_or_equiv
  _atom_site_type_symbol
  O1       1.0000 0.37980  0.72987  0.51646  Biso   1.000  O
  O2       1.0000 0.36250  0.59402  0.53806  Biso   1.000  O
  C1       1.0000 0.43470  0.65980  0.52924  Biso   1.000  C
  C2       1.0000 0.58780  0.65970  0.53208  Biso   1.000  C
  H1       1.0000 0.63270  0.71280  0.53400  Biso   1.000  H
  O3       1.0000 0.11440  0.53856  0.58426  Biso   1.000  O
  O4       1.0000 0.37980  0.22987  0.01646  Biso   1.000  O
  O5       1.0000 0.36250  0.09402  0.03806  Biso   1.000  O
  C3       1.0000 0.43470  0.15980  0.02924  Biso   1.000  C
  C4       1.0000 0.58780  0.15970  0.03208  Biso   1.000  C
  H2       1.0000 0.63270  0.21280  0.03400  Biso   1.000  H
  O6       1.0000 0.11440  0.03856  0.08426  Biso   1.000  O
  O7       1.0000 0.87980  0.72987  0.01646  Biso   1.000  O
  O8       1.0000 0.86250  0.59402  0.03806  Biso   1.000  O
  C5       1.0000 0.93470  0.65980  0.02924  Biso   1.000  C
  C6       1.0000 0.08780  0.65970  0.03208  Biso   1.000  C
  H3       1.0000 0.13270  0.71280  0.03400  Biso   1.000  H
  O9       1.0000 0.61440  0.53856  0.08426  Biso   1.000  O
  O10      1.0000 0.87980  0.22987  0.51646  Biso   1.000  O
  O11      1.0000 0.86250  0.09402  0.53806  Biso   1.000  O
  C7       1.0000 0.93470  0.15980  0.52924  Biso   1.000  C
  C8       1.0000 0.08780  0.15970  0.53208  Biso   1.000  C
  H4       1.0000 0.13270  0.21280  0.53400  Biso   1.000  H
  O12      1.0000 0.61440  0.03856  0.58426  Biso   1.000  O
  O13      1.0000 0.37020  0.02013  0.51646  Biso   1.000  O
  O14      1.0000 0.38750  0.15598  0.53806  Biso   1.000  O
  C9       1.0000 0.31530  0.09020  0.52924  Biso   1.000  C
  C10      1.0000 0.16220  0.09030  0.53208  Biso   1.000  C
  H5       1.0000 0.11730  0.03720  0.53400  Biso   1.000  H
  O15      1.0000 0.63560  0.21144  0.58426  Biso   1.000  O
  O16      1.0000 0.37020  0.52013  0.01646  Biso   1.000  O
  O17      1.0000 0.38750  0.65598  0.03806  Biso   1.000  O
  C11      1.0000 0.31530  0.59020  0.02924  Biso   1.000  C
  C12      1.0000 0.16220  0.59030  0.03208  Biso   1.000  C
  H6       1.0000 0.11730  0.53720  0.03400  Biso   1.000  H
  O18      1.0000 0.63560  0.71144  0.08426  Biso   1.000  O
  O19      1.0000 0.87020  0.02013  0.01646  Biso   1.000  O
  O20      1.0000 0.88750  0.15598  0.03806  Biso   1.000  O
  C13      1.0000 0.81530  0.09020  0.02924  Biso   1.000  C
  C14      1.0000 0.66220  0.09030  0.03208  Biso   1.000  C
  H7       1.0000 0.61730  0.03720  0.03400  Biso   1.000  H
  O21      1.0000 0.13560  0.21144  0.08426  Biso   1.000  O
  O22      1.0000 0.87020  0.52013  0.51646  Biso   1.000  O
  O23      1.0000 0.88750  0.65598  0.53806  Biso   1.000  O
  C15      1.0000 0.81530  0.59020  0.52924  Biso   1.000  C
  C16      1.0000 0.66220  0.59030  0.53208  Biso   1.000  C
  H8       1.0000 0.61730  0.53720  0.53400  Biso   1.000  H
  O24      1.0000 0.13560  0.71144  0.58426  Biso   1.000  O
  O25      1.0000 0.37020  0.72987  0.23354  Biso   1.000  O
  O26      1.0000 0.38750  0.59402  0.21194  Biso   1.000  O
  C17      1.0000 0.31530  0.65980  0.22076  Biso   1.000  C
  C18      1.0000 0.16220  0.65970  0.21792  Biso   1.000  C
  H9       1.0000 0.11730  0.71280  0.21600  Biso   1.000  H
  O27      1.0000 0.63560  0.53856  0.16574  Biso   1.000  O
  O28      1.0000 0.37020  0.22987  0.73354  Biso   1.000  O
  O29      1.0000 0.38750  0.09402  0.71194  Biso   1.000  O
  C19      1.0000 0.31530  0.15980  0.72076  Biso   1.000  C
  C20      1.0000 0.16220  0.15970  0.71792  Biso   1.000  C
  H10      1.0000 0.11730  0.21280  0.71600  Biso   1.000  H
  O30      1.0000 0.63560  0.03856  0.66574  Biso   1.000  O
  O31      1.0000 0.87020  0.72987  0.73354  Biso   1.000  O
  O32      1.0000 0.88750  0.59402  0.71194  Biso   1.000  O
  C21      1.0000 0.81530  0.65980  0.72076  Biso   1.000  C
  C22      1.0000 0.66220  0.65970  0.71792  Biso   1.000  C
  H11      1.0000 0.61730  0.71280  0.71600  Biso   1.000  H
  O33      1.0000 0.13560  0.53856  0.66574  Biso   1.000  O
  O34      1.0000 0.87020  0.22987  0.23354  Biso   1.000  O
  O35      1.0000 0.88750  0.09402  0.21194  Biso   1.000  O
  C23      1.0000 0.81530  0.15980  0.22076  Biso   1.000  C
  C24      1.0000 0.66220  0.15970  0.21792  Biso   1.000  C
  H12      1.0000 0.61730  0.21280  0.21600  Biso   1.000  H
  O36      1.0000 0.13560  0.03856  0.16574  Biso   1.000  O
  O37      1.0000 0.37980  0.02013  0.23354  Biso   1.000  O
  O38      1.0000 0.36250  0.15598  0.21194  Biso   1.000  O
  C25      1.0000 0.43470  0.09020  0.22076  Biso   1.000  C
  C26      1.0000 0.58780  0.09030  0.21792  Biso   1.000  C
  H13      1.0000 0.63270  0.03720  0.21600  Biso   1.000  H
  O39      1.0000 0.11440  0.21144  0.16574  Biso   1.000  O
  O40      1.0000 0.37980  0.52013  0.73354  Biso   1.000  O
  O41      1.0000 0.36250  0.65598  0.71194  Biso   1.000  O
  C27      1.0000 0.43470  0.59020  0.72076  Biso   1.000  C
  C28      1.0000 0.58780  0.59030  0.71792  Biso   1.000  C
  H14      1.0000 0.63270  0.53720  0.71600  Biso   1.000  H
  O42      1.0000 0.11440  0.71144  0.66574  Biso   1.000  O
  O43      1.0000 0.87980  0.02013  0.73354  Biso   1.000  O
  O44      1.0000 0.86250  0.15598  0.71194  Biso   1.000  O
  C29      1.0000 0.93470  0.09020  0.72076  Biso   1.000  C
  C30      1.0000 0.08780  0.09030  0.71792  Biso   1.000  C
  H15      1.0000 0.13270  0.03720  0.71600  Biso   1.000  H
  O45      1.0000 0.61440  0.21144  0.66574  Biso   1.000  O
  O46      1.0000 0.87980  0.52013  0.23354  Biso   1.000  O
  O47      1.0000 0.86250  0.65598  0.21194  Biso   1.000  O
  C31      1.0000 0.93470  0.59020  0.22076  Biso   1.000  C
  C32      1.0000 0.08780  0.59030  0.21792  Biso   1.000  C
  H16      1.0000 0.13270  0.53720  0.21600  Biso   1.000  H
  O48      1.0000 0.61440  0.71144  0.16574  Biso   1.000  O
  O49      1.0000 0.62020  0.27013  0.48354  Biso   1.000  O
  O50      1.0000 0.63750  0.40598  0.46194  Biso   1.000  O
  C33      1.0000 0.56530  0.34020  0.47076  Biso   1.000  C
  C34      1.0000 0.41220  0.34030  0.46792  Biso   1.000  C
  H17      1.0000 0.36730  0.28720  0.46600  Biso   1.000  H
  O51      1.0000 0.88560  0.46144  0.41574  Biso   1.000  O
  O52      1.0000 0.62020  0.77013  0.98354  Biso   1.000  O
  O53      1.0000 0.63750  0.90598  0.96194  Biso   1.000  O
  C35      1.0000 0.56530  0.84020  0.97076  Biso   1.000  C
  C36      1.0000 0.41220  0.84030  0.96792  Biso   1.000  C
  H18      1.0000 0.36730  0.78720  0.96600  Biso   1.000  H
  O54      1.0000 0.88560  0.96144  0.91574  Biso   1.000  O
  O55      1.0000 0.12020  0.27013  0.98354  Biso   1.000  O
  O56      1.0000 0.13750  0.40598  0.96194  Biso   1.000  O
  C37      1.0000 0.06530  0.34020  0.97076  Biso   1.000  C
  C38      1.0000 0.91220  0.34030  0.96792  Biso   1.000  C
  H19      1.0000 0.86730  0.28720  0.96600  Biso   1.000  H
  O57      1.0000 0.38560  0.46144  0.91574  Biso   1.000  O
  O58      1.0000 0.12020  0.77013  0.48354  Biso   1.000  O
  O59      1.0000 0.13750  0.90598  0.46194  Biso   1.000  O
  C39      1.0000 0.06530  0.84020  0.47076  Biso   1.000  C
  C40      1.0000 0.91220  0.84030  0.46792  Biso   1.000  C
  H20      1.0000 0.86730  0.78720  0.46600  Biso   1.000  H
  O60      1.0000 0.38560  0.96144  0.41574  Biso   1.000  O
  O61      1.0000 0.62980  0.97987  0.48354  Biso   1.000  O
  O62      1.0000 0.61250  0.84402  0.46194  Biso   1.000  O
  C41      1.0000 0.68470  0.90980  0.47076  Biso   1.000  C
  C42      1.0000 0.83780  0.90970  0.46792  Biso   1.000  C
  H21      1.0000 0.88270  0.96280  0.46600  Biso   1.000  H
  O63      1.0000 0.36440  0.78856  0.41574  Biso   1.000  O
  O64      1.0000 0.62980  0.47987  0.98354  Biso   1.000  O
  O65      1.0000 0.61250  0.34402  0.96194  Biso   1.000  O
  C43      1.0000 0.68470  0.40980  0.97076  Biso   1.000  C
  C44      1.0000 0.83780  0.40970  0.96792  Biso   1.000  C
  H22      1.0000 0.88270  0.46280  0.96600  Biso   1.000  H
  O66      1.0000 0.36440  0.28856  0.91574  Biso   1.000  O
  O67      1.0000 0.12980  0.97987  0.98354  Biso   1.000  O
  O68      1.0000 0.11250  0.84402  0.96194  Biso   1.000  O
  C45      1.0000 0.18470  0.90980  0.97076  Biso   1.000  C
  C46      1.0000 0.33780  0.90970  0.96792  Biso   1.000  C
  H23      1.0000 0.38270  0.96280  0.96600  Biso   1.000  H
  O69      1.0000 0.86440  0.78856  0.91574  Biso   1.000  O
  O70      1.0000 0.12980  0.47987  0.48354  Biso   1.000  O
  O71      1.0000 0.11250  0.34402  0.46194  Biso   1.000  O
  C47      1.0000 0.18470  0.40980  0.47076  Biso   1.000  C
  C48      1.0000 0.33780  0.40970  0.46792  Biso   1.000  C
  H24      1.0000 0.38270  0.46280  0.46600  Biso   1.000  H
  O72      1.0000 0.86440  0.28856  0.41574  Biso   1.000  O
  O73      1.0000 0.62980  0.27013  0.76646  Biso   1.000  O
  O74      1.0000 0.61250  0.40598  0.78806  Biso   1.000  O
  C49      1.0000 0.68470  0.34020  0.77924  Biso   1.000  C
  C50      1.0000 0.83780  0.34030  0.78208  Biso   1.000  C
  H25      1.0000 0.88270  0.28720  0.78400  Biso   1.000  H
  O75      1.0000 0.36440  0.46144  0.83426  Biso   1.000  O
  O76      1.0000 0.62980  0.77013  0.26646  Biso   1.000  O
  O77      1.0000 0.61250  0.90598  0.28806  Biso   1.000  O
  C51      1.0000 0.68470  0.84020  0.27924  Biso   1.000  C
  C52      1.0000 0.83780  0.84030  0.28208  Biso   1.000  C
  H26      1.0000 0.88270  0.78720  0.28400  Biso   1.000  H
  O78      1.0000 0.36440  0.96144  0.33426  Biso   1.000  O
  O79      1.0000 0.12980  0.27013  0.26646  Biso   1.000  O
  O80      1.0000 0.11250  0.40598  0.28806  Biso   1.000  O
  C53      1.0000 0.18470  0.34020  0.27924  Biso   1.000  C
  C54      1.0000 0.33780  0.34030  0.28208  Biso   1.000  C
  H27      1.0000 0.38270  0.28720  0.28400  Biso   1.000  H
  O81      1.0000 0.86440  0.46144  0.33426  Biso   1.000  O
  O82      1.0000 0.12980  0.77013  0.76646  Biso   1.000  O
  O83      1.0000 0.11250  0.90598  0.78806  Biso   1.000  O
  C55      1.0000 0.18470  0.84020  0.77924  Biso   1.000  C
  C56      1.0000 0.33780  0.84030  0.78208  Biso   1.000  C
  H28      1.0000 0.38270  0.78720  0.78400  Biso   1.000  H
  O84      1.0000 0.86440  0.96144  0.83426  Biso   1.000  O
  O85      1.0000 0.62020  0.97987  0.76646  Biso   1.000  O
  O86      1.0000 0.63750  0.84402  0.78806  Biso   1.000  O
  C57      1.0000 0.56530  0.90980  0.77924  Biso   1.000  C
  C58      1.0000 0.41220  0.90970  0.78208  Biso   1.000  C
  H29      1.0000 0.36730  0.96280  0.78400  Biso   1.000  H
  O87      1.0000 0.88560  0.78856  0.83426  Biso   1.000  O
  O88      1.0000 0.62020  0.47987  0.26646  Biso   1.000  O
  O89      1.0000 0.63750  0.34402  0.28806  Biso   1.000  O
  C59      1.0000 0.56530  0.40980  0.27924  Biso   1.000  C
  C60      1.0000 0.41220  0.40970  0.28208  Biso   1.000  C
  H30      1.0000 0.36730  0.46280  0.28400  Biso   1.000  H
  O90      1.0000 0.88560  0.28856  0.33426  Biso   1.000  O
  O91      1.0000 0.12020  0.97987  0.26646  Biso   1.000  O
  O92      1.0000 0.13750  0.84402  0.28806  Biso   1.000  O
  C61      1.0000 0.06530  0.90980  0.27924  Biso   1.000  C
  C62      1.0000 0.91220  0.90970  0.28208  Biso   1.000  C
  H31      1.0000 0.86730  0.96280  0.28400  Biso   1.000  H
  O93      1.0000 0.38560  0.78856  0.33426  Biso   1.000  O
  O94      1.0000 0.12020  0.47987  0.76646  Biso   1.000  O
  O95      1.0000 0.13750  0.34402  0.78806  Biso   1.000  O
  C63      1.0000 0.06530  0.40980  0.77924  Biso   1.000  C
  C64      1.0000 0.91220  0.40970  0.78208  Biso   1.000  C
  H32      1.0000 0.86730  0.46280  0.78400  Biso   1.000  H
  O96      1.0000 0.38560  0.28856  0.83426  Biso   1.000  O
  Gd1      1.0000 0.12500  0.62500  0.50944  Biso   1.000  Gd
  Gd2      1.0000 0.12500  0.12500  0.00944  Biso   1.000  Gd
  Gd3      1.0000 0.62500  0.62500  0.00944  Biso   1.000  Gd
  Gd4      1.0000 0.62500  0.12500  0.50944  Biso   1.000  Gd
  Gd5      1.0000 0.62500  0.62500  0.24056  Biso   1.000  Gd
  Gd6      1.0000 0.62500  0.12500  0.74056  Biso   1.000  Gd
  Gd7      1.0000 0.12500  0.12500  0.24056  Biso   1.000  Gd
  Gd8      1.0000 0.12500  0.62500  0.74056  Biso   1.000  Gd
  Gd9      1.0000 0.87500  0.37500  0.49056  Biso   1.000  Gd
  Gd10     1.0000 0.87500  0.87500  0.99056  Biso   1.000  Gd
  Gd11     1.0000 0.37500  0.87500  0.49056  Biso   1.000  Gd
  Gd12     1.0000 0.37500  0.37500  0.99056  Biso   1.000  Gd
  Gd13     1.0000 0.37500  0.37500  0.75944  Biso   1.000  Gd
  Gd14     1.0000 0.37500  0.87500  0.25944  Biso   1.000  Gd
  Gd15     1.0000 0.87500  0.87500  0.75944  Biso   1.000  Gd
  Gd16     1.0000 0.87500  0.37500  0.25944  Biso   1.000  Gd
  C65      1.0000 0.12500  0.57450  0.62500  Biso   1.000  C
  C66      1.0000 0.12500  0.07450  0.12500  Biso   1.000  C
  C67      1.0000 0.62500  0.07450  0.62500  Biso   1.000  C
  C68      1.0000 0.62500  0.17550  0.62500  Biso   1.000  C
  C69      1.0000 0.62500  0.67550  0.12500  Biso   1.000  C
  C70      1.0000 0.62500  0.57450  0.12500  Biso   1.000  C
  C71      1.0000 0.12500  0.17550  0.12500  Biso   1.000  C
  C72      1.0000 0.12500  0.67550  0.62500  Biso   1.000  C
  C73      1.0000 0.87500  0.42550  0.37500  Biso   1.000  C
  C74      1.0000 0.87500  0.92550  0.87500  Biso   1.000  C
  C75      1.0000 0.37500  0.82450  0.37500  Biso   1.000  C
  C76      1.0000 0.37500  0.32450  0.87500  Biso   1.000  C
  C77      1.0000 0.37500  0.42550  0.87500  Biso   1.000  C
  C78      1.0000 0.37500  0.92550  0.37500  Biso   1.000  C
  C79      1.0000 0.87500  0.82450  0.87500  Biso   1.000  C
  C80      1.0000 0.87500  0.32450  0.37500  Biso   1.000  C
