data_QUPJAN_clean
_audit_creation_date              2014-07-02
_audit_creation_method            'Materials Studio'
_symmetry_space_group_name_H-M    'P1'
_symmetry_Int_Tables_number       1
_symmetry_cell_setting            triclinic
loop_
_symmetry_equiv_pos_as_xyz
  x,y,z
_cell_length_a                    14.5739
_cell_length_b                    20.6466
_cell_length_c                    20.6466
_cell_angle_alpha                 60.8035
_cell_angle_beta                  69.3329
_cell_angle_gamma                 69.3329
loop_
_atom_site_label
_atom_site_type_symbol
_atom_site_fract_x
_atom_site_fract_y
_atom_site_fract_z
_atom_site_U_iso_or_equiv
_atom_site_adp_type
_atom_site_occupancy
Cd1    Cd    0.20478   0.70986   0.08422   0.01267  Uiso   1.00
Cd2    Cd    0.00114   0.58422   0.20986   0.01267  Uiso   1.00
Cd3    Cd    0.70478   0.08422   0.70986   0.01267  Uiso   1.00
Cd4    Cd    0.50114   0.20986   0.58422   0.01267  Uiso   1.00
H1     H     0.47450   0.85280   0.92660   0.01267  Uiso   1.00
H2     H     0.54050   0.95520   0.82860   0.01267  Uiso   1.00
H3     H     0.28430   0.04240   0.75540   0.01267  Uiso   1.00
H4     H     0.22040   0.93980   0.85100   0.01267  Uiso   1.00
H5     H     0.21580   0.69290   0.93610   0.01267  Uiso   1.00
H6     H     0.28460   0.61510   0.87270   0.01267  Uiso   1.00
H7     H     0.42360   0.46650   0.04190   0.01267  Uiso   1.00
H8     H     0.35470   0.55070   0.09650   0.01267  Uiso   1.00
H9     H     0.40720   0.49340   0.82020   0.01267  Uiso   1.00
H10    H     0.29840   0.51190   0.86790   0.01267  Uiso   1.00
H11    H     0.50050   0.36250   0.84710   0.01267  Uiso   1.00
H12    H     0.48590   0.34180   0.93360   0.01267  Uiso   1.00
H13    H     0.42650   0.15180   0.92400   0.01267  Uiso   1.00
H14    H     0.51750   0.08680   0.84920   0.01267  Uiso   1.00
H15    H     0.69460   0.22700   0.73520   0.01267  Uiso   1.00
H16    H     0.61310   0.29290   0.80970   0.01267  Uiso   1.00
H17    H     0.74610   0.42660   0.35280   0.01267  Uiso   1.00
H18    H     0.67570   0.32860   0.45520   0.01267  Uiso   1.00
H19    H     0.91790   0.25540   0.54240   0.01267  Uiso   1.00
H20    H     0.98880   0.35100   0.43980   0.01267  Uiso   1.00
H21    H     0.15520   0.43610   0.19290   0.01267  Uiso   1.00
H22    H     0.22760   0.37270   0.11510   0.01267  Uiso   1.00
H23    H     0.06800   0.54190   0.96650   0.01267  Uiso   1.00
H24    H     0.99810   0.59650   0.05070   0.01267  Uiso   1.00
H25    H     0.27920   0.32020   0.99340   0.01267  Uiso   1.00
H26    H     0.32180   0.36790   0.01190   0.01267  Uiso   1.00
H27    H     0.28990   0.34710   0.86250   0.01267  Uiso   1.00
H28    H     0.23870   0.43360   0.84180   0.01267  Uiso   1.00
H29    H     0.49770   0.42400   0.65180   0.01267  Uiso   1.00
H30    H     0.54650   0.34920   0.58680   0.01267  Uiso   1.00
H31    H     0.34320   0.23520   0.72700   0.01267  Uiso   1.00
H32    H     0.28430   0.30970   0.79290   0.01267  Uiso   1.00
H33    H     0.97450   0.92660   0.85280   0.01267  Uiso   1.00
H34    H     0.04050   0.82860   0.95520   0.01267  Uiso   1.00
H35    H     0.78430   0.75540   0.04240   0.01267  Uiso   1.00
H36    H     0.72040   0.85100   0.93980   0.01267  Uiso   1.00
H37    H     0.71580   0.93610   0.69290   0.01267  Uiso   1.00
H38    H     0.78460   0.87270   0.61510   0.01267  Uiso   1.00
H39    H     0.92360   0.04190   0.46650   0.01267  Uiso   1.00
H40    H     0.85470   0.09650   0.55070   0.01267  Uiso   1.00
H41    H     0.90720   0.82020   0.49340   0.01267  Uiso   1.00
H42    H     0.79840   0.86790   0.51190   0.01267  Uiso   1.00
H43    H     0.00050   0.84710   0.36250   0.01267  Uiso   1.00
H44    H     0.98590   0.93360   0.34180   0.01267  Uiso   1.00
H45    H     0.92650   0.92400   0.15180   0.01267  Uiso   1.00
H46    H     0.01750   0.84920   0.08680   0.01267  Uiso   1.00
H47    H     0.19460   0.73520   0.22700   0.01267  Uiso   1.00
H48    H     0.11310   0.80970   0.29290   0.01267  Uiso   1.00
H49    H     0.24610   0.35280   0.42660   0.01267  Uiso   1.00
H50    H     0.17570   0.45520   0.32860   0.01267  Uiso   1.00
H51    H     0.41790   0.54240   0.25540   0.01267  Uiso   1.00
H52    H     0.48880   0.43980   0.35100   0.01267  Uiso   1.00
H53    H     0.65520   0.19290   0.43610   0.01267  Uiso   1.00
H54    H     0.72760   0.11510   0.37270   0.01267  Uiso   1.00
H55    H     0.56800   0.96650   0.54190   0.01267  Uiso   1.00
H56    H     0.49810   0.05070   0.59650   0.01267  Uiso   1.00
H57    H     0.77920   0.99340   0.32020   0.01267  Uiso   1.00
H58    H     0.82180   0.01190   0.36790   0.01267  Uiso   1.00
H59    H     0.78990   0.86250   0.34710   0.01267  Uiso   1.00
H60    H     0.73870   0.84180   0.43360   0.01267  Uiso   1.00
H61    H     0.99770   0.65180   0.42400   0.01267  Uiso   1.00
H62    H     0.04650   0.58680   0.34920   0.01267  Uiso   1.00
H63    H     0.84320   0.72700   0.23520   0.01267  Uiso   1.00
H64    H     0.78430   0.79290   0.30970   0.01267  Uiso   1.00
C1     C     0.29573   0.82054   0.96410   0.01267  Uiso   1.00
C2     C     0.34123   0.88578   0.89898   0.01267  Uiso   1.00
C3     C     0.43636   0.89087   0.89183   0.01267  Uiso   1.00
C4     C     0.47604   0.95239   0.83325   0.01267  Uiso   1.00
C5     C     0.41883   0.00930   0.78200   0.01267  Uiso   1.00
C6     C     0.32302   0.00399   0.78961   0.01267  Uiso   1.00
C7     C     0.28443   0.94300   0.84690   0.01267  Uiso   1.00
C8     C     0.45744   0.07765   0.71825   0.01267  Uiso   1.00
C9     C     0.25879   0.64666   0.95776   0.01267  Uiso   1.00
C10    C     0.29887   0.60009   0.91917   0.01267  Uiso   1.00
C11    C     0.36020   0.53115   0.95205   0.01267  Uiso   1.00
C12    C     0.38136   0.51271   0.01877   0.01267  Uiso   1.00
C13    C     0.33906   0.56354   0.05114   0.01267  Uiso   1.00
C14    C     0.36377   0.47713   0.87053   0.01267  Uiso   1.00
C15    C     0.45662   0.34388   0.89688   0.01267  Uiso   1.00
C16    C     0.50759   0.23106   0.87316   0.01267  Uiso   1.00
C17    C     0.48130   0.16836   0.88544   0.01267  Uiso   1.00
C18    C     0.53667   0.12950   0.84016   0.01267  Uiso   1.00
C19    C     0.64017   0.21102   0.77436   0.01267  Uiso   1.00
C20    C     0.59066   0.25209   0.81779   0.01267  Uiso   1.00
C21    C     0.91963   0.46410   0.32054   0.01267  Uiso   1.00
C22    C     0.87401   0.39898   0.38578   0.01267  Uiso   1.00
C23    C     0.78094   0.39183   0.39087   0.01267  Uiso   1.00
C24    C     0.73832   0.33325   0.45239   0.01267  Uiso   1.00
C25    C     0.78987   0.28200   0.50930   0.01267  Uiso   1.00
C26    C     0.88338   0.28961   0.50399   0.01267  Uiso   1.00
C27    C     0.92567   0.34690   0.44300   0.01267  Uiso   1.00
C28    C     0.74666   0.21825   0.57765   0.01267  Uiso   1.00
C29    C     0.13679   0.45776   0.14666   0.01267  Uiso   1.00
C30    C     0.18187   0.41917   0.10009   0.01267  Uiso   1.00
C31    C     0.15660   0.45205   0.03115   0.01267  Uiso   1.00
C32    C     0.08716   0.51877   0.01271   0.01267  Uiso   1.00
C33    C     0.04626   0.55114   0.06354   0.01267  Uiso   1.00
C34    C     0.28857   0.37053   0.97713   0.01267  Uiso   1.00
C35    C     0.30262   0.39688   0.84388   0.01267  Uiso   1.00
C36    C     0.38819   0.37316   0.73106   0.01267  Uiso   1.00
C37    C     0.46490   0.38544   0.66836   0.01267  Uiso   1.00
C38    C     0.49367   0.34016   0.62950   0.01267  Uiso   1.00
C39    C     0.37445   0.27436   0.71102   0.01267  Uiso   1.00
C40    C     0.33946   0.31779   0.75209   0.01267  Uiso   1.00
C41    C     0.79573   0.96410   0.82054   0.01267  Uiso   1.00
C42    C     0.84123   0.89898   0.88578   0.01267  Uiso   1.00
C43    C     0.93636   0.89183   0.89087   0.01267  Uiso   1.00
C44    C     0.97604   0.83325   0.95239   0.01267  Uiso   1.00
C45    C     0.91883   0.78200   0.00930   0.01267  Uiso   1.00
C46    C     0.82302   0.78961   0.00399   0.01267  Uiso   1.00
C47    C     0.78443   0.84690   0.94300   0.01267  Uiso   1.00
C48    C     0.95744   0.71825   0.07765   0.01267  Uiso   1.00
C49    C     0.75879   0.95776   0.64666   0.01267  Uiso   1.00
C50    C     0.79887   0.91917   0.60009   0.01267  Uiso   1.00
C51    C     0.86020   0.95205   0.53115   0.01267  Uiso   1.00
C52    C     0.88136   0.01877   0.51271   0.01267  Uiso   1.00
C53    C     0.83906   0.05114   0.56354   0.01267  Uiso   1.00
C54    C     0.86377   0.87053   0.47713   0.01267  Uiso   1.00
C55    C     0.95662   0.89688   0.34388   0.01267  Uiso   1.00
C56    C     0.00759   0.87316   0.23106   0.01267  Uiso   1.00
C57    C     0.98130   0.88544   0.16836   0.01267  Uiso   1.00
C58    C     0.03667   0.84016   0.12950   0.01267  Uiso   1.00
C59    C     0.14017   0.77436   0.21102   0.01267  Uiso   1.00
C60    C     0.09066   0.81779   0.25209   0.01267  Uiso   1.00
C61    C     0.41963   0.32054   0.46410   0.01267  Uiso   1.00
C62    C     0.37401   0.38578   0.39898   0.01267  Uiso   1.00
C63    C     0.28094   0.39087   0.39183   0.01267  Uiso   1.00
C64    C     0.23832   0.45239   0.33325   0.01267  Uiso   1.00
C65    C     0.28987   0.50930   0.28200   0.01267  Uiso   1.00
C66    C     0.38338   0.50399   0.28961   0.01267  Uiso   1.00
C67    C     0.42567   0.44300   0.34690   0.01267  Uiso   1.00
C68    C     0.24666   0.57765   0.21825   0.01267  Uiso   1.00
C69    C     0.63679   0.14666   0.45776   0.01267  Uiso   1.00
C70    C     0.68187   0.10009   0.41917   0.01267  Uiso   1.00
C71    C     0.65660   0.03115   0.45205   0.01267  Uiso   1.00
C72    C     0.58716   0.01271   0.51877   0.01267  Uiso   1.00
C73    C     0.54626   0.06354   0.55114   0.01267  Uiso   1.00
C74    C     0.78857   0.97713   0.37053   0.01267  Uiso   1.00
C75    C     0.80262   0.84388   0.39688   0.01267  Uiso   1.00
C76    C     0.88819   0.73106   0.37316   0.01267  Uiso   1.00
C77    C     0.96490   0.66836   0.38544   0.01267  Uiso   1.00
C78    C     0.99367   0.62950   0.34016   0.01267  Uiso   1.00
C79    C     0.87445   0.71102   0.27436   0.01267  Uiso   1.00
C80    C     0.83946   0.75209   0.31779   0.01267  Uiso   1.00
C81    C     0.35314   0.39686   0.89686   0.01267  Uiso   1.00
C82    C     0.85314   0.89686   0.39686   0.01267  Uiso   1.00
N1     N     0.27692   0.63038   0.02216   0.01267  Uiso   1.00
N2     N     0.61516   0.14978   0.78484   0.01267  Uiso   1.00
N3     N     0.07054   0.52216   0.13038   0.01267  Uiso   1.00
N4     N     0.45022   0.28484   0.64978   0.01267  Uiso   1.00
N5     N     0.77692   0.02216   0.63038   0.01267  Uiso   1.00
N6     N     0.11516   0.78484   0.14978   0.01267  Uiso   1.00
N7     N     0.57054   0.13038   0.52216   0.01267  Uiso   1.00
N8     N     0.95022   0.64978   0.28484   0.01267  Uiso   1.00
O1     O     0.21125   0.81720   0.96596   0.01267  Uiso   1.00
O2     O     0.34402   0.77317   0.01375   0.01267  Uiso   1.00
O3     O     0.39959   0.12900   0.67732   0.01267  Uiso   1.00
O4     O     0.54639   0.08059   0.70735   0.01267  Uiso   1.00
O5     O     0.40534   0.47832   0.92266   0.01267  Uiso   1.00
O6     O     0.44672   0.26881   0.91653   0.01267  Uiso   1.00
O7     O     0.00559   0.46596   0.31720   0.01267  Uiso   1.00
O8     O     0.86906   0.51375   0.27317   0.01267  Uiso   1.00
O9     O     0.79409   0.17732   0.62900   0.01267  Uiso   1.00
O10    O     0.66567   0.20735   0.58059   0.01267  Uiso   1.00
O11    O     0.19368   0.42266   0.97832   0.01267  Uiso   1.00
O12    O     0.36794   0.41653   0.76881   0.01267  Uiso   1.00
O13    O     0.71125   0.96596   0.81720   0.01267  Uiso   1.00
O14    O     0.84402   0.01375   0.77317   0.01267  Uiso   1.00
O15    O     0.89959   0.67732   0.12900   0.01267  Uiso   1.00
O16    O     0.04639   0.70735   0.08059   0.01267  Uiso   1.00
O17    O     0.90534   0.92266   0.47832   0.01267  Uiso   1.00
O18    O     0.94672   0.91653   0.26881   0.01267  Uiso   1.00
O19    O     0.50559   0.31720   0.46596   0.01267  Uiso   1.00
O20    O     0.36906   0.27317   0.51375   0.01267  Uiso   1.00
O21    O     0.29409   0.62900   0.17732   0.01267  Uiso   1.00
O22    O     0.16567   0.58059   0.20735   0.01267  Uiso   1.00
O23    O     0.69368   0.97832   0.42266   0.01267  Uiso   1.00
O24    O     0.86794   0.76881   0.41653   0.01267  Uiso   1.00
Cd5    Cd    0.29522   0.91578   0.29014   0.01267  Uiso   1.00
Cd6    Cd    0.49886   0.79014   0.41578   0.01267  Uiso   1.00
Cd7    Cd    0.79522   0.29014   0.91578   0.01267  Uiso   1.00
Cd8    Cd    0.99886   0.41578   0.79014   0.01267  Uiso   1.00
H65    H     0.02550   0.07340   0.14720   0.01267  Uiso   1.00
H66    H     0.95950   0.17140   0.04480   0.01267  Uiso   1.00
H67    H     0.21570   0.24460   0.95760   0.01267  Uiso   1.00
H68    H     0.27960   0.14900   0.06020   0.01267  Uiso   1.00
H69    H     0.28420   0.06390   0.30710   0.01267  Uiso   1.00
H70    H     0.21540   0.12730   0.38490   0.01267  Uiso   1.00
H71    H     0.07640   0.95810   0.53350   0.01267  Uiso   1.00
H72    H     0.14530   0.90350   0.44930   0.01267  Uiso   1.00
H73    H     0.09280   0.17980   0.50660   0.01267  Uiso   1.00
H74    H     0.20160   0.13210   0.48810   0.01267  Uiso   1.00
H75    H     0.99950   0.15290   0.63750   0.01267  Uiso   1.00
H76    H     0.01410   0.06640   0.65820   0.01267  Uiso   1.00
H77    H     0.07350   0.07600   0.84820   0.01267  Uiso   1.00
H78    H     0.98250   0.15080   0.91320   0.01267  Uiso   1.00
H79    H     0.80540   0.26480   0.77300   0.01267  Uiso   1.00
H80    H     0.88690   0.19030   0.70710   0.01267  Uiso   1.00
H81    H     0.75390   0.64720   0.57340   0.01267  Uiso   1.00
H82    H     0.82430   0.54480   0.67140   0.01267  Uiso   1.00
H83    H     0.58210   0.45760   0.74460   0.01267  Uiso   1.00
H84    H     0.51120   0.56020   0.64900   0.01267  Uiso   1.00
H85    H     0.34480   0.80710   0.56390   0.01267  Uiso   1.00
H86    H     0.27240   0.88490   0.62730   0.01267  Uiso   1.00
H87    H     0.43200   0.03350   0.45810   0.01267  Uiso   1.00
H88    H     0.50190   0.94930   0.40350   0.01267  Uiso   1.00
H89    H     0.22080   0.00660   0.67980   0.01267  Uiso   1.00
H90    H     0.17820   0.98810   0.63210   0.01267  Uiso   1.00
H91    H     0.21010   0.13750   0.65290   0.01267  Uiso   1.00
H92    H     0.26130   0.15820   0.56640   0.01267  Uiso   1.00
H93    H     0.00230   0.34820   0.57600   0.01267  Uiso   1.00
H94    H     0.95350   0.41320   0.65080   0.01267  Uiso   1.00
H95    H     0.15680   0.27300   0.76480   0.01267  Uiso   1.00
H96    H     0.21570   0.20710   0.69030   0.01267  Uiso   1.00
H97    H     0.52550   0.14720   0.07340   0.01267  Uiso   1.00
H98    H     0.45950   0.04480   0.17140   0.01267  Uiso   1.00
H99    H     0.71570   0.95760   0.24460   0.01267  Uiso   1.00
H100   H     0.77960   0.06020   0.14900   0.01267  Uiso   1.00
H101   H     0.78420   0.30710   0.06390   0.01267  Uiso   1.00
H102   H     0.71540   0.38490   0.12730   0.01267  Uiso   1.00
H103   H     0.57640   0.53350   0.95810   0.01267  Uiso   1.00
H104   H     0.64530   0.44930   0.90350   0.01267  Uiso   1.00
H105   H     0.59280   0.50660   0.17980   0.01267  Uiso   1.00
H106   H     0.70160   0.48810   0.13210   0.01267  Uiso   1.00
H107   H     0.49950   0.63750   0.15290   0.01267  Uiso   1.00
H108   H     0.51410   0.65820   0.06640   0.01267  Uiso   1.00
H109   H     0.57350   0.84820   0.07600   0.01267  Uiso   1.00
H110   H     0.48250   0.91320   0.15080   0.01267  Uiso   1.00
H111   H     0.30540   0.77300   0.26480   0.01267  Uiso   1.00
H112   H     0.38690   0.70710   0.19030   0.01267  Uiso   1.00
H113   H     0.25390   0.57340   0.64720   0.01267  Uiso   1.00
H114   H     0.32430   0.67140   0.54480   0.01267  Uiso   1.00
H115   H     0.08210   0.74460   0.45760   0.01267  Uiso   1.00
H116   H     0.01120   0.64900   0.56020   0.01267  Uiso   1.00
H117   H     0.84480   0.56390   0.80710   0.01267  Uiso   1.00
H118   H     0.77240   0.62730   0.88490   0.01267  Uiso   1.00
H119   H     0.93200   0.45810   0.03350   0.01267  Uiso   1.00
H120   H     0.00190   0.40350   0.94930   0.01267  Uiso   1.00
H121   H     0.72080   0.67980   0.00660   0.01267  Uiso   1.00
H122   H     0.67820   0.63210   0.98810   0.01267  Uiso   1.00
H123   H     0.71010   0.65290   0.13750   0.01267  Uiso   1.00
H124   H     0.76130   0.56640   0.15820   0.01267  Uiso   1.00
H125   H     0.50230   0.57600   0.34820   0.01267  Uiso   1.00
H126   H     0.45350   0.65080   0.41320   0.01267  Uiso   1.00
H127   H     0.65680   0.76480   0.27300   0.01267  Uiso   1.00
H128   H     0.71570   0.69030   0.20710   0.01267  Uiso   1.00
C83    C     0.20427   0.03590   0.17946   0.01267  Uiso   1.00
C84    C     0.15877   0.10102   0.11422   0.01267  Uiso   1.00
C85    C     0.06364   0.10817   0.10913   0.01267  Uiso   1.00
C86    C     0.02396   0.16675   0.04761   0.01267  Uiso   1.00
C87    C     0.08117   0.21800   0.99070   0.01267  Uiso   1.00
C88    C     0.17698   0.21039   0.99601   0.01267  Uiso   1.00
C89    C     0.21557   0.15310   0.05700   0.01267  Uiso   1.00
C90    C     0.04256   0.28175   0.92235   0.01267  Uiso   1.00
C91    C     0.24121   0.04224   0.35334   0.01267  Uiso   1.00
C92    C     0.20113   0.08083   0.39991   0.01267  Uiso   1.00
C93    C     0.13980   0.04795   0.46885   0.01267  Uiso   1.00
C94    C     0.11864   0.98123   0.48729   0.01267  Uiso   1.00
C95    C     0.16094   0.94886   0.43646   0.01267  Uiso   1.00
C96    C     0.13623   0.12947   0.52287   0.01267  Uiso   1.00
C97    C     0.04338   0.10312   0.65612   0.01267  Uiso   1.00
C98    C     0.99241   0.12684   0.76894   0.01267  Uiso   1.00
C99    C     0.01870   0.11456   0.83164   0.01267  Uiso   1.00
C100   C     0.96333   0.15984   0.87050   0.01267  Uiso   1.00
C101   C     0.85983   0.22564   0.78898   0.01267  Uiso   1.00
C102   C     0.90934   0.18221   0.74791   0.01267  Uiso   1.00
C103   C     0.58037   0.67946   0.53590   0.01267  Uiso   1.00
C104   C     0.62599   0.61422   0.60102   0.01267  Uiso   1.00
C105   C     0.71906   0.60913   0.60817   0.01267  Uiso   1.00
C106   C     0.76168   0.54761   0.66675   0.01267  Uiso   1.00
C107   C     0.71013   0.49070   0.71800   0.01267  Uiso   1.00
C108   C     0.61662   0.49601   0.71039   0.01267  Uiso   1.00
C109   C     0.57433   0.55700   0.65310   0.01267  Uiso   1.00
C110   C     0.75334   0.42235   0.78175   0.01267  Uiso   1.00
C111   C     0.36321   0.85334   0.54224   0.01267  Uiso   1.00
C112   C     0.31813   0.89991   0.58083   0.01267  Uiso   1.00
C113   C     0.34340   0.96885   0.54795   0.01267  Uiso   1.00
C114   C     0.41284   0.98729   0.48123   0.01267  Uiso   1.00
C115   C     0.45374   0.93646   0.44886   0.01267  Uiso   1.00
C116   C     0.21143   0.02287   0.62947   0.01267  Uiso   1.00
C117   C     0.19738   0.15612   0.60312   0.01267  Uiso   1.00
C118   C     0.11181   0.26894   0.62684   0.01267  Uiso   1.00
C119   C     0.03510   0.33164   0.61456   0.01267  Uiso   1.00
C120   C     0.00633   0.37050   0.65984   0.01267  Uiso   1.00
C121   C     0.12555   0.28898   0.72564   0.01267  Uiso   1.00
C122   C     0.16054   0.24791   0.68221   0.01267  Uiso   1.00
C123   C     0.70427   0.17946   0.03590   0.01267  Uiso   1.00
C124   C     0.65877   0.11422   0.10102   0.01267  Uiso   1.00
C125   C     0.56364   0.10913   0.10817   0.01267  Uiso   1.00
C126   C     0.52396   0.04761   0.16675   0.01267  Uiso   1.00
C127   C     0.58117   0.99070   0.21800   0.01267  Uiso   1.00
C128   C     0.67698   0.99601   0.21039   0.01267  Uiso   1.00
C129   C     0.71557   0.05700   0.15310   0.01267  Uiso   1.00
C130   C     0.54256   0.92235   0.28175   0.01267  Uiso   1.00
C131   C     0.74121   0.35334   0.04224   0.01267  Uiso   1.00
C132   C     0.70113   0.39991   0.08083   0.01267  Uiso   1.00
C133   C     0.63980   0.46885   0.04795   0.01267  Uiso   1.00
C134   C     0.61864   0.48729   0.98123   0.01267  Uiso   1.00
C135   C     0.66094   0.43646   0.94886   0.01267  Uiso   1.00
C136   C     0.63623   0.52287   0.12947   0.01267  Uiso   1.00
C137   C     0.54338   0.65612   0.10312   0.01267  Uiso   1.00
C138   C     0.49241   0.76894   0.12684   0.01267  Uiso   1.00
C139   C     0.51870   0.83164   0.11456   0.01267  Uiso   1.00
C140   C     0.46333   0.87050   0.15984   0.01267  Uiso   1.00
C141   C     0.35983   0.78898   0.22564   0.01267  Uiso   1.00
C142   C     0.40934   0.74791   0.18221   0.01267  Uiso   1.00
C143   C     0.08037   0.53590   0.67946   0.01267  Uiso   1.00
C144   C     0.12599   0.60102   0.61422   0.01267  Uiso   1.00
C145   C     0.21906   0.60817   0.60913   0.01267  Uiso   1.00
C146   C     0.26168   0.66675   0.54761   0.01267  Uiso   1.00
C147   C     0.21013   0.71800   0.49070   0.01267  Uiso   1.00
C148   C     0.11662   0.71039   0.49601   0.01267  Uiso   1.00
C149   C     0.07433   0.65310   0.55700   0.01267  Uiso   1.00
C150   C     0.25334   0.78175   0.42235   0.01267  Uiso   1.00
C151   C     0.86321   0.54224   0.85334   0.01267  Uiso   1.00
C152   C     0.81813   0.58083   0.89991   0.01267  Uiso   1.00
C153   C     0.84340   0.54795   0.96885   0.01267  Uiso   1.00
C154   C     0.91284   0.48123   0.98729   0.01267  Uiso   1.00
C155   C     0.95374   0.44886   0.93646   0.01267  Uiso   1.00
C156   C     0.71143   0.62947   0.02287   0.01267  Uiso   1.00
C157   C     0.69738   0.60312   0.15612   0.01267  Uiso   1.00
C158   C     0.61181   0.62684   0.26894   0.01267  Uiso   1.00
C159   C     0.53510   0.61456   0.33164   0.01267  Uiso   1.00
C160   C     0.50633   0.65984   0.37050   0.01267  Uiso   1.00
C161   C     0.62555   0.72564   0.28898   0.01267  Uiso   1.00
C162   C     0.66054   0.68221   0.24791   0.01267  Uiso   1.00
C163   C     0.14686   0.10314   0.60314   0.01267  Uiso   1.00
C164   C     0.64686   0.60314   0.10314   0.01267  Uiso   1.00
N9     N     0.22308   0.97784   0.36962   0.01267  Uiso   1.00
N10    N     0.88484   0.21516   0.85022   0.01267  Uiso   1.00
N11    N     0.42946   0.86962   0.47784   0.01267  Uiso   1.00
N12    N     0.04978   0.35022   0.71516   0.01267  Uiso   1.00
N13    N     0.72308   0.36962   0.97784   0.01267  Uiso   1.00
N14    N     0.38484   0.85022   0.21516   0.01267  Uiso   1.00
N15    N     0.92946   0.47784   0.86962   0.01267  Uiso   1.00
N16    N     0.54978   0.71516   0.35022   0.01267  Uiso   1.00
O25    O     0.28875   0.03404   0.18280   0.01267  Uiso   1.00
O26    O     0.15598   0.98625   0.22683   0.01267  Uiso   1.00
O27    O     0.10041   0.32268   0.87100   0.01267  Uiso   1.00
O28    O     0.95361   0.29265   0.91941   0.01267  Uiso   1.00
O29    O     0.09466   0.07734   0.52168   0.01267  Uiso   1.00
O30    O     0.05328   0.08347   0.73119   0.01267  Uiso   1.00
O31    O     0.49441   0.68280   0.53404   0.01267  Uiso   1.00
O32    O     0.63094   0.72683   0.48625   0.01267  Uiso   1.00
O33    O     0.70591   0.37100   0.82268   0.01267  Uiso   1.00
O34    O     0.83433   0.41941   0.79265   0.01267  Uiso   1.00
O35    O     0.30632   0.02168   0.57734   0.01267  Uiso   1.00
O36    O     0.13206   0.23119   0.58347   0.01267  Uiso   1.00
O37    O     0.78875   0.18280   0.03404   0.01267  Uiso   1.00
O38    O     0.65598   0.22683   0.98625   0.01267  Uiso   1.00
O39    O     0.60041   0.87100   0.32268   0.01267  Uiso   1.00
O40    O     0.45361   0.91941   0.29265   0.01267  Uiso   1.00
O41    O     0.59466   0.52168   0.07734   0.01267  Uiso   1.00
O42    O     0.55328   0.73119   0.08347   0.01267  Uiso   1.00
O43    O     0.99441   0.53404   0.68280   0.01267  Uiso   1.00
O44    O     0.13094   0.48625   0.72683   0.01267  Uiso   1.00
O45    O     0.20591   0.82268   0.37100   0.01267  Uiso   1.00
O46    O     0.33433   0.79265   0.41941   0.01267  Uiso   1.00
O47    O     0.80632   0.57734   0.02168   0.01267  Uiso   1.00
O48    O     0.63206   0.58347   0.23119   0.01267  Uiso   1.00
