data_image0
_cell_length_a       9.296
_cell_length_b       25.562
_cell_length_c       7.811
_cell_angle_alpha    90
_cell_angle_beta     97.27
_cell_angle_gamma    90

_symmetry_space_group_name_H-M    "P 1"
_symmetry_int_tables_number       1

loop_
  _symmetry_equiv_pos_as_xyz
  'x, y, z'

loop_
  _atom_site_label
  _atom_site_occupancy
  _atom_site_fract_x
  _atom_site_fract_y
  _atom_site_fract_z
  _atom_site_thermal_displace_type
  _atom_site_B_iso_or_equiv
  _atom_site_type_symbol
  Sm1      1.0000 0.51334  0.65038  0.58754  Biso   1.000  Sm
  O1       1.0000 0.49410  0.70606  0.33320  Biso   1.000  O
  O2       1.0000 0.59510  0.76562  0.17650  Biso   1.000  O
  O3       1.0000 0.26320  0.65598  0.49410  Biso   1.000  O
  O4       1.0000 0.14170  0.58853  0.58840  Biso   1.000  O
  O5       1.0000 0.19070  0.48361  0.43680  Biso   1.000  O
  O6       1.0000 0.34030  0.50842  0.24850  Biso   1.000  O
  O7       1.0000 0.70720  0.62278  0.80190  Biso   1.000  O
  O8       1.0000 0.61620  0.61690  0.05160  Biso   1.000  O
  N1       1.0000 0.75150  0.66621  0.45310  Biso   1.000  N
  N2       1.0000 0.97010  0.53327  0.27150  Biso   1.000  N
  C1       1.0000 0.60030  0.72770  0.27760  Biso   1.000  C
  C2       1.0000 0.74870  0.70460  0.33570  Biso   1.000  C
  C3       1.0000 0.87100  0.72220  0.26890  Biso   1.000  C
  C4       1.0000 0.00380  0.69900  0.32730  Biso   1.000  C
  C5       1.0000 0.00850  0.65870  0.44690  Biso   1.000  C
  C6       1.0000 0.87960  0.64330  0.50610  Biso   1.000  C
  C7       1.0000 0.14840  0.63160  0.51540  Biso   1.000  C
  C8       1.0000 0.22060  0.50760  0.30220  Biso   1.000  C
  C9       1.0000 0.09590  0.53640  0.20130  Biso   1.000  C
  C10      1.0000 0.10610  0.56430  0.05030  Biso   1.000  C
  C11      1.0000 0.98080  0.58820  0.96910  Biso   1.000  C
  C12      1.0000 0.85160  0.58460  0.04070  Biso   1.000  C
  C13      1.0000 0.84990  0.55680  0.19390  Biso   1.000  C
  C14      1.0000 0.71370  0.61010  0.95830  Biso   1.000  C
  Sm2      1.0000 0.48666  0.15038  0.91246  Biso   1.000  Sm
  O9       1.0000 0.50590  0.20606  0.16680  Biso   1.000  O
  O10      1.0000 0.40490  0.26562  0.32350  Biso   1.000  O
  O11      1.0000 0.73680  0.15598  0.00590  Biso   1.000  O
  O12      1.0000 0.85830  0.08853  0.91160  Biso   1.000  O
  O13      1.0000 0.80930  0.98361  0.06320  Biso   1.000  O
  O14      1.0000 0.65970  0.00842  0.25150  Biso   1.000  O
  O15      1.0000 0.29280  0.12278  0.69810  Biso   1.000  O
  O16      1.0000 0.38380  0.11690  0.44840  Biso   1.000  O
  N3       1.0000 0.24850  0.16621  0.04690  Biso   1.000  N
  N4       1.0000 0.02990  0.03327  0.22850  Biso   1.000  N
  C15      1.0000 0.39970  0.22770  0.22240  Biso   1.000  C
  C16      1.0000 0.25130  0.20460  0.16430  Biso   1.000  C
  C17      1.0000 0.12900  0.22220  0.23110  Biso   1.000  C
  C18      1.0000 0.99620  0.19900  0.17270  Biso   1.000  C
  C19      1.0000 0.99150  0.15870  0.05310  Biso   1.000  C
  C20      1.0000 0.12040  0.14330  0.99390  Biso   1.000  C
  C21      1.0000 0.85160  0.13160  0.98460  Biso   1.000  C
  C22      1.0000 0.77940  0.00760  0.19780  Biso   1.000  C
  C23      1.0000 0.90410  0.03640  0.29870  Biso   1.000  C
  C24      1.0000 0.89390  0.06430  0.44970  Biso   1.000  C
  C25      1.0000 0.01920  0.08820  0.53090  Biso   1.000  C
  C26      1.0000 0.14840  0.08460  0.45930  Biso   1.000  C
  C27      1.0000 0.15010  0.05680  0.30610  Biso   1.000  C
  C28      1.0000 0.28630  0.11010  0.54170  Biso   1.000  C
  Sm3      1.0000 0.48666  0.34962  0.41246  Biso   1.000  Sm
  O17      1.0000 0.50590  0.29394  0.66680  Biso   1.000  O
  O18      1.0000 0.40490  0.23438  0.82350  Biso   1.000  O
  O19      1.0000 0.73680  0.34402  0.50590  Biso   1.000  O
  O20      1.0000 0.85830  0.41147  0.41160  Biso   1.000  O
  O21      1.0000 0.80930  0.51639  0.56320  Biso   1.000  O
  O22      1.0000 0.65970  0.49158  0.75150  Biso   1.000  O
  O23      1.0000 0.29280  0.37722  0.19810  Biso   1.000  O
  O24      1.0000 0.38380  0.38310  0.94840  Biso   1.000  O
  N5       1.0000 0.24850  0.33379  0.54690  Biso   1.000  N
  N6       1.0000 0.02990  0.46673  0.72850  Biso   1.000  N
  C29      1.0000 0.39970  0.27230  0.72240  Biso   1.000  C
  C30      1.0000 0.25130  0.29540  0.66430  Biso   1.000  C
  C31      1.0000 0.12900  0.27780  0.73110  Biso   1.000  C
  C32      1.0000 0.99620  0.30100  0.67270  Biso   1.000  C
  C33      1.0000 0.99150  0.34130  0.55310  Biso   1.000  C
  C34      1.0000 0.12040  0.35670  0.49390  Biso   1.000  C
  C35      1.0000 0.85160  0.36840  0.48460  Biso   1.000  C
  C36      1.0000 0.77940  0.49240  0.69780  Biso   1.000  C
  C37      1.0000 0.90410  0.46360  0.79870  Biso   1.000  C
  C38      1.0000 0.89390  0.43570  0.94970  Biso   1.000  C
  C39      1.0000 0.01920  0.41180  0.03090  Biso   1.000  C
  C40      1.0000 0.14840  0.41540  0.95930  Biso   1.000  C
  C41      1.0000 0.15010  0.44320  0.80610  Biso   1.000  C
  C42      1.0000 0.28630  0.38990  0.04170  Biso   1.000  C
  Sm4      1.0000 0.51334  0.84962  0.08754  Biso   1.000  Sm
  O25      1.0000 0.49410  0.79394  0.83320  Biso   1.000  O
  O26      1.0000 0.59510  0.73438  0.67650  Biso   1.000  O
  O27      1.0000 0.26320  0.84402  0.99410  Biso   1.000  O
  O28      1.0000 0.14170  0.91147  0.08840  Biso   1.000  O
  O29      1.0000 0.19070  0.01639  0.93680  Biso   1.000  O
  O30      1.0000 0.34030  0.99158  0.74850  Biso   1.000  O
  O31      1.0000 0.70720  0.87722  0.30190  Biso   1.000  O
  O32      1.0000 0.61620  0.88310  0.55160  Biso   1.000  O
  N7       1.0000 0.75150  0.83379  0.95310  Biso   1.000  N
  N8       1.0000 0.97010  0.96673  0.77150  Biso   1.000  N
  C43      1.0000 0.60030  0.77230  0.77760  Biso   1.000  C
  C44      1.0000 0.74870  0.79540  0.83570  Biso   1.000  C
  C45      1.0000 0.87100  0.77780  0.76890  Biso   1.000  C
  C46      1.0000 0.00380  0.80100  0.82730  Biso   1.000  C
  C47      1.0000 0.00850  0.84130  0.94690  Biso   1.000  C
  C48      1.0000 0.87960  0.85670  0.00610  Biso   1.000  C
  C49      1.0000 0.14840  0.86840  0.01540  Biso   1.000  C
  C50      1.0000 0.22060  0.99240  0.80220  Biso   1.000  C
  C51      1.0000 0.09590  0.96360  0.70130  Biso   1.000  C
  C52      1.0000 0.10610  0.93570  0.55030  Biso   1.000  C
  C53      1.0000 0.98080  0.91180  0.46910  Biso   1.000  C
  C54      1.0000 0.85160  0.91540  0.54070  Biso   1.000  C
  C55      1.0000 0.84990  0.94320  0.69390  Biso   1.000  C
  C56      1.0000 0.71370  0.88990  0.45830  Biso   1.000  C
  Cu1      1.0000 0.00000  0.50000  0.50000  Biso   1.000  Cu
  Cu2      1.0000 0.00000  0.00000  0.00000  Biso   1.000  Cu
