data_image0
_cell_length_a       9.1721
_cell_length_b       25.4
_cell_length_c       7.7385
_cell_angle_alpha    90
_cell_angle_beta     97.339
_cell_angle_gamma    90

_symmetry_space_group_name_H-M    "P 1"
_symmetry_int_tables_number       1

loop_
  _symmetry_equiv_pos_as_xyz
  'x, y, z'

loop_
  _atom_site_label
  _atom_site_occupancy
  _atom_site_fract_x
  _atom_site_fract_y
  _atom_site_fract_z
  _atom_site_thermal_displace_type
  _atom_site_B_iso_or_equiv
  _atom_site_type_symbol
  Er1      1.0000 0.51120  0.65115  0.58771  Biso   1.000  Er
  O1       1.0000 0.48600  0.70740  0.34100  Biso   1.000  O
  O2       1.0000 0.58470  0.76690  0.18150  Biso   1.000  O
  O3       1.0000 0.26610  0.65650  0.49430  Biso   1.000  O
  O4       1.0000 0.14290  0.58830  0.59030  Biso   1.000  O
  O5       1.0000 0.19250  0.48310  0.43580  Biso   1.000  O
  O6       1.0000 0.34550  0.50870  0.24850  Biso   1.000  O
  O7       1.0000 0.70150  0.62430  0.79760  Biso   1.000  O
  O8       1.0000 0.61220  0.61820  0.05110  Biso   1.000  O
  N1       1.0000 0.74740  0.66730  0.46020  Biso   1.000  N
  N2       1.0000 0.96940  0.53370  0.26900  Biso   1.000  N
  C1       1.0000 0.59310  0.72860  0.28520  Biso   1.000  C
  C2       1.0000 0.74380  0.70620  0.34290  Biso   1.000  C
  C3       1.0000 0.86740  0.72330  0.27560  Biso   1.000  C
  C4       1.0000 0.00100  0.70020  0.32910  Biso   1.000  C
  C5       1.0000 0.00620  0.65930  0.45090  Biso   1.000  C
  C6       1.0000 0.87690  0.64400  0.51130  Biso   1.000  C
  C7       1.0000 0.14840  0.63210  0.51750  Biso   1.000  C
  C8       1.0000 0.22450  0.50800  0.30140  Biso   1.000  C
  C9       1.0000 0.09700  0.53740  0.19980  Biso   1.000  C
  C10      1.0000 0.10750  0.56600  0.04800  Biso   1.000  C
  C11      1.0000 0.98040  0.59020  0.96710  Biso   1.000  C
  C12      1.0000 0.84930  0.58620  0.03910  Biso   1.000  C
  C13      1.0000 0.84900  0.55760  0.19170  Biso   1.000  C
  C14      1.0000 0.71070  0.61160  0.95680  Biso   1.000  C
  Er2      1.0000 0.48880  0.15115  0.91229  Biso   1.000  Er
  O9       1.0000 0.51400  0.20740  0.15900  Biso   1.000  O
  O10      1.0000 0.41530  0.26690  0.31850  Biso   1.000  O
  O11      1.0000 0.73390  0.15650  0.00570  Biso   1.000  O
  O12      1.0000 0.85710  0.08830  0.90970  Biso   1.000  O
  O13      1.0000 0.80750  0.98310  0.06420  Biso   1.000  O
  O14      1.0000 0.65450  0.00870  0.25150  Biso   1.000  O
  O15      1.0000 0.29850  0.12430  0.70240  Biso   1.000  O
  O16      1.0000 0.38780  0.11820  0.44890  Biso   1.000  O
  N3       1.0000 0.25260  0.16730  0.03980  Biso   1.000  N
  N4       1.0000 0.03060  0.03370  0.23100  Biso   1.000  N
  C15      1.0000 0.40690  0.22860  0.21480  Biso   1.000  C
  C16      1.0000 0.25620  0.20620  0.15710  Biso   1.000  C
  C17      1.0000 0.13260  0.22330  0.22440  Biso   1.000  C
  C18      1.0000 0.99900  0.20020  0.17090  Biso   1.000  C
  C19      1.0000 0.99380  0.15930  0.04910  Biso   1.000  C
  C20      1.0000 0.12310  0.14400  0.98870  Biso   1.000  C
  C21      1.0000 0.85160  0.13210  0.98250  Biso   1.000  C
  C22      1.0000 0.77550  0.00800  0.19860  Biso   1.000  C
  C23      1.0000 0.90300  0.03740  0.30020  Biso   1.000  C
  C24      1.0000 0.89250  0.06600  0.45200  Biso   1.000  C
  C25      1.0000 0.01960  0.09020  0.53290  Biso   1.000  C
  C26      1.0000 0.15070  0.08620  0.46090  Biso   1.000  C
  C27      1.0000 0.15100  0.05760  0.30830  Biso   1.000  C
  C28      1.0000 0.28930  0.11160  0.54320  Biso   1.000  C
  Er3      1.0000 0.48880  0.34885  0.41229  Biso   1.000  Er
  O17      1.0000 0.51400  0.29260  0.65900  Biso   1.000  O
  O18      1.0000 0.41530  0.23310  0.81850  Biso   1.000  O
  O19      1.0000 0.73390  0.34350  0.50570  Biso   1.000  O
  O20      1.0000 0.85710  0.41170  0.40970  Biso   1.000  O
  O21      1.0000 0.80750  0.51690  0.56420  Biso   1.000  O
  O22      1.0000 0.65450  0.49130  0.75150  Biso   1.000  O
  O23      1.0000 0.29850  0.37570  0.20240  Biso   1.000  O
  O24      1.0000 0.38780  0.38180  0.94890  Biso   1.000  O
  N5       1.0000 0.25260  0.33270  0.53980  Biso   1.000  N
  N6       1.0000 0.03060  0.46630  0.73100  Biso   1.000  N
  C29      1.0000 0.40690  0.27140  0.71480  Biso   1.000  C
  C30      1.0000 0.25620  0.29380  0.65710  Biso   1.000  C
  C31      1.0000 0.13260  0.27670  0.72440  Biso   1.000  C
  C32      1.0000 0.99900  0.29980  0.67090  Biso   1.000  C
  C33      1.0000 0.99380  0.34070  0.54910  Biso   1.000  C
  C34      1.0000 0.12310  0.35600  0.48870  Biso   1.000  C
  C35      1.0000 0.85160  0.36790  0.48250  Biso   1.000  C
  C36      1.0000 0.77550  0.49200  0.69860  Biso   1.000  C
  C37      1.0000 0.90300  0.46260  0.80020  Biso   1.000  C
  C38      1.0000 0.89250  0.43400  0.95200  Biso   1.000  C
  C39      1.0000 0.01960  0.40980  0.03290  Biso   1.000  C
  C40      1.0000 0.15070  0.41380  0.96090  Biso   1.000  C
  C41      1.0000 0.15100  0.44240  0.80830  Biso   1.000  C
  C42      1.0000 0.28930  0.38840  0.04320  Biso   1.000  C
  Er4      1.0000 0.51120  0.84885  0.08771  Biso   1.000  Er
  O25      1.0000 0.48600  0.79260  0.84100  Biso   1.000  O
  O26      1.0000 0.58470  0.73310  0.68150  Biso   1.000  O
  O27      1.0000 0.26610  0.84350  0.99430  Biso   1.000  O
  O28      1.0000 0.14290  0.91170  0.09030  Biso   1.000  O
  O29      1.0000 0.19250  0.01690  0.93580  Biso   1.000  O
  O30      1.0000 0.34550  0.99130  0.74850  Biso   1.000  O
  O31      1.0000 0.70150  0.87570  0.29760  Biso   1.000  O
  O32      1.0000 0.61220  0.88180  0.55110  Biso   1.000  O
  N7       1.0000 0.74740  0.83270  0.96020  Biso   1.000  N
  N8       1.0000 0.96940  0.96630  0.76900  Biso   1.000  N
  C43      1.0000 0.59310  0.77140  0.78520  Biso   1.000  C
  C44      1.0000 0.74380  0.79380  0.84290  Biso   1.000  C
  C45      1.0000 0.86740  0.77670  0.77560  Biso   1.000  C
  C46      1.0000 0.00100  0.79980  0.82910  Biso   1.000  C
  C47      1.0000 0.00620  0.84070  0.95090  Biso   1.000  C
  C48      1.0000 0.87690  0.85600  0.01130  Biso   1.000  C
  C49      1.0000 0.14840  0.86790  0.01750  Biso   1.000  C
  C50      1.0000 0.22450  0.99200  0.80140  Biso   1.000  C
  C51      1.0000 0.09700  0.96260  0.69980  Biso   1.000  C
  C52      1.0000 0.10750  0.93400  0.54800  Biso   1.000  C
  C53      1.0000 0.98040  0.90980  0.46710  Biso   1.000  C
  C54      1.0000 0.84930  0.91380  0.53910  Biso   1.000  C
  C55      1.0000 0.84900  0.94240  0.69170  Biso   1.000  C
  C56      1.0000 0.71070  0.88840  0.45680  Biso   1.000  C
  Cu1      1.0000 0.00000  0.50000  0.50000  Biso   1.000  Cu
  Cu2      1.0000 0.00000  0.00000  0.00000  Biso   1.000  Cu
