data_QUQFOY_clean
_audit_creation_date              2014-07-02
_audit_creation_method            'Materials Studio'
_symmetry_space_group_name_H-M    'P1'
_symmetry_Int_Tables_number       1
_symmetry_cell_setting            triclinic
loop_
_symmetry_equiv_pos_as_xyz
  x,y,z
_cell_length_a                    18.1630
_cell_length_b                    19.9369
_cell_length_c                    19.9369
_cell_angle_alpha                 109.0700
_cell_angle_beta                  108.0030
_cell_angle_gamma                 71.9969
loop_
_atom_site_label
_atom_site_type_symbol
_atom_site_fract_x
_atom_site_fract_y
_atom_site_fract_z
_atom_site_U_iso_or_equiv
_atom_site_adp_type
_atom_site_occupancy
Cd1    Cd    0.89968   0.26249   0.94515   0.01267  Uiso   1.00
Cd2    Cd    0.93489   0.15746   0.77086   0.01267  Uiso   1.00
Cd3    Cd    0.66522   0.46833   0.34679   0.01267  Uiso   1.00
Cd4    Cd    0.60032   0.94515   0.26249   0.01267  Uiso   1.00
Cd5    Cd    0.56511   0.77086   0.15746   0.01267  Uiso   1.00
Cd6    Cd    0.83478   0.34679   0.46833   0.01267  Uiso   1.00
Cd7    Cd    0.10032   0.73751   0.05485   0.01267  Uiso   1.00
Cd8    Cd    0.06511   0.84254   0.22914   0.01267  Uiso   1.00
Cd9    Cd    0.33478   0.53167   0.65321   0.01267  Uiso   1.00
Cd10   Cd    0.39968   0.05485   0.73751   0.01267  Uiso   1.00
Cd11   Cd    0.43489   0.22914   0.84254   0.01267  Uiso   1.00
Cd12   Cd    0.16522   0.65321   0.53167   0.01267  Uiso   1.00
H1     H     0.67450   0.15940   0.84280   0.01267  Uiso   1.00
H2     H     0.65740   0.96160   0.70680   0.01267  Uiso   1.00
H3     H     0.86420   0.01930   0.78010   0.01267  Uiso   1.00
H4     H     0.72370   0.89880   0.60260   0.01267  Uiso   1.00
H5     H     0.90500   0.72720   0.59660   0.01267  Uiso   1.00
H6     H     0.90690   0.89290   0.77390   0.01267  Uiso   1.00
H7     H     0.73720   0.86630   0.47950   0.01267  Uiso   1.00
H8     H     0.66340   0.69980   0.32260   0.01267  Uiso   1.00
H9     H     0.78510   0.67120   0.52360   0.01267  Uiso   1.00
H10    H     0.04960   0.71720   0.64580   0.01267  Uiso   1.00
H11    H     0.18520   0.65540   0.82540   0.01267  Uiso   1.00
H12    H     0.97340   0.79790   0.82850   0.01267  Uiso   1.00
H13    H     0.82550   0.84280   0.15940   0.01267  Uiso   1.00
H14    H     0.84260   0.70680   0.96160   0.01267  Uiso   1.00
H15    H     0.63580   0.78010   0.01930   0.01267  Uiso   1.00
H16    H     0.77630   0.60260   0.89880   0.01267  Uiso   1.00
H17    H     0.59500   0.59660   0.72720   0.01267  Uiso   1.00
H18    H     0.59310   0.77390   0.89290   0.01267  Uiso   1.00
H19    H     0.76280   0.47950   0.86630   0.01267  Uiso   1.00
H20    H     0.83660   0.32260   0.69980   0.01267  Uiso   1.00
H21    H     0.71490   0.52360   0.67120   0.01267  Uiso   1.00
H22    H     0.45040   0.64580   0.71720   0.01267  Uiso   1.00
H23    H     0.31480   0.82540   0.65540   0.01267  Uiso   1.00
H24    H     0.52660   0.82850   0.79790   0.01267  Uiso   1.00
H25    H     0.32550   0.84060   0.15720   0.01267  Uiso   1.00
H26    H     0.34260   0.03840   0.29320   0.01267  Uiso   1.00
H27    H     0.13580   0.98070   0.21990   0.01267  Uiso   1.00
H28    H     0.27630   0.10120   0.39740   0.01267  Uiso   1.00
H29    H     0.09500   0.27280   0.40340   0.01267  Uiso   1.00
H30    H     0.09310   0.10710   0.22610   0.01267  Uiso   1.00
H31    H     0.26280   0.13370   0.52050   0.01267  Uiso   1.00
H32    H     0.33660   0.30020   0.67740   0.01267  Uiso   1.00
H33    H     0.21490   0.32880   0.47640   0.01267  Uiso   1.00
H34    H     0.95040   0.28280   0.35420   0.01267  Uiso   1.00
H35    H     0.81480   0.34460   0.17460   0.01267  Uiso   1.00
H36    H     0.02660   0.20210   0.17150   0.01267  Uiso   1.00
H37    H     0.17450   0.15720   0.84060   0.01267  Uiso   1.00
H38    H     0.15740   0.29320   0.03840   0.01267  Uiso   1.00
H39    H     0.36420   0.21990   0.98070   0.01267  Uiso   1.00
H40    H     0.22370   0.39740   0.10120   0.01267  Uiso   1.00
H41    H     0.40500   0.40340   0.27280   0.01267  Uiso   1.00
H42    H     0.40690   0.22610   0.10710   0.01267  Uiso   1.00
H43    H     0.23720   0.52050   0.13370   0.01267  Uiso   1.00
H44    H     0.16340   0.67740   0.30020   0.01267  Uiso   1.00
H45    H     0.28510   0.47640   0.32880   0.01267  Uiso   1.00
H46    H     0.54960   0.35420   0.28280   0.01267  Uiso   1.00
H47    H     0.68520   0.17460   0.34460   0.01267  Uiso   1.00
H48    H     0.47340   0.17150   0.20210   0.01267  Uiso   1.00
C1     C     0.81950   0.15510   0.86610   0.01267  Uiso   1.00
C2     C     0.77790   0.09810   0.82150   0.01267  Uiso   1.00
C3     C     0.69870   0.11390   0.81730   0.01267  Uiso   1.00
C4     C     0.65250   0.06300   0.77500   0.01267  Uiso   1.00
C5     C     0.68790   0.99530   0.73530   0.01267  Uiso   1.00
C6     C     0.76890   0.97830   0.73850   0.01267  Uiso   1.00
C7     C     0.81050   0.03000   0.77980   0.01267  Uiso   1.00
C8     C     0.56140   0.07940   0.76980   0.01267  Uiso   1.00
C9     C     0.80840   0.90890   0.69690   0.01267  Uiso   1.00
C10    C     0.77280   0.87420   0.62520   0.01267  Uiso   1.00
C11    C     0.80560   0.80750   0.58730   0.01267  Uiso   1.00
C12    C     0.88100   0.77270   0.62210   0.01267  Uiso   1.00
C13    C     0.92130   0.80110   0.69070   0.01267  Uiso   1.00
C14    C     0.88150   0.87140   0.72700   0.01267  Uiso   1.00
C15    C     0.76480   0.77520   0.51360   0.01267  Uiso   1.00
C16    C     0.73300   0.81800   0.46420   0.01267  Uiso   1.00
C17    C     0.69500   0.79040   0.39260   0.01267  Uiso   1.00
C18    C     0.68890   0.71880   0.37040   0.01267  Uiso   1.00
C19    C     0.72080   0.67390   0.41930   0.01267  Uiso   1.00
C20    C     0.76140   0.70110   0.49170   0.01267  Uiso   1.00
C21    C     0.65690   0.83610   0.33890   0.01267  Uiso   1.00
C22    C     0.70970   0.59550   0.39630   0.01267  Uiso   1.00
C23    C     0.99630   0.76160   0.73120   0.01267  Uiso   1.00
C24    C     0.05660   0.71830   0.69430   0.01267  Uiso   1.00
C25    C     0.12590   0.67770   0.72850   0.01267  Uiso   1.00
C26    C     0.13880   0.68190   0.80110   0.01267  Uiso   1.00
C27    C     0.07860   0.72840   0.83800   0.01267  Uiso   1.00
C28    C     0.01100   0.76690   0.80250   0.01267  Uiso   1.00
C29    C     0.08970   0.73200   0.91760   0.01267  Uiso   1.00
C30    C     0.18840   0.62850   0.68850   0.01267  Uiso   1.00
C31    C     0.68050   0.86610   0.15510   0.01267  Uiso   1.00
C32    C     0.72210   0.82150   0.09810   0.01267  Uiso   1.00
C33    C     0.80130   0.81730   0.11390   0.01267  Uiso   1.00
C34    C     0.84750   0.77500   0.06300   0.01267  Uiso   1.00
C35    C     0.81210   0.73530   0.99530   0.01267  Uiso   1.00
C36    C     0.73110   0.73850   0.97830   0.01267  Uiso   1.00
C37    C     0.68950   0.77980   0.03000   0.01267  Uiso   1.00
C38    C     0.93860   0.76980   0.07940   0.01267  Uiso   1.00
C39    C     0.69160   0.69690   0.90890   0.01267  Uiso   1.00
C40    C     0.72720   0.62520   0.87420   0.01267  Uiso   1.00
C41    C     0.69440   0.58730   0.80750   0.01267  Uiso   1.00
C42    C     0.61900   0.62210   0.77270   0.01267  Uiso   1.00
C43    C     0.57870   0.69070   0.80110   0.01267  Uiso   1.00
C44    C     0.61850   0.72700   0.87140   0.01267  Uiso   1.00
C45    C     0.73520   0.51360   0.77520   0.01267  Uiso   1.00
C46    C     0.76700   0.46420   0.81800   0.01267  Uiso   1.00
C47    C     0.80500   0.39260   0.79040   0.01267  Uiso   1.00
C48    C     0.81110   0.37040   0.71880   0.01267  Uiso   1.00
C49    C     0.77920   0.41930   0.67390   0.01267  Uiso   1.00
C50    C     0.73860   0.49170   0.70110   0.01267  Uiso   1.00
C51    C     0.84310   0.33890   0.83610   0.01267  Uiso   1.00
C52    C     0.79030   0.39630   0.59550   0.01267  Uiso   1.00
C53    C     0.50370   0.73120   0.76160   0.01267  Uiso   1.00
C54    C     0.44340   0.69430   0.71830   0.01267  Uiso   1.00
C55    C     0.37410   0.72850   0.67770   0.01267  Uiso   1.00
C56    C     0.36120   0.80110   0.68190   0.01267  Uiso   1.00
C57    C     0.42140   0.83800   0.72840   0.01267  Uiso   1.00
C58    C     0.48900   0.80250   0.76690   0.01267  Uiso   1.00
C59    C     0.41030   0.91760   0.73200   0.01267  Uiso   1.00
C60    C     0.31160   0.68850   0.62850   0.01267  Uiso   1.00
C61    C     0.18050   0.84490   0.13390   0.01267  Uiso   1.00
C62    C     0.22210   0.90190   0.17850   0.01267  Uiso   1.00
C63    C     0.30130   0.88610   0.18270   0.01267  Uiso   1.00
C64    C     0.34750   0.93700   0.22500   0.01267  Uiso   1.00
C65    C     0.31210   0.00470   0.26470   0.01267  Uiso   1.00
C66    C     0.23110   0.02170   0.26150   0.01267  Uiso   1.00
C67    C     0.18950   0.97000   0.22020   0.01267  Uiso   1.00
C68    C     0.43860   0.92060   0.23020   0.01267  Uiso   1.00
C69    C     0.19160   0.09110   0.30310   0.01267  Uiso   1.00
C70    C     0.22720   0.12580   0.37480   0.01267  Uiso   1.00
C71    C     0.19440   0.19250   0.41270   0.01267  Uiso   1.00
C72    C     0.11900   0.22730   0.37790   0.01267  Uiso   1.00
C73    C     0.07870   0.19890   0.30930   0.01267  Uiso   1.00
C74    C     0.11850   0.12860   0.27300   0.01267  Uiso   1.00
C75    C     0.23520   0.22480   0.48640   0.01267  Uiso   1.00
C76    C     0.26700   0.18200   0.53580   0.01267  Uiso   1.00
C77    C     0.30500   0.20960   0.60740   0.01267  Uiso   1.00
C78    C     0.31110   0.28120   0.62960   0.01267  Uiso   1.00
C79    C     0.27920   0.32610   0.58070   0.01267  Uiso   1.00
C80    C     0.23860   0.29890   0.50830   0.01267  Uiso   1.00
C81    C     0.34310   0.16390   0.66110   0.01267  Uiso   1.00
C82    C     0.29030   0.40450   0.60370   0.01267  Uiso   1.00
C83    C     0.00370   0.23840   0.26880   0.01267  Uiso   1.00
C84    C     0.94340   0.28170   0.30570   0.01267  Uiso   1.00
C85    C     0.87410   0.32230   0.27150   0.01267  Uiso   1.00
C86    C     0.86120   0.31810   0.19890   0.01267  Uiso   1.00
C87    C     0.92140   0.27160   0.16200   0.01267  Uiso   1.00
C88    C     0.98900   0.23310   0.19750   0.01267  Uiso   1.00
C89    C     0.91030   0.26800   0.08240   0.01267  Uiso   1.00
C90    C     0.81160   0.37150   0.31150   0.01267  Uiso   1.00
C91    C     0.31950   0.13390   0.84490   0.01267  Uiso   1.00
C92    C     0.27790   0.17850   0.90190   0.01267  Uiso   1.00
C93    C     0.19870   0.18270   0.88610   0.01267  Uiso   1.00
C94    C     0.15250   0.22500   0.93700   0.01267  Uiso   1.00
C95    C     0.18790   0.26470   0.00470   0.01267  Uiso   1.00
C96    C     0.26890   0.26150   0.02170   0.01267  Uiso   1.00
C97    C     0.31050   0.22020   0.97000   0.01267  Uiso   1.00
C98    C     0.06140   0.23020   0.92060   0.01267  Uiso   1.00
C99    C     0.30840   0.30310   0.09110   0.01267  Uiso   1.00
C100   C     0.27280   0.37480   0.12580   0.01267  Uiso   1.00
C101   C     0.30560   0.41270   0.19250   0.01267  Uiso   1.00
C102   C     0.38100   0.37790   0.22730   0.01267  Uiso   1.00
C103   C     0.42130   0.30930   0.19890   0.01267  Uiso   1.00
C104   C     0.38150   0.27300   0.12860   0.01267  Uiso   1.00
C105   C     0.26480   0.48640   0.22480   0.01267  Uiso   1.00
C106   C     0.23300   0.53580   0.18200   0.01267  Uiso   1.00
C107   C     0.19500   0.60740   0.20960   0.01267  Uiso   1.00
C108   C     0.18890   0.62960   0.28120   0.01267  Uiso   1.00
C109   C     0.22080   0.58070   0.32610   0.01267  Uiso   1.00
C110   C     0.26140   0.50830   0.29890   0.01267  Uiso   1.00
C111   C     0.15690   0.66110   0.16390   0.01267  Uiso   1.00
C112   C     0.20970   0.60370   0.40450   0.01267  Uiso   1.00
C113   C     0.49630   0.26880   0.23840   0.01267  Uiso   1.00
C114   C     0.55660   0.30570   0.28170   0.01267  Uiso   1.00
C115   C     0.62590   0.27150   0.32230   0.01267  Uiso   1.00
C116   C     0.63880   0.19890   0.31810   0.01267  Uiso   1.00
C117   C     0.57860   0.16200   0.27160   0.01267  Uiso   1.00
C118   C     0.51100   0.19750   0.23310   0.01267  Uiso   1.00
C119   C     0.58970   0.08240   0.26800   0.01267  Uiso   1.00
C120   C     0.68840   0.31150   0.37150   0.01267  Uiso   1.00
O1     O     0.89340   0.14450   0.86150   0.01267  Uiso   1.00
O2     O     0.78920   0.21140   0.90480   0.01267  Uiso   1.00
O3     O     0.53970   0.13920   0.81840   0.01267  Uiso   1.00
O4     O     0.52160   0.04120   0.72840   0.01267  Uiso   1.00
O5     O     0.66010   0.90040   0.36260   0.01267  Uiso   1.00
O6     O     0.62860   0.80790   0.27630   0.01267  Uiso   1.00
O7     O     0.68260   0.57060   0.33000   0.01267  Uiso   1.00
O8     O     0.72550   0.56210   0.44170   0.01267  Uiso   1.00
O9     O     0.05100   0.78850   0.95410   0.01267  Uiso   1.00
O10    O     0.13800   0.67900   0.94300   0.01267  Uiso   1.00
O11    O     0.25990   0.60890   0.72870   0.01267  Uiso   1.00
O12    O     0.16980   0.60360   0.61920   0.01267  Uiso   1.00
O13    O     0.60660   0.86150   0.14450   0.01267  Uiso   1.00
O14    O     0.71080   0.90480   0.21140   0.01267  Uiso   1.00
O15    O     0.96030   0.81840   0.13920   0.01267  Uiso   1.00
O16    O     0.97840   0.72840   0.04120   0.01267  Uiso   1.00
O17    O     0.83990   0.36260   0.90040   0.01267  Uiso   1.00
O18    O     0.87140   0.27630   0.80790   0.01267  Uiso   1.00
O19    O     0.81740   0.33000   0.57060   0.01267  Uiso   1.00
O20    O     0.77450   0.44170   0.56210   0.01267  Uiso   1.00
O21    O     0.44900   0.95410   0.78850   0.01267  Uiso   1.00
O22    O     0.36200   0.94300   0.67900   0.01267  Uiso   1.00
O23    O     0.24010   0.72870   0.60890   0.01267  Uiso   1.00
O24    O     0.33020   0.61920   0.60360   0.01267  Uiso   1.00
O25    O     0.10660   0.85550   0.13850   0.01267  Uiso   1.00
O26    O     0.21080   0.78860   0.09520   0.01267  Uiso   1.00
O27    O     0.46030   0.86080   0.18160   0.01267  Uiso   1.00
O28    O     0.47840   0.95880   0.27160   0.01267  Uiso   1.00
O29    O     0.33990   0.09960   0.63740   0.01267  Uiso   1.00
O30    O     0.37140   0.19210   0.72370   0.01267  Uiso   1.00
O31    O     0.31740   0.42940   0.67000   0.01267  Uiso   1.00
O32    O     0.27450   0.43790   0.55830   0.01267  Uiso   1.00
O33    O     0.94900   0.21150   0.04590   0.01267  Uiso   1.00
O34    O     0.86200   0.32100   0.05700   0.01267  Uiso   1.00
O35    O     0.74010   0.39110   0.27130   0.01267  Uiso   1.00
O36    O     0.83020   0.39640   0.38080   0.01267  Uiso   1.00
O37    O     0.39340   0.13850   0.85550   0.01267  Uiso   1.00
O38    O     0.28920   0.09520   0.78860   0.01267  Uiso   1.00
O39    O     0.03970   0.18160   0.86080   0.01267  Uiso   1.00
O40    O     0.02160   0.27160   0.95880   0.01267  Uiso   1.00
O41    O     0.16010   0.63740   0.09960   0.01267  Uiso   1.00
O42    O     0.12860   0.72370   0.19210   0.01267  Uiso   1.00
O43    O     0.18260   0.67000   0.42940   0.01267  Uiso   1.00
O44    O     0.22550   0.55830   0.43790   0.01267  Uiso   1.00
O45    O     0.55100   0.04590   0.21150   0.01267  Uiso   1.00
O46    O     0.63800   0.05700   0.32100   0.01267  Uiso   1.00
O47    O     0.75990   0.27130   0.39110   0.01267  Uiso   1.00
O48    O     0.66980   0.38080   0.39640   0.01267  Uiso   1.00
