data_QUQPUO_clean
_audit_creation_date              2014-07-02
_audit_creation_method            'Materials Studio'
_symmetry_space_group_name_H-M    'P1'
_symmetry_Int_Tables_number       1
_symmetry_cell_setting            triclinic
loop_
_symmetry_equiv_pos_as_xyz
  x,y,z
_cell_length_a                    7.8366
_cell_length_b                    14.7632
_cell_length_c                    17.4153
_cell_angle_alpha                 90.0000
_cell_angle_beta                  90.0000
_cell_angle_gamma                 95.4390
loop_
_atom_site_label
_atom_site_type_symbol
_atom_site_fract_x
_atom_site_fract_y
_atom_site_fract_z
_atom_site_U_iso_or_equiv
_atom_site_adp_type
_atom_site_occupancy
Zn1    Zn    0.78584   0.76267   0.75303   0.01267  Uiso   1.00
Zn2    Zn    0.71416   0.73733   0.25303   0.01267  Uiso   1.00
Zn3    Zn    0.21416   0.23733   0.24697   0.01267  Uiso   1.00
Zn4    Zn    0.28584   0.26267   0.74697   0.01267  Uiso   1.00
H1     H     0.43640   0.12930   0.56410   0.01267  Uiso   1.00
H2     H     0.91910   0.55820   0.61640   0.01267  Uiso   1.00
H3     H     0.39560   0.63720   0.00540   0.01267  Uiso   1.00
H4     H     0.93950   0.57060   0.38590   0.01267  Uiso   1.00
H5     H     0.59370   0.87850   0.56660   0.01267  Uiso   1.00
H6     H     0.41700   0.72090   0.89430   0.01267  Uiso   1.00
H7     H     0.61580   0.52320   0.78540   0.01267  Uiso   1.00
H8     H     0.60140   0.43600   0.89440   0.01267  Uiso   1.00
H9     H     0.06360   0.37070   0.06410   0.01267  Uiso   1.00
H10    H     0.58090   0.94180   0.11640   0.01267  Uiso   1.00
H11    H     0.10440   0.86280   0.50540   0.01267  Uiso   1.00
H12    H     0.56050   0.92940   0.88590   0.01267  Uiso   1.00
H13    H     0.90630   0.62150   0.06660   0.01267  Uiso   1.00
H14    H     0.08300   0.77910   0.39430   0.01267  Uiso   1.00
H15    H     0.88420   0.97680   0.28540   0.01267  Uiso   1.00
H16    H     0.89860   0.06400   0.39440   0.01267  Uiso   1.00
H17    H     0.56360   0.87070   0.43590   0.01267  Uiso   1.00
H18    H     0.08090   0.44180   0.38360   0.01267  Uiso   1.00
H19    H     0.60440   0.36280   0.99460   0.01267  Uiso   1.00
H20    H     0.06050   0.42940   0.61410   0.01267  Uiso   1.00
H21    H     0.40630   0.12150   0.43340   0.01267  Uiso   1.00
H22    H     0.58300   0.27910   0.10570   0.01267  Uiso   1.00
H23    H     0.38420   0.47680   0.21460   0.01267  Uiso   1.00
H24    H     0.39860   0.56400   0.10560   0.01267  Uiso   1.00
H25    H     0.93640   0.62930   0.93590   0.01267  Uiso   1.00
H26    H     0.41910   0.05820   0.88360   0.01267  Uiso   1.00
H27    H     0.89560   0.13720   0.49460   0.01267  Uiso   1.00
H28    H     0.43950   0.07060   0.11410   0.01267  Uiso   1.00
H29    H     0.09370   0.37850   0.93340   0.01267  Uiso   1.00
H30    H     0.91700   0.22090   0.60570   0.01267  Uiso   1.00
H31    H     0.11580   0.02320   0.71460   0.01267  Uiso   1.00
H32    H     0.10140   0.93600   0.60560   0.01267  Uiso   1.00
C1     C     0.91110   0.57932   0.50159   0.01267  Uiso   1.00
C2     C     0.81870   0.66186   0.50266   0.01267  Uiso   1.00
C3     C     0.47920   0.08387   0.70410   0.01267  Uiso   1.00
C4     C     0.51930   0.00519   0.58090   0.01267  Uiso   1.00
C5     C     0.60650   0.94113   0.70556   0.01267  Uiso   1.00
C6     C     0.46240   0.07708   0.53856   0.01267  Uiso   1.00
C7     C     0.75270   0.69253   0.43404   0.01267  Uiso   1.00
C8     C     0.95100   0.53501   0.56942   0.01267  Uiso   1.00
C9     C     0.50230   0.52693   0.96418   0.01267  Uiso   1.00
C10    C     0.79530   0.70666   0.57215   0.01267  Uiso   1.00
C11    C     0.53710   0.01046   0.66501   0.01267  Uiso   1.00
C12    C     0.44370   0.61356   0.96188   0.01267  Uiso   1.00
C13    C     0.96330   0.54235   0.43188   0.01267  Uiso   1.00
C14    C     0.55620   0.92760   0.54014   0.01267  Uiso   1.00
C15    C     0.45720   0.66365   0.89530   0.01267  Uiso   1.00
C16    C     0.57530   0.54672   0.83069   0.01267  Uiso   1.00
C17    C     0.56540   0.49423   0.89587   0.01267  Uiso   1.00
C18    C     0.58890   0.92068   0.00159   0.01267  Uiso   1.00
C19    C     0.68130   0.83814   0.00266   0.01267  Uiso   1.00
C20    C     0.02080   0.41613   0.20410   0.01267  Uiso   1.00
C21    C     0.98070   0.49481   0.08090   0.01267  Uiso   1.00
C22    C     0.89350   0.55887   0.20556   0.01267  Uiso   1.00
C23    C     0.03760   0.42292   0.03856   0.01267  Uiso   1.00
C24    C     0.74730   0.80747   0.93404   0.01267  Uiso   1.00
C25    C     0.54900   0.96499   0.06942   0.01267  Uiso   1.00
C26    C     0.99770   0.97307   0.46418   0.01267  Uiso   1.00
C27    C     0.70470   0.79334   0.07215   0.01267  Uiso   1.00
C28    C     0.96290   0.48954   0.16501   0.01267  Uiso   1.00
C29    C     0.05630   0.88644   0.46188   0.01267  Uiso   1.00
C30    C     0.53670   0.95765   0.93188   0.01267  Uiso   1.00
C31    C     0.94380   0.57240   0.04014   0.01267  Uiso   1.00
C32    C     0.04280   0.83635   0.39530   0.01267  Uiso   1.00
C33    C     0.92470   0.95328   0.33069   0.01267  Uiso   1.00
C34    C     0.93460   0.00577   0.39587   0.01267  Uiso   1.00
C35    C     0.08890   0.42068   0.49841   0.01267  Uiso   1.00
C36    C     0.18130   0.33814   0.49734   0.01267  Uiso   1.00
C37    C     0.52080   0.91613   0.29590   0.01267  Uiso   1.00
C38    C     0.48070   0.99481   0.41910   0.01267  Uiso   1.00
C39    C     0.39350   0.05887   0.29444   0.01267  Uiso   1.00
C40    C     0.53760   0.92292   0.46144   0.01267  Uiso   1.00
C41    C     0.24730   0.30747   0.56596   0.01267  Uiso   1.00
C42    C     0.04900   0.46499   0.43058   0.01267  Uiso   1.00
C43    C     0.49770   0.47307   0.03582   0.01267  Uiso   1.00
C44    C     0.20470   0.29334   0.42785   0.01267  Uiso   1.00
C45    C     0.46290   0.98954   0.33499   0.01267  Uiso   1.00
C46    C     0.55630   0.38644   0.03812   0.01267  Uiso   1.00
C47    C     0.03670   0.45765   0.56812   0.01267  Uiso   1.00
C48    C     0.44380   0.07240   0.45986   0.01267  Uiso   1.00
C49    C     0.54280   0.33635   0.10470   0.01267  Uiso   1.00
C50    C     0.42470   0.45328   0.16931   0.01267  Uiso   1.00
C51    C     0.43460   0.50577   0.10413   0.01267  Uiso   1.00
C52    C     0.41110   0.07932   0.99841   0.01267  Uiso   1.00
C53    C     0.31870   0.16186   0.99734   0.01267  Uiso   1.00
C54    C     0.97920   0.58387   0.79590   0.01267  Uiso   1.00
C55    C     0.01930   0.50519   0.91910   0.01267  Uiso   1.00
C56    C     0.10650   0.44113   0.79444   0.01267  Uiso   1.00
C57    C     0.96240   0.57708   0.96144   0.01267  Uiso   1.00
C58    C     0.25270   0.19253   0.06596   0.01267  Uiso   1.00
C59    C     0.45100   0.03501   0.93058   0.01267  Uiso   1.00
C60    C     0.00230   0.02693   0.53582   0.01267  Uiso   1.00
C61    C     0.29530   0.20666   0.92785   0.01267  Uiso   1.00
C62    C     0.03710   0.51046   0.83499   0.01267  Uiso   1.00
C63    C     0.94370   0.11356   0.53812   0.01267  Uiso   1.00
C64    C     0.46330   0.04235   0.06812   0.01267  Uiso   1.00
C65    C     0.05620   0.42760   0.95986   0.01267  Uiso   1.00
C66    C     0.95720   0.16365   0.60470   0.01267  Uiso   1.00
C67    C     0.07530   0.04672   0.66931   0.01267  Uiso   1.00
C68    C     0.06540   0.99423   0.60413   0.01267  Uiso   1.00
N1     N     0.66480   0.88068   0.73444   0.01267  Uiso   1.00
N2     N     0.78200   0.73752   0.63275   0.01267  Uiso   1.00
N3     N     0.52720   0.63165   0.83146   0.01267  Uiso   1.00
N4     N     0.70200   0.71136   0.37397   0.01267  Uiso   1.00
N5     N     0.42520   0.14728   0.73080   0.01267  Uiso   1.00
N6     N     0.83520   0.61932   0.23444   0.01267  Uiso   1.00
N7     N     0.71800   0.76248   0.13275   0.01267  Uiso   1.00
N8     N     0.97280   0.86835   0.33146   0.01267  Uiso   1.00
N9     N     0.79800   0.78864   0.87397   0.01267  Uiso   1.00
N10    N     0.07480   0.35272   0.23080   0.01267  Uiso   1.00
N11    N     0.33520   0.11932   0.26556   0.01267  Uiso   1.00
N12    N     0.21800   0.26248   0.36725   0.01267  Uiso   1.00
N13    N     0.47280   0.36835   0.16854   0.01267  Uiso   1.00
N14    N     0.29800   0.28864   0.62603   0.01267  Uiso   1.00
N15    N     0.57480   0.85272   0.26920   0.01267  Uiso   1.00
N16    N     0.16480   0.38068   0.76556   0.01267  Uiso   1.00
N17    N     0.28200   0.23752   0.86725   0.01267  Uiso   1.00
N18    N     0.02720   0.13165   0.66854   0.01267  Uiso   1.00
N19    N     0.20200   0.21136   0.12603   0.01267  Uiso   1.00
N20    N     0.92520   0.64728   0.76920   0.01267  Uiso   1.00
O1     O     0.54690   0.68391   0.76910   0.01267  Uiso   1.00
O2     O     0.95310   0.81609   0.26910   0.01267  Uiso   1.00
O3     O     0.45310   0.31609   0.23090   0.01267  Uiso   1.00
O4     O     0.04690   0.18391   0.73090   0.01267  Uiso   1.00
