data_QUQPOI_clean
_audit_creation_date              2015-05-19
_audit_creation_method            'Materials Studio'
_symmetry_space_group_name_H-M    'P1'
_symmetry_Int_Tables_number       1
_symmetry_cell_setting            triclinic
loop_
_symmetry_equiv_pos_as_xyz
  x,y,z
_cell_length_a                    12.6331
_cell_length_b                    7.3937
_cell_length_c                    10.9623
_cell_angle_alpha                 90.0000
_cell_angle_beta                  109.5100
_cell_angle_gamma                 90.0000
loop_
_atom_site_label
_atom_site_type_symbol
_atom_site_fract_x
_atom_site_fract_y
_atom_site_fract_z
_atom_site_U_iso_or_equiv
_atom_site_adp_type
_atom_site_occupancy
H1     H     0.01950   0.22970   0.61020   0.01267  Uiso   1.00
C2     C     0.05430   0.34050   0.84531   0.01267  Uiso   1.00
C3     C     0.01190   0.33920   0.56640   0.01267  Uiso   1.00
N4     N     0.06020   0.20580   0.90083   0.01267  Uiso   1.00
H5     H     0.98050   0.22970   0.38980   0.01267  Uiso   1.00
C6     C     0.94570   0.34050   0.15469   0.01267  Uiso   1.00
C7     C     0.98810   0.33920   0.43360   0.01267  Uiso   1.00
N8     N     0.93980   0.20580   0.09917   0.01267  Uiso   1.00
H9     H     0.98050   0.77030   0.38980   0.01267  Uiso   1.00
C10    C     0.94570   0.65950   0.15469   0.01267  Uiso   1.00
C11    C     0.98810   0.66080   0.43360   0.01267  Uiso   1.00
N12    N     0.93980   0.79420   0.09917   0.01267  Uiso   1.00
H13    H     0.01950   0.77030   0.61020   0.01267  Uiso   1.00
C14    C     0.05430   0.65950   0.84531   0.01267  Uiso   1.00
C15    C     0.01190   0.66080   0.56640   0.01267  Uiso   1.00
N16    N     0.06020   0.79420   0.90083   0.01267  Uiso   1.00
Zn17   Zn    0.00000  -0.00000   0.00000   0.01267  Uiso   1.00
H18    H     0.75000  -0.00000   0.96260   0.01267  Uiso   1.00
H19    H     0.57590  -0.00000   0.81010   0.01267  Uiso   1.00
H20    H     0.72200  -0.00000   0.53800   0.01267  Uiso   1.00
H21    H     0.89620  -0.00000   0.70060   0.01267  Uiso   1.00
C22    C     0.74450  -0.00000   0.87580   0.01267  Uiso   1.00
C23    C     0.63910  -0.00000   0.78450   0.01267  Uiso   1.00
C24    C     0.62690  -0.00000   0.65460   0.01267  Uiso   1.00
C25    C     0.51080  -0.00000   0.56200   0.01267  Uiso   1.00
C26    C     0.72590  -0.00000   0.62420   0.01267  Uiso   1.00
C27    C     0.83120  -0.00000   0.72250   0.01267  Uiso   1.00
N28    N     0.83930  -0.00000   0.84800   0.01267  Uiso   1.00
H29    H     0.25000  -0.00000   0.03740   0.01267  Uiso   1.00
H30    H     0.42410  -0.00000   0.18990   0.01267  Uiso   1.00
H31    H     0.27800  -0.00000   0.46200   0.01267  Uiso   1.00
H32    H     0.10380  -0.00000   0.29940   0.01267  Uiso   1.00
C33    C     0.25550  -0.00000   0.12420   0.01267  Uiso   1.00
C34    C     0.36090  -0.00000   0.21550   0.01267  Uiso   1.00
C35    C     0.37310  -0.00000   0.34540   0.01267  Uiso   1.00
C36    C     0.48920  -0.00000   0.43800   0.01267  Uiso   1.00
C37    C     0.27410  -0.00000   0.37580   0.01267  Uiso   1.00
C38    C     0.16880  -0.00000   0.27750   0.01267  Uiso   1.00
N39    N     0.16070  -0.00000   0.15200   0.01267  Uiso   1.00
C40    C     0.04740   0.50000   0.77720   0.01267  Uiso   1.00
C41    C     0.02470   0.50000   0.63560   0.01267  Uiso   1.00
C42    C     0.95260   0.50000   0.22280   0.01267  Uiso   1.00
C43    C     0.97530   0.50000   0.36440   0.01267  Uiso   1.00
H44    H     0.43661  -0.00000   0.59917   0.00000  Uiso   1.00
H45    H     0.56339  -0.00000   0.40083   0.00000  Uiso   1.00
