data_image0
_cell_length_a       28.3006
_cell_length_b       20.085
_cell_length_c       15.4335
_cell_angle_alpha    90
_cell_angle_beta     92.498
_cell_angle_gamma    90

_symmetry_space_group_name_H-M    "P 1"
_symmetry_int_tables_number       1

loop_
  _symmetry_equiv_pos_as_xyz
  'x, y, z'

loop_
  _atom_site_label
  _atom_site_occupancy
  _atom_site_fract_x
  _atom_site_fract_y
  _atom_site_fract_z
  _atom_site_thermal_displace_type
  _atom_site_B_iso_or_equiv
  _atom_site_type_symbol
  Zn1      1.0000 0.06489  0.00518  0.01129  Biso   1.000  Zn
  C1       1.0000 0.03607  0.12010  0.89950  Biso   1.000  C
  C2       1.0000 0.96257  0.10960  0.87910  Biso   1.000  C
  C3       1.0000 0.37618  0.18820  0.28450  Biso   1.000  C
  C4       1.0000 0.36108  0.14160  0.34270  Biso   1.000  C
  H1       1.0000 0.38290  0.12440  0.38360  Biso   1.000  H
  C5       1.0000 0.31533  0.11960  0.34290  Biso   1.000  C
  H2       1.0000 0.30630  0.08890  0.38420  Biso   1.000  H
  C6       1.0000 0.28213  0.14350  0.28030  Biso   1.000  C
  C7       1.0000 0.29709  0.18920  0.22320  Biso   1.000  C
  H3       1.0000 0.27560  0.20550  0.18110  Biso   1.000  H
  C8       1.0000 0.34359  0.21300  0.22510  Biso   1.000  C
  H4       1.0000 0.35230  0.24550  0.18600  Biso   1.000  H
  C9       1.0000 0.42629  0.21240  0.28870  Biso   1.000  C
  C10      1.0000 0.23197  0.11940  0.27730  Biso   1.000  C
  C11      1.0000 0.20961  0.10490  0.35310  Biso   1.000  C
  H5       1.0000 0.22510  0.11330  0.40630  Biso   1.000  H
  C12      1.0000 0.16436  0.07780  0.35080  Biso   1.000  C
  C13      1.0000 0.14033  0.06970  0.26940  Biso   1.000  C
  H6       1.0000 0.10980  0.05240  0.26670  Biso   1.000  H
  C14      1.0000 0.16134  0.08670  0.19530  Biso   1.000  C
  C15      1.0000 0.20712  0.11420  0.19950  Biso   1.000  C
  H7       1.0000 0.22060  0.12900  0.14900  Biso   1.000  H
  C16      1.0000 0.13984  0.05980  0.43140  Biso   1.000  C
  C17      1.0000 0.13449  0.07670  0.10890  Biso   1.000  C
  O1       1.0000 0.43677  0.25670  0.23510  Biso   1.000  O
  O2       1.0000 0.45543  0.18870  0.34040  Biso   1.000  O
  O3       1.0000 0.15649  0.07570  0.50200  Biso   1.000  O
  O4       1.0000 0.10193  0.02860  0.41990  Biso   1.000  O
  O5       1.0000 0.14792  0.10350  0.04270  Biso   1.000  O
  O6       1.0000 0.09906  0.03950  0.11220  Biso   1.000  O
  N1       1.0000 0.02345  0.07040  0.95290  Biso   1.000  N
  N2       1.0000 0.97471  0.06450  0.93790  Biso   1.000  N
  N3       1.0000 0.99883  0.14730  0.85250  Biso   1.000  N
  N4       1.0000 0.08068  0.14160  0.89410  Biso   1.000  N
  H8       1.0000 0.10300  0.12370  0.92560  Biso   1.000  H
  H9       1.0000 0.08700  0.17340  0.85910  Biso   1.000  H
  N5       1.0000 0.91681  0.11990  0.84770  Biso   1.000  N
  H10      1.0000 0.89420  0.09620  0.86650  Biso   1.000  H
  H11      1.0000 0.91090  0.15020  0.80920  Biso   1.000  H
  Zn2      1.0000 0.56489  0.50518  0.01129  Biso   1.000  Zn
  C18      1.0000 0.53607  0.62010  0.89950  Biso   1.000  C
  C19      1.0000 0.46257  0.60960  0.87910  Biso   1.000  C
  C20      1.0000 0.87618  0.68820  0.28450  Biso   1.000  C
  C21      1.0000 0.86108  0.64160  0.34270  Biso   1.000  C
  H12      1.0000 0.88290  0.62440  0.38360  Biso   1.000  H
  C22      1.0000 0.81533  0.61960  0.34290  Biso   1.000  C
  H13      1.0000 0.80630  0.58890  0.38420  Biso   1.000  H
  C23      1.0000 0.78213  0.64350  0.28030  Biso   1.000  C
  C24      1.0000 0.79709  0.68920  0.22320  Biso   1.000  C
  H14      1.0000 0.77560  0.70550  0.18110  Biso   1.000  H
  C25      1.0000 0.84359  0.71300  0.22510  Biso   1.000  C
  H15      1.0000 0.85230  0.74550  0.18600  Biso   1.000  H
  C26      1.0000 0.92629  0.71240  0.28870  Biso   1.000  C
  C27      1.0000 0.73197  0.61940  0.27730  Biso   1.000  C
  C28      1.0000 0.70961  0.60490  0.35310  Biso   1.000  C
  H16      1.0000 0.72510  0.61330  0.40630  Biso   1.000  H
  C29      1.0000 0.66436  0.57780  0.35080  Biso   1.000  C
  C30      1.0000 0.64033  0.56970  0.26940  Biso   1.000  C
  H17      1.0000 0.60980  0.55240  0.26670  Biso   1.000  H
  C31      1.0000 0.66134  0.58670  0.19530  Biso   1.000  C
  C32      1.0000 0.70712  0.61420  0.19950  Biso   1.000  C
  H18      1.0000 0.72060  0.62900  0.14900  Biso   1.000  H
  C33      1.0000 0.63984  0.55980  0.43140  Biso   1.000  C
  C34      1.0000 0.63449  0.57670  0.10890  Biso   1.000  C
  O7       1.0000 0.93677  0.75670  0.23510  Biso   1.000  O
  O8       1.0000 0.95543  0.68870  0.34040  Biso   1.000  O
  O9       1.0000 0.65649  0.57570  0.50200  Biso   1.000  O
  O10      1.0000 0.60193  0.52860  0.41990  Biso   1.000  O
  O11      1.0000 0.64792  0.60350  0.04270  Biso   1.000  O
  O12      1.0000 0.59906  0.53950  0.11220  Biso   1.000  O
  N6       1.0000 0.52345  0.57040  0.95290  Biso   1.000  N
  N7       1.0000 0.47471  0.56450  0.93790  Biso   1.000  N
  N8       1.0000 0.49883  0.64730  0.85250  Biso   1.000  N
  N9       1.0000 0.58068  0.64160  0.89410  Biso   1.000  N
  H19      1.0000 0.60300  0.62370  0.92560  Biso   1.000  H
  H20      1.0000 0.58700  0.67340  0.85910  Biso   1.000  H
  N10      1.0000 0.41681  0.61990  0.84770  Biso   1.000  N
  H21      1.0000 0.39420  0.59620  0.86650  Biso   1.000  H
  H22      1.0000 0.41090  0.65020  0.80920  Biso   1.000  H
  Zn3      1.0000 0.93511  0.00518  0.48871  Biso   1.000  Zn
  C35      1.0000 0.96393  0.12010  0.60050  Biso   1.000  C
  C36      1.0000 0.03743  0.10960  0.62090  Biso   1.000  C
  C37      1.0000 0.62382  0.18820  0.21550  Biso   1.000  C
  C38      1.0000 0.63892  0.14160  0.15730  Biso   1.000  C
  H23      1.0000 0.61710  0.12440  0.11640  Biso   1.000  H
  C39      1.0000 0.68467  0.11960  0.15710  Biso   1.000  C
  H24      1.0000 0.69370  0.08890  0.11580  Biso   1.000  H
  C40      1.0000 0.71787  0.14350  0.21970  Biso   1.000  C
  C41      1.0000 0.70291  0.18920  0.27680  Biso   1.000  C
  H25      1.0000 0.72440  0.20550  0.31890  Biso   1.000  H
  C42      1.0000 0.65641  0.21300  0.27490  Biso   1.000  C
  H26      1.0000 0.64770  0.24550  0.31400  Biso   1.000  H
  C43      1.0000 0.57371  0.21240  0.21130  Biso   1.000  C
  C44      1.0000 0.76803  0.11940  0.22270  Biso   1.000  C
  C45      1.0000 0.79039  0.10490  0.14690  Biso   1.000  C
  H27      1.0000 0.77490  0.11330  0.09370  Biso   1.000  H
  C46      1.0000 0.83564  0.07780  0.14920  Biso   1.000  C
  C47      1.0000 0.85967  0.06970  0.23060  Biso   1.000  C
  H28      1.0000 0.89020  0.05240  0.23330  Biso   1.000  H
  C48      1.0000 0.83866  0.08670  0.30470  Biso   1.000  C
  C49      1.0000 0.79288  0.11420  0.30050  Biso   1.000  C
  H29      1.0000 0.77940  0.12900  0.35100  Biso   1.000  H
  C50      1.0000 0.86016  0.05980  0.06860  Biso   1.000  C
  C51      1.0000 0.86551  0.07670  0.39110  Biso   1.000  C
  O13      1.0000 0.56323  0.25670  0.26490  Biso   1.000  O
  O14      1.0000 0.54457  0.18870  0.15960  Biso   1.000  O
  O15      1.0000 0.84351  0.07570  0.99800  Biso   1.000  O
  O16      1.0000 0.89807  0.02860  0.08010  Biso   1.000  O
  O17      1.0000 0.85208  0.10350  0.45730  Biso   1.000  O
  O18      1.0000 0.90094  0.03950  0.38780  Biso   1.000  O
  N11      1.0000 0.97655  0.07040  0.54710  Biso   1.000  N
  N12      1.0000 0.02529  0.06450  0.56210  Biso   1.000  N
  N13      1.0000 0.00117  0.14730  0.64750  Biso   1.000  N
  N14      1.0000 0.91932  0.14160  0.60590  Biso   1.000  N
  H30      1.0000 0.89700  0.12370  0.57440  Biso   1.000  H
  H31      1.0000 0.91300  0.17340  0.64090  Biso   1.000  H
  N15      1.0000 0.08319  0.11990  0.65230  Biso   1.000  N
  H32      1.0000 0.10580  0.09620  0.63350  Biso   1.000  H
  H33      1.0000 0.08910  0.15020  0.69080  Biso   1.000  H
  Zn4      1.0000 0.43511  0.50518  0.48871  Biso   1.000  Zn
  C52      1.0000 0.46393  0.62010  0.60050  Biso   1.000  C
  C53      1.0000 0.53743  0.60960  0.62090  Biso   1.000  C
  C54      1.0000 0.12382  0.68820  0.21550  Biso   1.000  C
  C55      1.0000 0.13892  0.64160  0.15730  Biso   1.000  C
  H34      1.0000 0.11710  0.62440  0.11640  Biso   1.000  H
  C56      1.0000 0.18467  0.61960  0.15710  Biso   1.000  C
  H35      1.0000 0.19370  0.58890  0.11580  Biso   1.000  H
  C57      1.0000 0.21787  0.64350  0.21970  Biso   1.000  C
  C58      1.0000 0.20291  0.68920  0.27680  Biso   1.000  C
  H36      1.0000 0.22440  0.70550  0.31890  Biso   1.000  H
  C59      1.0000 0.15641  0.71300  0.27490  Biso   1.000  C
  H37      1.0000 0.14770  0.74550  0.31400  Biso   1.000  H
  C60      1.0000 0.07371  0.71240  0.21130  Biso   1.000  C
  C61      1.0000 0.26803  0.61940  0.22270  Biso   1.000  C
  C62      1.0000 0.29039  0.60490  0.14690  Biso   1.000  C
  H38      1.0000 0.27490  0.61330  0.09370  Biso   1.000  H
  C63      1.0000 0.33564  0.57780  0.14920  Biso   1.000  C
  C64      1.0000 0.35967  0.56970  0.23060  Biso   1.000  C
  H39      1.0000 0.39020  0.55240  0.23330  Biso   1.000  H
  C65      1.0000 0.33866  0.58670  0.30470  Biso   1.000  C
  C66      1.0000 0.29288  0.61420  0.30050  Biso   1.000  C
  H40      1.0000 0.27940  0.62900  0.35100  Biso   1.000  H
  C67      1.0000 0.36016  0.55980  0.06860  Biso   1.000  C
  C68      1.0000 0.36551  0.57670  0.39110  Biso   1.000  C
  O19      1.0000 0.06323  0.75670  0.26490  Biso   1.000  O
  O20      1.0000 0.04457  0.68870  0.15960  Biso   1.000  O
  O21      1.0000 0.34351  0.57570  0.99800  Biso   1.000  O
  O22      1.0000 0.39807  0.52860  0.08010  Biso   1.000  O
  O23      1.0000 0.35208  0.60350  0.45730  Biso   1.000  O
  O24      1.0000 0.40094  0.53950  0.38780  Biso   1.000  O
  N16      1.0000 0.47655  0.57040  0.54710  Biso   1.000  N
  N17      1.0000 0.52529  0.56450  0.56210  Biso   1.000  N
  N18      1.0000 0.50117  0.64730  0.64750  Biso   1.000  N
  N19      1.0000 0.41932  0.64160  0.60590  Biso   1.000  N
  H41      1.0000 0.39700  0.62370  0.57440  Biso   1.000  H
  H42      1.0000 0.41300  0.67340  0.64090  Biso   1.000  H
  N20      1.0000 0.58319  0.61990  0.65230  Biso   1.000  N
  H43      1.0000 0.60580  0.59620  0.63350  Biso   1.000  H
  H44      1.0000 0.58910  0.65020  0.69080  Biso   1.000  H
  Zn5      1.0000 0.93511  0.99482  0.98871  Biso   1.000  Zn
  C69      1.0000 0.96393  0.87990  0.10050  Biso   1.000  C
  C70      1.0000 0.03743  0.89040  0.12090  Biso   1.000  C
  C71      1.0000 0.62382  0.81180  0.71550  Biso   1.000  C
  C72      1.0000 0.63892  0.85840  0.65730  Biso   1.000  C
  H45      1.0000 0.61710  0.87560  0.61640  Biso   1.000  H
  C73      1.0000 0.68467  0.88040  0.65710  Biso   1.000  C
  H46      1.0000 0.69370  0.91110  0.61580  Biso   1.000  H
  C74      1.0000 0.71787  0.85650  0.71970  Biso   1.000  C
  C75      1.0000 0.70291  0.81080  0.77680  Biso   1.000  C
  H47      1.0000 0.72440  0.79450  0.81890  Biso   1.000  H
  C76      1.0000 0.65641  0.78700  0.77490  Biso   1.000  C
  H48      1.0000 0.64770  0.75450  0.81400  Biso   1.000  H
  C77      1.0000 0.57371  0.78760  0.71130  Biso   1.000  C
  C78      1.0000 0.76803  0.88060  0.72270  Biso   1.000  C
  C79      1.0000 0.79039  0.89510  0.64690  Biso   1.000  C
  H49      1.0000 0.77490  0.88670  0.59370  Biso   1.000  H
  C80      1.0000 0.83564  0.92220  0.64920  Biso   1.000  C
  C81      1.0000 0.85967  0.93030  0.73060  Biso   1.000  C
  H50      1.0000 0.89020  0.94760  0.73330  Biso   1.000  H
  C82      1.0000 0.83866  0.91330  0.80470  Biso   1.000  C
  C83      1.0000 0.79288  0.88580  0.80050  Biso   1.000  C
  H51      1.0000 0.77940  0.87100  0.85100  Biso   1.000  H
  C84      1.0000 0.86016  0.94020  0.56860  Biso   1.000  C
  C85      1.0000 0.86551  0.92330  0.89110  Biso   1.000  C
  O25      1.0000 0.56323  0.74330  0.76490  Biso   1.000  O
  O26      1.0000 0.54457  0.81130  0.65960  Biso   1.000  O
  O27      1.0000 0.84351  0.92430  0.49800  Biso   1.000  O
  O28      1.0000 0.89807  0.97140  0.58010  Biso   1.000  O
  O29      1.0000 0.85208  0.89650  0.95730  Biso   1.000  O
  O30      1.0000 0.90094  0.96050  0.88780  Biso   1.000  O
  N21      1.0000 0.97655  0.92960  0.04710  Biso   1.000  N
  N22      1.0000 0.02529  0.93550  0.06210  Biso   1.000  N
  N23      1.0000 0.00117  0.85270  0.14750  Biso   1.000  N
  N24      1.0000 0.91932  0.85840  0.10590  Biso   1.000  N
  H52      1.0000 0.89700  0.87630  0.07440  Biso   1.000  H
  H53      1.0000 0.91300  0.82660  0.14090  Biso   1.000  H
  N25      1.0000 0.08319  0.88010  0.15230  Biso   1.000  N
  H54      1.0000 0.10580  0.90380  0.13350  Biso   1.000  H
  H55      1.0000 0.08910  0.84980  0.19080  Biso   1.000  H
  Zn6      1.0000 0.43511  0.49482  0.98871  Biso   1.000  Zn
  C86      1.0000 0.46393  0.37990  0.10050  Biso   1.000  C
  C87      1.0000 0.53743  0.39040  0.12090  Biso   1.000  C
  C88      1.0000 0.12382  0.31180  0.71550  Biso   1.000  C
  C89      1.0000 0.13892  0.35840  0.65730  Biso   1.000  C
  H56      1.0000 0.11710  0.37560  0.61640  Biso   1.000  H
  C90      1.0000 0.18467  0.38040  0.65710  Biso   1.000  C
  H57      1.0000 0.19370  0.41110  0.61580  Biso   1.000  H
  C91      1.0000 0.21787  0.35650  0.71970  Biso   1.000  C
  C92      1.0000 0.20291  0.31080  0.77680  Biso   1.000  C
  H58      1.0000 0.22440  0.29450  0.81890  Biso   1.000  H
  C93      1.0000 0.15641  0.28700  0.77490  Biso   1.000  C
  H59      1.0000 0.14770  0.25450  0.81400  Biso   1.000  H
  C94      1.0000 0.07371  0.28760  0.71130  Biso   1.000  C
  C95      1.0000 0.26803  0.38060  0.72270  Biso   1.000  C
  C96      1.0000 0.29039  0.39510  0.64690  Biso   1.000  C
  H60      1.0000 0.27490  0.38670  0.59370  Biso   1.000  H
  C97      1.0000 0.33564  0.42220  0.64920  Biso   1.000  C
  C98      1.0000 0.35967  0.43030  0.73060  Biso   1.000  C
  H61      1.0000 0.39020  0.44760  0.73330  Biso   1.000  H
  C99      1.0000 0.33866  0.41330  0.80470  Biso   1.000  C
  C100     1.0000 0.29288  0.38580  0.80050  Biso   1.000  C
  H62      1.0000 0.27940  0.37100  0.85100  Biso   1.000  H
  C101     1.0000 0.36016  0.44020  0.56860  Biso   1.000  C
  C102     1.0000 0.36551  0.42330  0.89110  Biso   1.000  C
  O31      1.0000 0.06323  0.24330  0.76490  Biso   1.000  O
  O32      1.0000 0.04457  0.31130  0.65960  Biso   1.000  O
  O33      1.0000 0.34351  0.42430  0.49800  Biso   1.000  O
  O34      1.0000 0.39807  0.47140  0.58010  Biso   1.000  O
  O35      1.0000 0.35208  0.39650  0.95730  Biso   1.000  O
  O36      1.0000 0.40094  0.46050  0.88780  Biso   1.000  O
  N26      1.0000 0.47655  0.42960  0.04710  Biso   1.000  N
  N27      1.0000 0.52529  0.43550  0.06210  Biso   1.000  N
  N28      1.0000 0.50117  0.35270  0.14750  Biso   1.000  N
  N29      1.0000 0.41932  0.35840  0.10590  Biso   1.000  N
  H63      1.0000 0.39700  0.37630  0.07440  Biso   1.000  H
  H64      1.0000 0.41300  0.32660  0.14090  Biso   1.000  H
  N30      1.0000 0.58319  0.38010  0.15230  Biso   1.000  N
  H65      1.0000 0.60580  0.40380  0.13350  Biso   1.000  H
  H66      1.0000 0.58910  0.34980  0.19080  Biso   1.000  H
  Zn7      1.0000 0.06489  0.99482  0.51129  Biso   1.000  Zn
  C103     1.0000 0.03607  0.87990  0.39950  Biso   1.000  C
  C104     1.0000 0.96257  0.89040  0.37910  Biso   1.000  C
  C105     1.0000 0.37618  0.81180  0.78450  Biso   1.000  C
  C106     1.0000 0.36108  0.85840  0.84270  Biso   1.000  C
  H67      1.0000 0.38290  0.87560  0.88360  Biso   1.000  H
  C107     1.0000 0.31533  0.88040  0.84290  Biso   1.000  C
  H68      1.0000 0.30630  0.91110  0.88420  Biso   1.000  H
  C108     1.0000 0.28213  0.85650  0.78030  Biso   1.000  C
  C109     1.0000 0.29709  0.81080  0.72320  Biso   1.000  C
  H69      1.0000 0.27560  0.79450  0.68110  Biso   1.000  H
  C110     1.0000 0.34359  0.78700  0.72510  Biso   1.000  C
  H70      1.0000 0.35230  0.75450  0.68600  Biso   1.000  H
  C111     1.0000 0.42629  0.78760  0.78870  Biso   1.000  C
  C112     1.0000 0.23197  0.88060  0.77730  Biso   1.000  C
  C113     1.0000 0.20961  0.89510  0.85310  Biso   1.000  C
  H71      1.0000 0.22510  0.88670  0.90630  Biso   1.000  H
  C114     1.0000 0.16436  0.92220  0.85080  Biso   1.000  C
  C115     1.0000 0.14033  0.93030  0.76940  Biso   1.000  C
  H72      1.0000 0.10980  0.94760  0.76670  Biso   1.000  H
  C116     1.0000 0.16134  0.91330  0.69530  Biso   1.000  C
  C117     1.0000 0.20712  0.88580  0.69950  Biso   1.000  C
  H73      1.0000 0.22060  0.87100  0.64900  Biso   1.000  H
  C118     1.0000 0.13984  0.94020  0.93140  Biso   1.000  C
  C119     1.0000 0.13449  0.92330  0.60890  Biso   1.000  C
  O37      1.0000 0.43677  0.74330  0.73510  Biso   1.000  O
  O38      1.0000 0.45543  0.81130  0.84040  Biso   1.000  O
  O39      1.0000 0.15649  0.92430  0.00200  Biso   1.000  O
  O40      1.0000 0.10193  0.97140  0.91990  Biso   1.000  O
  O41      1.0000 0.14792  0.89650  0.54270  Biso   1.000  O
  O42      1.0000 0.09906  0.96050  0.61220  Biso   1.000  O
  N31      1.0000 0.02345  0.92960  0.45290  Biso   1.000  N
  N32      1.0000 0.97471  0.93550  0.43790  Biso   1.000  N
  N33      1.0000 0.99883  0.85270  0.35250  Biso   1.000  N
  N34      1.0000 0.08068  0.85840  0.39410  Biso   1.000  N
  H74      1.0000 0.10300  0.87630  0.42560  Biso   1.000  H
  H75      1.0000 0.08700  0.82660  0.35910  Biso   1.000  H
  N35      1.0000 0.91681  0.88010  0.34770  Biso   1.000  N
  H76      1.0000 0.89420  0.90380  0.36650  Biso   1.000  H
  H77      1.0000 0.91090  0.84980  0.30920  Biso   1.000  H
  Zn8      1.0000 0.56489  0.49482  0.51129  Biso   1.000  Zn
  C120     1.0000 0.53607  0.37990  0.39950  Biso   1.000  C
  C121     1.0000 0.46257  0.39040  0.37910  Biso   1.000  C
  C122     1.0000 0.87618  0.31180  0.78450  Biso   1.000  C
  C123     1.0000 0.86108  0.35840  0.84270  Biso   1.000  C
  H78      1.0000 0.88290  0.37560  0.88360  Biso   1.000  H
  C124     1.0000 0.81533  0.38040  0.84290  Biso   1.000  C
  H79      1.0000 0.80630  0.41110  0.88420  Biso   1.000  H
  C125     1.0000 0.78213  0.35650  0.78030  Biso   1.000  C
  C126     1.0000 0.79709  0.31080  0.72320  Biso   1.000  C
  H80      1.0000 0.77560  0.29450  0.68110  Biso   1.000  H
  C127     1.0000 0.84359  0.28700  0.72510  Biso   1.000  C
  H81      1.0000 0.85230  0.25450  0.68600  Biso   1.000  H
  C128     1.0000 0.92629  0.28760  0.78870  Biso   1.000  C
  C129     1.0000 0.73197  0.38060  0.77730  Biso   1.000  C
  C130     1.0000 0.70961  0.39510  0.85310  Biso   1.000  C
  H82      1.0000 0.72510  0.38670  0.90630  Biso   1.000  H
  C131     1.0000 0.66436  0.42220  0.85080  Biso   1.000  C
  C132     1.0000 0.64033  0.43030  0.76940  Biso   1.000  C
  H83      1.0000 0.60980  0.44760  0.76670  Biso   1.000  H
  C133     1.0000 0.66134  0.41330  0.69530  Biso   1.000  C
  C134     1.0000 0.70712  0.38580  0.69950  Biso   1.000  C
  H84      1.0000 0.72060  0.37100  0.64900  Biso   1.000  H
  C135     1.0000 0.63984  0.44020  0.93140  Biso   1.000  C
  C136     1.0000 0.63449  0.42330  0.60890  Biso   1.000  C
  O43      1.0000 0.93677  0.24330  0.73510  Biso   1.000  O
  O44      1.0000 0.95543  0.31130  0.84040  Biso   1.000  O
  O45      1.0000 0.65649  0.42430  0.00200  Biso   1.000  O
  O46      1.0000 0.60193  0.47140  0.91990  Biso   1.000  O
  O47      1.0000 0.64792  0.39650  0.54270  Biso   1.000  O
  O48      1.0000 0.59906  0.46050  0.61220  Biso   1.000  O
  N36      1.0000 0.52345  0.42960  0.45290  Biso   1.000  N
  N37      1.0000 0.47471  0.43550  0.43790  Biso   1.000  N
  N38      1.0000 0.49883  0.35270  0.35250  Biso   1.000  N
  N39      1.0000 0.58068  0.35840  0.39410  Biso   1.000  N
  H85      1.0000 0.60300  0.37630  0.42560  Biso   1.000  H
  H86      1.0000 0.58700  0.32660  0.35910  Biso   1.000  H
  N40      1.0000 0.41681  0.38010  0.34770  Biso   1.000  N
  H87      1.0000 0.39420  0.40380  0.36650  Biso   1.000  H
  H88      1.0000 0.41090  0.34980  0.30920  Biso   1.000  H
  Zn9      1.0000 0.50000  0.29271  0.25000  Biso   1.000  Zn
  Zn10     1.0000 0.00000  0.79271  0.25000  Biso   1.000  Zn
  Zn11     1.0000 0.50000  0.70729  0.75000  Biso   1.000  Zn
  Zn12     1.0000 0.00000  0.20729  0.75000  Biso   1.000  Zn
