data_image0
_cell_length_a       23.3762
_cell_length_b       13.4461
_cell_length_c       21.3499
_cell_angle_alpha    90
_cell_angle_beta     90
_cell_angle_gamma    90

_symmetry_space_group_name_H-M    "P 1"
_symmetry_int_tables_number       1

loop_
  _symmetry_equiv_pos_as_xyz
  'x, y, z'

loop_
  _atom_site_label
  _atom_site_occupancy
  _atom_site_fract_x
  _atom_site_fract_y
  _atom_site_fract_z
  _atom_site_thermal_displace_type
  _atom_site_B_iso_or_equiv
  _atom_site_type_symbol
  C1       1.0000 0.01630  0.97770  0.27730  Biso   1.000  C
  H1       1.0000 0.99400  0.01830  0.25190  Biso   1.000  H
  N1       1.0000 0.06719  0.01140  0.29547  Biso   1.000  N
  C2       1.0000 0.99490  0.88620  0.29390  Biso   1.000  C
  H2       1.0000 0.95950  0.86490  0.27940  Biso   1.000  H
  N2       1.0000 0.16895  0.08250  0.32418  Biso   1.000  N
  C3       1.0000 0.02750  0.82690  0.33260  Biso   1.000  C
  H3       1.0000 0.01380  0.76540  0.34580  Biso   1.000  H
  C4       1.0000 0.08040  0.85950  0.35150  Biso   1.000  C
  H4       1.0000 0.10300  0.82020  0.37750  Biso   1.000  H
  C5       1.0000 0.09977  0.95240  0.33129  Biso   1.000  C
  C6       1.0000 0.15720  0.99230  0.34796  Biso   1.000  C
  C7       1.0000 0.19690  0.94110  0.38360  Biso   1.000  C
  H5       1.0000 0.18830  0.87850  0.39950  Biso   1.000  H
  C8       1.0000 0.24960  0.98410  0.39540  Biso   1.000  C
  H6       1.0000 0.27670  0.95070  0.41950  Biso   1.000  H
  C9       1.0000 0.26150  0.07520  0.37170  Biso   1.000  C
  H7       1.0000 0.29650  0.10570  0.37900  Biso   1.000  H
  C10      1.0000 0.21980  0.12110  0.33630  Biso   1.000  C
  H8       1.0000 0.22800  0.18360  0.31990  Biso   1.000  H
  Cu1      1.0000 0.10154  0.15606  0.27800  Biso   1.000  Cu
  N3       1.0000 0.09565  0.16430  0.18723  Biso   1.000  N
  C11      1.0000 0.07809  0.13790  0.13988  Biso   1.000  C
  S1       1.0000 0.06772  0.90838  0.10099  Biso   1.000  S
  Re1      1.0000 0.02764  0.08898  0.94171  Biso   1.000  Re
  S2       1.0000 0.04999  0.94669  0.87799  Biso   1.000  S
  Re2      1.0000 0.06340  0.92128  0.98851  Biso   1.000  Re
  S3       1.0000 0.00114  0.21805  0.01462  Biso   1.000  S
  S4       1.0000 0.11908  0.07290  0.99358  Biso   1.000  S
  Re3      1.0000 0.03745  0.06812  0.06278  Biso   1.000  Re
  N4       1.0000 0.07469  0.25730  0.33536  Biso   1.000  N
  C12      1.0000 0.05858  0.31100  0.37312  Biso   1.000  C
  C13      1.0000 0.23180  0.94550  0.08130  Biso   1.000  C
  H9       1.0000 0.23580  0.97720  0.04280  Biso   1.000  H
  N5       1.0000 0.24655  0.84920  0.08580  Biso   1.000  N
  C14      1.0000 0.21100  0.99900  0.13100  Biso   1.000  C
  H10      1.0000 0.20030  0.06520  0.12640  Biso   1.000  H
  C15      1.0000 0.20650  0.95230  0.18690  Biso   1.000  C
  H11      1.0000 0.19280  0.98690  0.22150  Biso   1.000  H
  C16      1.0000 0.22200  0.85360  0.19310  Biso   1.000  C
  H12      1.0000 0.21900  0.82140  0.23150  Biso   1.000  H
  C17      1.0000 0.24220  0.80380  0.14080  Biso   1.000  C
  N6       1.0000 0.17653  0.78320  0.97249  Biso   1.000  N
  C18      1.0000 0.13591  0.83050  0.97574  Biso   1.000  C
  C19      1.0000 0.48370  0.52230  0.27730  Biso   1.000  C
  H13      1.0000 0.50600  0.48170  0.25190  Biso   1.000  H
  N7       1.0000 0.43281  0.48860  0.29547  Biso   1.000  N
  C20      1.0000 0.50510  0.61380  0.29390  Biso   1.000  C
  H14      1.0000 0.54050  0.63510  0.27940  Biso   1.000  H
  N8       1.0000 0.33105  0.41750  0.32418  Biso   1.000  N
  C21      1.0000 0.47250  0.67310  0.33260  Biso   1.000  C
  H15      1.0000 0.48620  0.73460  0.34580  Biso   1.000  H
  C22      1.0000 0.41960  0.64050  0.35150  Biso   1.000  C
  H16      1.0000 0.39700  0.67980  0.37750  Biso   1.000  H
  C23      1.0000 0.40023  0.54760  0.33129  Biso   1.000  C
  C24      1.0000 0.34280  0.50770  0.34796  Biso   1.000  C
  C25      1.0000 0.30310  0.55890  0.38360  Biso   1.000  C
  H17      1.0000 0.31170  0.62150  0.39950  Biso   1.000  H
  C26      1.0000 0.25040  0.51590  0.39540  Biso   1.000  C
  H18      1.0000 0.22330  0.54930  0.41950  Biso   1.000  H
  C27      1.0000 0.23850  0.42480  0.37170  Biso   1.000  C
  H19      1.0000 0.20350  0.39430  0.37900  Biso   1.000  H
  C28      1.0000 0.28020  0.37890  0.33630  Biso   1.000  C
  H20      1.0000 0.27200  0.31640  0.31990  Biso   1.000  H
  Cu2      1.0000 0.39846  0.34394  0.27800  Biso   1.000  Cu
  N9       1.0000 0.40435  0.33570  0.18723  Biso   1.000  N
  C29      1.0000 0.42191  0.36210  0.13988  Biso   1.000  C
  S5       1.0000 0.43228  0.59162  0.10099  Biso   1.000  S
  Re4      1.0000 0.47236  0.41102  0.94171  Biso   1.000  Re
  S6       1.0000 0.45001  0.55331  0.87799  Biso   1.000  S
  Re5      1.0000 0.43660  0.57872  0.98851  Biso   1.000  Re
  S7       1.0000 0.49886  0.28195  0.01462  Biso   1.000  S
  S8       1.0000 0.38092  0.42710  0.99358  Biso   1.000  S
  Re6      1.0000 0.46255  0.43188  0.06278  Biso   1.000  Re
  N10      1.0000 0.42531  0.24270  0.33536  Biso   1.000  N
  C30      1.0000 0.44142  0.18900  0.37312  Biso   1.000  C
  C31      1.0000 0.26820  0.55450  0.08130  Biso   1.000  C
  H21      1.0000 0.26420  0.52280  0.04280  Biso   1.000  H
  N11      1.0000 0.25345  0.65080  0.08580  Biso   1.000  N
  C32      1.0000 0.28900  0.50100  0.13100  Biso   1.000  C
  H22      1.0000 0.29970  0.43480  0.12640  Biso   1.000  H
  C33      1.0000 0.29350  0.54770  0.18690  Biso   1.000  C
  H23      1.0000 0.30720  0.51310  0.22150  Biso   1.000  H
  C34      1.0000 0.27800  0.64640  0.19310  Biso   1.000  C
  H24      1.0000 0.28100  0.67860  0.23150  Biso   1.000  H
  C35      1.0000 0.25780  0.69620  0.14080  Biso   1.000  C
  N12      1.0000 0.32347  0.71680  0.97249  Biso   1.000  N
  C36      1.0000 0.36409  0.66950  0.97574  Biso   1.000  C
  C37      1.0000 0.98370  0.47770  0.22270  Biso   1.000  C
  H25      1.0000 0.00600  0.51830  0.24810  Biso   1.000  H
  N13      1.0000 0.93281  0.51140  0.20453  Biso   1.000  N
  C38      1.0000 0.00510  0.38620  0.20610  Biso   1.000  C
  H26      1.0000 0.04050  0.36490  0.22060  Biso   1.000  H
  N14      1.0000 0.83105  0.58250  0.17582  Biso   1.000  N
  C39      1.0000 0.97250  0.32690  0.16740  Biso   1.000  C
  H27      1.0000 0.98620  0.26540  0.15420  Biso   1.000  H
  C40      1.0000 0.91960  0.35950  0.14850  Biso   1.000  C
  H28      1.0000 0.89700  0.32020  0.12250  Biso   1.000  H
  C41      1.0000 0.90023  0.45240  0.16871  Biso   1.000  C
  C42      1.0000 0.84280  0.49230  0.15204  Biso   1.000  C
  C43      1.0000 0.80310  0.44110  0.11640  Biso   1.000  C
  H29      1.0000 0.81170  0.37850  0.10050  Biso   1.000  H
  C44      1.0000 0.75040  0.48410  0.10460  Biso   1.000  C
  H30      1.0000 0.72330  0.45070  0.08050  Biso   1.000  H
  C45      1.0000 0.73850  0.57520  0.12830  Biso   1.000  C
  H31      1.0000 0.70350  0.60570  0.12100  Biso   1.000  H
  C46      1.0000 0.78020  0.62110  0.16370  Biso   1.000  C
  H32      1.0000 0.77200  0.68360  0.18010  Biso   1.000  H
  Cu3      1.0000 0.89846  0.65606  0.22200  Biso   1.000  Cu
  N15      1.0000 0.90435  0.66430  0.31277  Biso   1.000  N
  C47      1.0000 0.92191  0.63790  0.36012  Biso   1.000  C
  S9       1.0000 0.93228  0.40838  0.39901  Biso   1.000  S
  Re7      1.0000 0.97236  0.58898  0.55829  Biso   1.000  Re
  S10      1.0000 0.95001  0.44669  0.62201  Biso   1.000  S
  Re8      1.0000 0.93660  0.42128  0.51149  Biso   1.000  Re
  S11      1.0000 0.99886  0.71805  0.48538  Biso   1.000  S
  S12      1.0000 0.88092  0.57290  0.50642  Biso   1.000  S
  Re9      1.0000 0.96255  0.56812  0.43722  Biso   1.000  Re
  N16      1.0000 0.92531  0.75730  0.16464  Biso   1.000  N
  C48      1.0000 0.94142  0.81100  0.12688  Biso   1.000  C
  C49      1.0000 0.76820  0.44550  0.41870  Biso   1.000  C
  H33      1.0000 0.76420  0.47720  0.45720  Biso   1.000  H
  N17      1.0000 0.75345  0.34920  0.41420  Biso   1.000  N
  C50      1.0000 0.78900  0.49900  0.36900  Biso   1.000  C
  H34      1.0000 0.79970  0.56520  0.37360  Biso   1.000  H
  C51      1.0000 0.79350  0.45230  0.31310  Biso   1.000  C
  H35      1.0000 0.80720  0.48690  0.27850  Biso   1.000  H
  C52      1.0000 0.77800  0.35360  0.30690  Biso   1.000  C
  H36      1.0000 0.78100  0.32140  0.26850  Biso   1.000  H
  C53      1.0000 0.75780  0.30380  0.35920  Biso   1.000  C
  N18      1.0000 0.82347  0.28320  0.52751  Biso   1.000  N
  C54      1.0000 0.86409  0.33050  0.52426  Biso   1.000  C
  C55      1.0000 0.51630  0.02230  0.22270  Biso   1.000  C
  H37      1.0000 0.49400  0.98170  0.24810  Biso   1.000  H
  N19      1.0000 0.56719  0.98860  0.20453  Biso   1.000  N
  C56      1.0000 0.49490  0.11380  0.20610  Biso   1.000  C
  H38      1.0000 0.45950  0.13510  0.22060  Biso   1.000  H
  N20      1.0000 0.66895  0.91750  0.17582  Biso   1.000  N
  C57      1.0000 0.52750  0.17310  0.16740  Biso   1.000  C
  H39      1.0000 0.51380  0.23460  0.15420  Biso   1.000  H
  C58      1.0000 0.58040  0.14050  0.14850  Biso   1.000  C
  H40      1.0000 0.60300  0.17980  0.12250  Biso   1.000  H
  C59      1.0000 0.59977  0.04760  0.16871  Biso   1.000  C
  C60      1.0000 0.65720  0.00770  0.15204  Biso   1.000  C
  C61      1.0000 0.69690  0.05890  0.11640  Biso   1.000  C
  H41      1.0000 0.68830  0.12150  0.10050  Biso   1.000  H
  C62      1.0000 0.74960  0.01590  0.10460  Biso   1.000  C
  H42      1.0000 0.77670  0.04930  0.08050  Biso   1.000  H
  C63      1.0000 0.76150  0.92480  0.12830  Biso   1.000  C
  H43      1.0000 0.79650  0.89430  0.12100  Biso   1.000  H
  C64      1.0000 0.71980  0.87890  0.16370  Biso   1.000  C
  H44      1.0000 0.72800  0.81640  0.18010  Biso   1.000  H
  Cu4      1.0000 0.60154  0.84394  0.22200  Biso   1.000  Cu
  N21      1.0000 0.59565  0.83570  0.31277  Biso   1.000  N
  C65      1.0000 0.57809  0.86210  0.36012  Biso   1.000  C
  S13      1.0000 0.56772  0.09162  0.39901  Biso   1.000  S
  Re10     1.0000 0.52764  0.91102  0.55829  Biso   1.000  Re
  S14      1.0000 0.54999  0.05331  0.62201  Biso   1.000  S
  Re11     1.0000 0.56340  0.07872  0.51149  Biso   1.000  Re
  S15      1.0000 0.50114  0.78195  0.48538  Biso   1.000  S
  S16      1.0000 0.61908  0.92710  0.50642  Biso   1.000  S
  Re12     1.0000 0.53745  0.93188  0.43722  Biso   1.000  Re
  N22      1.0000 0.57469  0.74270  0.16464  Biso   1.000  N
  C66      1.0000 0.55858  0.68900  0.12688  Biso   1.000  C
  C67      1.0000 0.73180  0.05450  0.41870  Biso   1.000  C
  H45      1.0000 0.73580  0.02280  0.45720  Biso   1.000  H
  N23      1.0000 0.74655  0.15080  0.41420  Biso   1.000  N
  C68      1.0000 0.71100  0.00100  0.36900  Biso   1.000  C
  H46      1.0000 0.70030  0.93480  0.37360  Biso   1.000  H
  C69      1.0000 0.70650  0.04770  0.31310  Biso   1.000  C
  H47      1.0000 0.69280  0.01310  0.27850  Biso   1.000  H
  C70      1.0000 0.72200  0.14640  0.30690  Biso   1.000  C
  H48      1.0000 0.71900  0.17860  0.26850  Biso   1.000  H
  C71      1.0000 0.74220  0.19620  0.35920  Biso   1.000  C
  N24      1.0000 0.67653  0.21680  0.52751  Biso   1.000  N
  C72      1.0000 0.63591  0.16950  0.52426  Biso   1.000  C
  C73      1.0000 0.98370  0.02230  0.72270  Biso   1.000  C
  H49      1.0000 0.00600  0.98170  0.74810  Biso   1.000  H
  N25      1.0000 0.93281  0.98860  0.70453  Biso   1.000  N
  C74      1.0000 0.00510  0.11380  0.70610  Biso   1.000  C
  H50      1.0000 0.04050  0.13510  0.72060  Biso   1.000  H
  N26      1.0000 0.83105  0.91750  0.67582  Biso   1.000  N
  C75      1.0000 0.97250  0.17310  0.66740  Biso   1.000  C
  H51      1.0000 0.98620  0.23460  0.65420  Biso   1.000  H
  C76      1.0000 0.91960  0.14050  0.64850  Biso   1.000  C
  H52      1.0000 0.89700  0.17980  0.62250  Biso   1.000  H
  C77      1.0000 0.90023  0.04760  0.66871  Biso   1.000  C
  C78      1.0000 0.84280  0.00770  0.65204  Biso   1.000  C
  C79      1.0000 0.80310  0.05890  0.61640  Biso   1.000  C
  H53      1.0000 0.81170  0.12150  0.60050  Biso   1.000  H
  C80      1.0000 0.75040  0.01590  0.60460  Biso   1.000  C
  H54      1.0000 0.72330  0.04930  0.58050  Biso   1.000  H
  C81      1.0000 0.73850  0.92480  0.62830  Biso   1.000  C
  H55      1.0000 0.70350  0.89430  0.62100  Biso   1.000  H
  C82      1.0000 0.78020  0.87890  0.66370  Biso   1.000  C
  H56      1.0000 0.77200  0.81640  0.68010  Biso   1.000  H
  Cu5      1.0000 0.89846  0.84394  0.72200  Biso   1.000  Cu
  N27      1.0000 0.90435  0.83570  0.81277  Biso   1.000  N
  C83      1.0000 0.92191  0.86210  0.86012  Biso   1.000  C
  S17      1.0000 0.93228  0.09162  0.89901  Biso   1.000  S
  Re13     1.0000 0.97236  0.91102  0.05829  Biso   1.000  Re
  S18      1.0000 0.95001  0.05331  0.12201  Biso   1.000  S
  Re14     1.0000 0.93660  0.07872  0.01149  Biso   1.000  Re
  S19      1.0000 0.99886  0.78195  0.98538  Biso   1.000  S
  S20      1.0000 0.88092  0.92710  0.00642  Biso   1.000  S
  Re15     1.0000 0.96255  0.93188  0.93722  Biso   1.000  Re
  N28      1.0000 0.92531  0.74270  0.66464  Biso   1.000  N
  C84      1.0000 0.94142  0.68900  0.62688  Biso   1.000  C
  C85      1.0000 0.76820  0.05450  0.91870  Biso   1.000  C
  H57      1.0000 0.76420  0.02280  0.95720  Biso   1.000  H
  N29      1.0000 0.75345  0.15080  0.91420  Biso   1.000  N
  C86      1.0000 0.78900  0.00100  0.86900  Biso   1.000  C
  H58      1.0000 0.79970  0.93480  0.87360  Biso   1.000  H
  C87      1.0000 0.79350  0.04770  0.81310  Biso   1.000  C
  H59      1.0000 0.80720  0.01310  0.77850  Biso   1.000  H
  C88      1.0000 0.77800  0.14640  0.80690  Biso   1.000  C
  H60      1.0000 0.78100  0.17860  0.76850  Biso   1.000  H
  C89      1.0000 0.75780  0.19620  0.85920  Biso   1.000  C
  N30      1.0000 0.82347  0.21680  0.02751  Biso   1.000  N
  C90      1.0000 0.86409  0.16950  0.02426  Biso   1.000  C
  C91      1.0000 0.51630  0.47770  0.72270  Biso   1.000  C
  H61      1.0000 0.49400  0.51830  0.74810  Biso   1.000  H
  N31      1.0000 0.56719  0.51140  0.70453  Biso   1.000  N
  C92      1.0000 0.49490  0.38620  0.70610  Biso   1.000  C
  H62      1.0000 0.45950  0.36490  0.72060  Biso   1.000  H
  N32      1.0000 0.66895  0.58250  0.67582  Biso   1.000  N
  C93      1.0000 0.52750  0.32690  0.66740  Biso   1.000  C
  H63      1.0000 0.51380  0.26540  0.65420  Biso   1.000  H
  C94      1.0000 0.58040  0.35950  0.64850  Biso   1.000  C
  H64      1.0000 0.60300  0.32020  0.62250  Biso   1.000  H
  C95      1.0000 0.59977  0.45240  0.66871  Biso   1.000  C
  C96      1.0000 0.65720  0.49230  0.65204  Biso   1.000  C
  C97      1.0000 0.69690  0.44110  0.61640  Biso   1.000  C
  H65      1.0000 0.68830  0.37850  0.60050  Biso   1.000  H
  C98      1.0000 0.74960  0.48410  0.60460  Biso   1.000  C
  H66      1.0000 0.77670  0.45070  0.58050  Biso   1.000  H
  C99      1.0000 0.76150  0.57520  0.62830  Biso   1.000  C
  H67      1.0000 0.79650  0.60570  0.62100  Biso   1.000  H
  C100     1.0000 0.71980  0.62110  0.66370  Biso   1.000  C
  H68      1.0000 0.72800  0.68360  0.68010  Biso   1.000  H
  Cu6      1.0000 0.60154  0.65606  0.72200  Biso   1.000  Cu
  N33      1.0000 0.59565  0.66430  0.81277  Biso   1.000  N
  C101     1.0000 0.57809  0.63790  0.86012  Biso   1.000  C
  S21      1.0000 0.56772  0.40838  0.89901  Biso   1.000  S
  Re16     1.0000 0.52764  0.58898  0.05829  Biso   1.000  Re
  S22      1.0000 0.54999  0.44669  0.12201  Biso   1.000  S
  Re17     1.0000 0.56340  0.42128  0.01149  Biso   1.000  Re
  S23      1.0000 0.50114  0.71805  0.98538  Biso   1.000  S
  S24      1.0000 0.61908  0.57290  0.00642  Biso   1.000  S
  Re18     1.0000 0.53745  0.56812  0.93722  Biso   1.000  Re
  N34      1.0000 0.57469  0.75730  0.66464  Biso   1.000  N
  C102     1.0000 0.55858  0.81100  0.62688  Biso   1.000  C
  C103     1.0000 0.73180  0.44550  0.91870  Biso   1.000  C
  H69      1.0000 0.73580  0.47720  0.95720  Biso   1.000  H
  N35      1.0000 0.74655  0.34920  0.91420  Biso   1.000  N
  C104     1.0000 0.71100  0.49900  0.86900  Biso   1.000  C
  H70      1.0000 0.70030  0.56520  0.87360  Biso   1.000  H
  C105     1.0000 0.70650  0.45230  0.81310  Biso   1.000  C
  H71      1.0000 0.69280  0.48690  0.77850  Biso   1.000  H
  C106     1.0000 0.72200  0.35360  0.80690  Biso   1.000  C
  H72      1.0000 0.71900  0.32140  0.76850  Biso   1.000  H
  C107     1.0000 0.74220  0.30380  0.85920  Biso   1.000  C
  N36      1.0000 0.67653  0.28320  0.02751  Biso   1.000  N
  C108     1.0000 0.63591  0.33050  0.02426  Biso   1.000  C
  C109     1.0000 0.01630  0.52230  0.77730  Biso   1.000  C
  H73      1.0000 0.99400  0.48170  0.75190  Biso   1.000  H
  N37      1.0000 0.06719  0.48860  0.79547  Biso   1.000  N
  C110     1.0000 0.99490  0.61380  0.79390  Biso   1.000  C
  H74      1.0000 0.95950  0.63510  0.77940  Biso   1.000  H
  N38      1.0000 0.16895  0.41750  0.82418  Biso   1.000  N
  C111     1.0000 0.02750  0.67310  0.83260  Biso   1.000  C
  H75      1.0000 0.01380  0.73460  0.84580  Biso   1.000  H
  C112     1.0000 0.08040  0.64050  0.85150  Biso   1.000  C
  H76      1.0000 0.10300  0.67980  0.87750  Biso   1.000  H
  C113     1.0000 0.09977  0.54760  0.83129  Biso   1.000  C
  C114     1.0000 0.15720  0.50770  0.84796  Biso   1.000  C
  C115     1.0000 0.19690  0.55890  0.88360  Biso   1.000  C
  H77      1.0000 0.18830  0.62150  0.89950  Biso   1.000  H
  C116     1.0000 0.24960  0.51590  0.89540  Biso   1.000  C
  H78      1.0000 0.27670  0.54930  0.91950  Biso   1.000  H
  C117     1.0000 0.26150  0.42480  0.87170  Biso   1.000  C
  H79      1.0000 0.29650  0.39430  0.87900  Biso   1.000  H
  C118     1.0000 0.21980  0.37890  0.83630  Biso   1.000  C
  H80      1.0000 0.22800  0.31640  0.81990  Biso   1.000  H
  Cu7      1.0000 0.10154  0.34394  0.77800  Biso   1.000  Cu
  N39      1.0000 0.09565  0.33570  0.68723  Biso   1.000  N
  C119     1.0000 0.07809  0.36210  0.63988  Biso   1.000  C
  S25      1.0000 0.06772  0.59162  0.60099  Biso   1.000  S
  Re19     1.0000 0.02764  0.41102  0.44171  Biso   1.000  Re
  S26      1.0000 0.04999  0.55331  0.37799  Biso   1.000  S
  Re20     1.0000 0.06340  0.57872  0.48851  Biso   1.000  Re
  S27      1.0000 0.00114  0.28195  0.51462  Biso   1.000  S
  S28      1.0000 0.11908  0.42710  0.49358  Biso   1.000  S
  Re21     1.0000 0.03745  0.43188  0.56278  Biso   1.000  Re
  N40      1.0000 0.07469  0.24270  0.83536  Biso   1.000  N
  C120     1.0000 0.05858  0.18900  0.87312  Biso   1.000  C
  C121     1.0000 0.23180  0.55450  0.58130  Biso   1.000  C
  H81      1.0000 0.23580  0.52280  0.54280  Biso   1.000  H
  N41      1.0000 0.24655  0.65080  0.58580  Biso   1.000  N
  C122     1.0000 0.21100  0.50100  0.63100  Biso   1.000  C
  H82      1.0000 0.20030  0.43480  0.62640  Biso   1.000  H
  C123     1.0000 0.20650  0.54770  0.68690  Biso   1.000  C
  H83      1.0000 0.19280  0.51310  0.72150  Biso   1.000  H
  C124     1.0000 0.22200  0.64640  0.69310  Biso   1.000  C
  H84      1.0000 0.21900  0.67860  0.73150  Biso   1.000  H
  C125     1.0000 0.24220  0.69620  0.64080  Biso   1.000  C
  N42      1.0000 0.17653  0.71680  0.47249  Biso   1.000  N
  C126     1.0000 0.13591  0.66950  0.47574  Biso   1.000  C
  C127     1.0000 0.48370  0.97770  0.77730  Biso   1.000  C
  H85      1.0000 0.50600  0.01830  0.75190  Biso   1.000  H
  N43      1.0000 0.43281  0.01140  0.79547  Biso   1.000  N
  C128     1.0000 0.50510  0.88620  0.79390  Biso   1.000  C
  H86      1.0000 0.54050  0.86490  0.77940  Biso   1.000  H
  N44      1.0000 0.33105  0.08250  0.82418  Biso   1.000  N
  C129     1.0000 0.47250  0.82690  0.83260  Biso   1.000  C
  H87      1.0000 0.48620  0.76540  0.84580  Biso   1.000  H
  C130     1.0000 0.41960  0.85950  0.85150  Biso   1.000  C
  H88      1.0000 0.39700  0.82020  0.87750  Biso   1.000  H
  C131     1.0000 0.40023  0.95240  0.83129  Biso   1.000  C
  C132     1.0000 0.34280  0.99230  0.84796  Biso   1.000  C
  C133     1.0000 0.30310  0.94110  0.88360  Biso   1.000  C
  H89      1.0000 0.31170  0.87850  0.89950  Biso   1.000  H
  C134     1.0000 0.25040  0.98410  0.89540  Biso   1.000  C
  H90      1.0000 0.22330  0.95070  0.91950  Biso   1.000  H
  C135     1.0000 0.23850  0.07520  0.87170  Biso   1.000  C
  H91      1.0000 0.20350  0.10570  0.87900  Biso   1.000  H
  C136     1.0000 0.28020  0.12110  0.83630  Biso   1.000  C
  H92      1.0000 0.27200  0.18360  0.81990  Biso   1.000  H
  Cu8      1.0000 0.39846  0.15606  0.77800  Biso   1.000  Cu
  N45      1.0000 0.40435  0.16430  0.68723  Biso   1.000  N
  C137     1.0000 0.42191  0.13790  0.63988  Biso   1.000  C
  S29      1.0000 0.43228  0.90838  0.60099  Biso   1.000  S
  Re22     1.0000 0.47236  0.08898  0.44171  Biso   1.000  Re
  S30      1.0000 0.45001  0.94669  0.37799  Biso   1.000  S
  Re23     1.0000 0.43660  0.92128  0.48851  Biso   1.000  Re
  S31      1.0000 0.49886  0.21805  0.51462  Biso   1.000  S
  S32      1.0000 0.38092  0.07290  0.49358  Biso   1.000  S
  Re24     1.0000 0.46255  0.06812  0.56278  Biso   1.000  Re
  N46      1.0000 0.42531  0.25730  0.83536  Biso   1.000  N
  C138     1.0000 0.44142  0.31100  0.87312  Biso   1.000  C
  C139     1.0000 0.26820  0.94550  0.58130  Biso   1.000  C
  H93      1.0000 0.26420  0.97720  0.54280  Biso   1.000  H
  N47      1.0000 0.25345  0.84920  0.58580  Biso   1.000  N
  C140     1.0000 0.28900  0.99900  0.63100  Biso   1.000  C
  H94      1.0000 0.29970  0.06520  0.62640  Biso   1.000  H
  C141     1.0000 0.29350  0.95230  0.68690  Biso   1.000  C
  H95      1.0000 0.30720  0.98690  0.72150  Biso   1.000  H
  C142     1.0000 0.27800  0.85360  0.69310  Biso   1.000  C
  H96      1.0000 0.28100  0.82140  0.73150  Biso   1.000  H
  C143     1.0000 0.25780  0.80380  0.64080  Biso   1.000  C
  N48      1.0000 0.32347  0.78320  0.47249  Biso   1.000  N
  C144     1.0000 0.36409  0.83050  0.47574  Biso   1.000  C
  Cu9      1.0000 0.25000  0.75000  0.00922  Biso   1.000  Cu
  Cu10     1.0000 0.75000  0.25000  0.49078  Biso   1.000  Cu
  Cu11     1.0000 0.75000  0.25000  0.99078  Biso   1.000  Cu
  Cu12     1.0000 0.25000  0.75000  0.50922  Biso   1.000  Cu
