data_QURSEC_clean
_audit_creation_date              2014-07-02
_audit_creation_method            'Materials Studio'
_symmetry_space_group_name_H-M    'P1'
_symmetry_Int_Tables_number       1
_symmetry_cell_setting            triclinic
loop_
_symmetry_equiv_pos_as_xyz
  x,y,z
_cell_length_a                    12.5566
_cell_length_b                    12.5566
_cell_length_c                    25.0850
_cell_angle_alpha                 90.0000
_cell_angle_beta                  90.0000
_cell_angle_gamma                 95.0511
loop_
_atom_site_label
_atom_site_type_symbol
_atom_site_fract_x
_atom_site_fract_y
_atom_site_fract_z
_atom_site_U_iso_or_equiv
_atom_site_adp_type
_atom_site_occupancy
Zn1    Zn    0.75000   0.75000   0.16248   0.01267  Uiso   1.00
Zn2    Zn    0.75000   0.75000   0.66248   0.01267  Uiso   1.00
H1     H     0.13480   0.62400   0.82640   0.01267  Uiso   1.00
H2     H     0.99990   0.64430   0.76480   0.01267  Uiso   1.00
H3     H     0.98860   0.94960   0.80930   0.01267  Uiso   1.00
H4     H     0.12290   0.92370   0.87330   0.01267  Uiso   1.00
H5     H     0.41480   0.88100   0.97320   0.01267  Uiso   1.00
H6     H     0.54470   0.85570   0.03770   0.01267  Uiso   1.00
H7     H     0.45020   0.54300   0.04130   0.01267  Uiso   1.00
H8     H     0.31840   0.57120   0.97760   0.01267  Uiso   1.00
H9     H     0.36520   0.87600   0.82640   0.01267  Uiso   1.00
H10    H     0.50010   0.85570   0.76480   0.01267  Uiso   1.00
H11    H     0.51140   0.55040   0.80930   0.01267  Uiso   1.00
H12    H     0.37710   0.57630   0.87330   0.01267  Uiso   1.00
H13    H     0.08520   0.61900   0.97320   0.01267  Uiso   1.00
H14    H     0.95530   0.64430   0.03770   0.01267  Uiso   1.00
H15    H     0.04980   0.95700   0.04130   0.01267  Uiso   1.00
H16    H     0.18160   0.92880   0.97760   0.01267  Uiso   1.00
H17    H     0.62400   0.13480   0.32640   0.01267  Uiso   1.00
H18    H     0.64430   0.99990   0.26480   0.01267  Uiso   1.00
H19    H     0.94960   0.98860   0.30930   0.01267  Uiso   1.00
H20    H     0.92370   0.12290   0.37330   0.01267  Uiso   1.00
H21    H     0.88100   0.41480   0.47320   0.01267  Uiso   1.00
H22    H     0.85570   0.54470   0.53770   0.01267  Uiso   1.00
H23    H     0.54300   0.45020   0.54130   0.01267  Uiso   1.00
H24    H     0.57120   0.31840   0.47760   0.01267  Uiso   1.00
H25    H     0.87600   0.36520   0.32640   0.01267  Uiso   1.00
H26    H     0.85570   0.50010   0.26480   0.01267  Uiso   1.00
H27    H     0.55040   0.51140   0.30930   0.01267  Uiso   1.00
H28    H     0.57630   0.37710   0.37330   0.01267  Uiso   1.00
H29    H     0.61900   0.08520   0.47320   0.01267  Uiso   1.00
H30    H     0.64430   0.95530   0.53770   0.01267  Uiso   1.00
H31    H     0.95700   0.04980   0.54130   0.01267  Uiso   1.00
H32    H     0.92880   0.18160   0.47760   0.01267  Uiso   1.00
Pd1    Pd    0.25000   0.75000   0.91192   0.01267  Uiso   1.00
Pd2    Pd    0.75000   0.25000   0.41192   0.01267  Uiso   1.00
C1     C     0.09770   0.86690   0.85030   0.01267  Uiso   1.00
C2     C     0.01760   0.88260   0.81220   0.01267  Uiso   1.00
C3     C     0.98300   0.79860   0.77910   0.01267  Uiso   1.00
C4     C     0.89830   0.81390   0.73760   0.01267  Uiso   1.00
C5     C     0.02540   0.70360   0.78620   0.01267  Uiso   1.00
C6     C     0.10480   0.69060   0.82320   0.01267  Uiso   1.00
C7     C     0.36640   0.62920   0.98930   0.01267  Uiso   1.00
C8     C     0.44380   0.61280   0.02780   0.01267  Uiso   1.00
C9     C     0.51160   0.69880   0.04640   0.01267  Uiso   1.00
C10    C     0.49910   0.79610   0.02570   0.01267  Uiso   1.00
C11    C     0.42290   0.81150   0.98660   0.01267  Uiso   1.00
C12    C     0.59590   0.68170   0.08590   0.01267  Uiso   1.00
C13    C     0.40230   0.63310   0.85030   0.01267  Uiso   1.00
C14    C     0.48240   0.61740   0.81220   0.01267  Uiso   1.00
C15    C     0.51700   0.70140   0.77910   0.01267  Uiso   1.00
C16    C     0.60170   0.68610   0.73760   0.01267  Uiso   1.00
C17    C     0.47460   0.79640   0.78620   0.01267  Uiso   1.00
C18    C     0.39520   0.80940   0.82320   0.01267  Uiso   1.00
C19    C     0.13360   0.87080   0.98930   0.01267  Uiso   1.00
C20    C     0.05620   0.88720   0.02780   0.01267  Uiso   1.00
C21    C     0.98840   0.80120   0.04640   0.01267  Uiso   1.00
C22    C     0.00090   0.70390   0.02570   0.01267  Uiso   1.00
C23    C     0.07710   0.68850   0.98660   0.01267  Uiso   1.00
C24    C     0.90410   0.81830   0.08590   0.01267  Uiso   1.00
C25    C     0.86690   0.09770   0.35030   0.01267  Uiso   1.00
C26    C     0.88260   0.01760   0.31220   0.01267  Uiso   1.00
C27    C     0.79860   0.98300   0.27910   0.01267  Uiso   1.00
C28    C     0.81390   0.89830   0.23760   0.01267  Uiso   1.00
C29    C     0.70360   0.02540   0.28620   0.01267  Uiso   1.00
C30    C     0.69060   0.10480   0.32320   0.01267  Uiso   1.00
C31    C     0.62920   0.36640   0.48930   0.01267  Uiso   1.00
C32    C     0.61280   0.44380   0.52780   0.01267  Uiso   1.00
C33    C     0.69880   0.51160   0.54640   0.01267  Uiso   1.00
C34    C     0.79610   0.49910   0.52570   0.01267  Uiso   1.00
C35    C     0.81150   0.42290   0.48660   0.01267  Uiso   1.00
C36    C     0.68170   0.59590   0.58590   0.01267  Uiso   1.00
C37    C     0.63310   0.40230   0.35030   0.01267  Uiso   1.00
C38    C     0.61740   0.48240   0.31220   0.01267  Uiso   1.00
C39    C     0.70140   0.51700   0.27910   0.01267  Uiso   1.00
C40    C     0.68610   0.60170   0.23760   0.01267  Uiso   1.00
C41    C     0.79640   0.47460   0.28620   0.01267  Uiso   1.00
C42    C     0.80940   0.39520   0.32320   0.01267  Uiso   1.00
C43    C     0.87080   0.13360   0.48930   0.01267  Uiso   1.00
C44    C     0.88720   0.05620   0.52780   0.01267  Uiso   1.00
C45    C     0.80120   0.98840   0.54640   0.01267  Uiso   1.00
C46    C     0.70390   0.00090   0.52570   0.01267  Uiso   1.00
C47    C     0.68850   0.07710   0.48660   0.01267  Uiso   1.00
C48    C     0.81830   0.90410   0.58590   0.01267  Uiso   1.00
N1     N     0.35940   0.72760   0.96880   0.01267  Uiso   1.00
N2     N     0.13910   0.77250   0.85420   0.01267  Uiso   1.00
N3     N     0.14060   0.77240   0.96880   0.01267  Uiso   1.00
N4     N     0.36090   0.72750   0.85420   0.01267  Uiso   1.00
N5     N     0.72760   0.35940   0.46880   0.01267  Uiso   1.00
N6     N     0.77250   0.13910   0.35420   0.01267  Uiso   1.00
N7     N     0.77240   0.14060   0.46880   0.01267  Uiso   1.00
N8     N     0.72750   0.36090   0.35420   0.01267  Uiso   1.00
O1     O     0.87670   0.73650   0.70730   0.01267  Uiso   1.00
O2     O     0.85850   0.89790   0.73660   0.01267  Uiso   1.00
O3     O     0.62630   0.75970   0.11520   0.01267  Uiso   1.00
O4     O     0.63460   0.59200   0.08770   0.01267  Uiso   1.00
O5     O     0.62330   0.76350   0.70730   0.01267  Uiso   1.00
O6     O     0.64150   0.60210   0.73660   0.01267  Uiso   1.00
O7     O     0.87370   0.74030   0.11520   0.01267  Uiso   1.00
O8     O     0.86540   0.90800   0.08770   0.01267  Uiso   1.00
O9     O     0.73650   0.87670   0.20730   0.01267  Uiso   1.00
O10    O     0.89790   0.85850   0.23660   0.01267  Uiso   1.00
O11    O     0.75970   0.62630   0.61520   0.01267  Uiso   1.00
O12    O     0.59200   0.63460   0.58770   0.01267  Uiso   1.00
O13    O     0.76350   0.62330   0.20730   0.01267  Uiso   1.00
O14    O     0.60210   0.64150   0.23660   0.01267  Uiso   1.00
O15    O     0.74030   0.87370   0.61520   0.01267  Uiso   1.00
O16    O     0.90800   0.86540   0.58770   0.01267  Uiso   1.00
Zn3    Zn    0.25000   0.25000   0.33752   0.01267  Uiso   1.00
Zn4    Zn    0.25000   0.25000   0.83752   0.01267  Uiso   1.00
H33    H     0.37600   0.86520   0.67360   0.01267  Uiso   1.00
H34    H     0.35570   0.00010   0.73520   0.01267  Uiso   1.00
H35    H     0.05040   0.01140   0.69070   0.01267  Uiso   1.00
H36    H     0.07630   0.87710   0.62670   0.01267  Uiso   1.00
H37    H     0.11900   0.58520   0.52680   0.01267  Uiso   1.00
H38    H     0.14430   0.45530   0.46230   0.01267  Uiso   1.00
H39    H     0.45700   0.54980   0.45870   0.01267  Uiso   1.00
H40    H     0.42880   0.68160   0.52240   0.01267  Uiso   1.00
H41    H     0.12400   0.63480   0.67360   0.01267  Uiso   1.00
H42    H     0.14430   0.49990   0.73520   0.01267  Uiso   1.00
H43    H     0.44960   0.48860   0.69070   0.01267  Uiso   1.00
H44    H     0.42370   0.62290   0.62670   0.01267  Uiso   1.00
H45    H     0.38100   0.91480   0.52680   0.01267  Uiso   1.00
H46    H     0.35570   0.04470   0.46230   0.01267  Uiso   1.00
H47    H     0.04300   0.95020   0.45870   0.01267  Uiso   1.00
H48    H     0.07120   0.81840   0.52240   0.01267  Uiso   1.00
H49    H     0.86520   0.37600   0.17360   0.01267  Uiso   1.00
H50    H     0.00010   0.35570   0.23520   0.01267  Uiso   1.00
H51    H     0.01140   0.05040   0.19070   0.01267  Uiso   1.00
H52    H     0.87710   0.07630   0.12670   0.01267  Uiso   1.00
H53    H     0.58520   0.11900   0.02680   0.01267  Uiso   1.00
H54    H     0.45530   0.14430   0.96230   0.01267  Uiso   1.00
H55    H     0.54980   0.45700   0.95870   0.01267  Uiso   1.00
H56    H     0.68160   0.42880   0.02240   0.01267  Uiso   1.00
H57    H     0.63480   0.12400   0.17360   0.01267  Uiso   1.00
H58    H     0.49990   0.14430   0.23520   0.01267  Uiso   1.00
H59    H     0.48860   0.44960   0.19070   0.01267  Uiso   1.00
H60    H     0.62290   0.42370   0.12670   0.01267  Uiso   1.00
H61    H     0.91480   0.38100   0.02680   0.01267  Uiso   1.00
H62    H     0.04470   0.35570   0.96230   0.01267  Uiso   1.00
H63    H     0.95020   0.04300   0.95870   0.01267  Uiso   1.00
H64    H     0.81840   0.07120   0.02240   0.01267  Uiso   1.00
Pd3    Pd    0.25000   0.75000   0.58808   0.01267  Uiso   1.00
Pd4    Pd    0.75000   0.25000   0.08808   0.01267  Uiso   1.00
C49    C     0.13310   0.90230   0.64970   0.01267  Uiso   1.00
C50    C     0.11740   0.98240   0.68780   0.01267  Uiso   1.00
C51    C     0.20140   0.01700   0.72090   0.01267  Uiso   1.00
C52    C     0.18610   0.10170   0.76240   0.01267  Uiso   1.00
C53    C     0.29640   0.97460   0.71380   0.01267  Uiso   1.00
C54    C     0.30940   0.89520   0.67680   0.01267  Uiso   1.00
C55    C     0.37080   0.63360   0.51070   0.01267  Uiso   1.00
C56    C     0.38720   0.55620   0.47220   0.01267  Uiso   1.00
C57    C     0.30120   0.48840   0.45360   0.01267  Uiso   1.00
C58    C     0.20390   0.50090   0.47430   0.01267  Uiso   1.00
C59    C     0.18850   0.57710   0.51340   0.01267  Uiso   1.00
C60    C     0.31830   0.40410   0.41410   0.01267  Uiso   1.00
C61    C     0.36690   0.59770   0.64970   0.01267  Uiso   1.00
C62    C     0.38260   0.51760   0.68780   0.01267  Uiso   1.00
C63    C     0.29860   0.48300   0.72090   0.01267  Uiso   1.00
C64    C     0.31390   0.39830   0.76240   0.01267  Uiso   1.00
C65    C     0.20360   0.52540   0.71380   0.01267  Uiso   1.00
C66    C     0.19060   0.60480   0.67680   0.01267  Uiso   1.00
C67    C     0.12920   0.86640   0.51070   0.01267  Uiso   1.00
C68    C     0.11280   0.94380   0.47220   0.01267  Uiso   1.00
C69    C     0.19880   0.01160   0.45360   0.01267  Uiso   1.00
C70    C     0.29610   0.99910   0.47430   0.01267  Uiso   1.00
C71    C     0.31150   0.92290   0.51340   0.01267  Uiso   1.00
C72    C     0.18170   0.09590   0.41410   0.01267  Uiso   1.00
C73    C     0.90230   0.13310   0.14970   0.01267  Uiso   1.00
C74    C     0.98240   0.11740   0.18780   0.01267  Uiso   1.00
C75    C     0.01700   0.20140   0.22090   0.01267  Uiso   1.00
C76    C     0.10170   0.18610   0.26240   0.01267  Uiso   1.00
C77    C     0.97460   0.29640   0.21380   0.01267  Uiso   1.00
C78    C     0.89520   0.30940   0.17680   0.01267  Uiso   1.00
C79    C     0.63360   0.37080   0.01070   0.01267  Uiso   1.00
C80    C     0.55620   0.38720   0.97220   0.01267  Uiso   1.00
C81    C     0.48840   0.30120   0.95360   0.01267  Uiso   1.00
C82    C     0.50090   0.20390   0.97430   0.01267  Uiso   1.00
C83    C     0.57710   0.18850   0.01340   0.01267  Uiso   1.00
C84    C     0.40410   0.31830   0.91410   0.01267  Uiso   1.00
C85    C     0.59770   0.36690   0.14970   0.01267  Uiso   1.00
C86    C     0.51760   0.38260   0.18780   0.01267  Uiso   1.00
C87    C     0.48300   0.29860   0.22090   0.01267  Uiso   1.00
C88    C     0.39830   0.31390   0.26240   0.01267  Uiso   1.00
C89    C     0.52540   0.20360   0.21380   0.01267  Uiso   1.00
C90    C     0.60480   0.19060   0.17680   0.01267  Uiso   1.00
C91    C     0.86640   0.12920   0.01070   0.01267  Uiso   1.00
C92    C     0.94380   0.11280   0.97220   0.01267  Uiso   1.00
C93    C     0.01160   0.19880   0.95360   0.01267  Uiso   1.00
C94    C     0.99910   0.29610   0.97430   0.01267  Uiso   1.00
C95    C     0.92290   0.31150   0.01340   0.01267  Uiso   1.00
C96    C     0.09590   0.18170   0.91410   0.01267  Uiso   1.00
N9     N     0.27240   0.64060   0.53120   0.01267  Uiso   1.00
N10    N     0.22750   0.86090   0.64580   0.01267  Uiso   1.00
N11    N     0.22760   0.85940   0.53120   0.01267  Uiso   1.00
N12    N     0.27250   0.63910   0.64580   0.01267  Uiso   1.00
N13    N     0.64060   0.27240   0.03120   0.01267  Uiso   1.00
N14    N     0.86090   0.22750   0.14580   0.01267  Uiso   1.00
N15    N     0.85940   0.22760   0.03120   0.01267  Uiso   1.00
N16    N     0.63910   0.27250   0.14580   0.01267  Uiso   1.00
O17    O     0.26350   0.12330   0.79270   0.01267  Uiso   1.00
O18    O     0.10210   0.14150   0.76340   0.01267  Uiso   1.00
O19    O     0.24030   0.37370   0.38480   0.01267  Uiso   1.00
O20    O     0.40800   0.36540   0.41230   0.01267  Uiso   1.00
O21    O     0.23650   0.37670   0.79270   0.01267  Uiso   1.00
O22    O     0.39790   0.35850   0.76340   0.01267  Uiso   1.00
O23    O     0.25970   0.12630   0.38480   0.01267  Uiso   1.00
O24    O     0.09200   0.13460   0.41230   0.01267  Uiso   1.00
O25    O     0.12330   0.26350   0.29270   0.01267  Uiso   1.00
O26    O     0.14150   0.10210   0.26340   0.01267  Uiso   1.00
O27    O     0.37370   0.24030   0.88480   0.01267  Uiso   1.00
O28    O     0.36540   0.40800   0.91230   0.01267  Uiso   1.00
O29    O     0.37670   0.23650   0.29270   0.01267  Uiso   1.00
O30    O     0.35850   0.39790   0.26340   0.01267  Uiso   1.00
O31    O     0.12630   0.25970   0.88480   0.01267  Uiso   1.00
O32    O     0.13460   0.09200   0.91230   0.01267  Uiso   1.00
