data_QUSCAJ_clean
_audit_creation_date              2014-07-02
_audit_creation_method            'Materials Studio'
_symmetry_space_group_name_H-M    'P1'
_symmetry_Int_Tables_number       1
_symmetry_cell_setting            triclinic
loop_
_symmetry_equiv_pos_as_xyz
  x,y,z
_cell_length_a                    9.6892
_cell_length_b                    17.6810
_cell_length_c                    21.1580
_cell_angle_alpha                 90.0000
_cell_angle_beta                  90.0000
_cell_angle_gamma                 105.4260
loop_
_atom_site_label
_atom_site_type_symbol
_atom_site_fract_x
_atom_site_fract_y
_atom_site_fract_z
_atom_site_U_iso_or_equiv
_atom_site_adp_type
_atom_site_occupancy
Li1    Li    0.97690   0.49210   0.28540   0.01267  Uiso   1.00
Li2    Li    0.52310   0.00790   0.78540   0.01267  Uiso   1.00
Li3    Li    0.02310   0.50790   0.71460   0.01267  Uiso   1.00
Li4    Li    0.47690   0.99210   0.21460   0.01267  Uiso   1.00
Cd1    Cd    0.42438   0.92571   0.64738   0.01267  Uiso   1.00
Cd2    Cd    0.07562   0.57429   0.14738   0.01267  Uiso   1.00
Cd3    Cd    0.57562   0.07429   0.35262   0.01267  Uiso   1.00
Cd4    Cd    0.92438   0.42571   0.85262   0.01267  Uiso   1.00
Cd5    Cd    0.50000   0.00000   0.50000   0.01267  Uiso   1.00
Cd6    Cd    0.00000   0.50000   0.00000   0.01267  Uiso   1.00
H1     H     0.66300   0.85900   0.46340   0.01267  Uiso   1.00
H2     H     0.09200   0.87500   0.44410   0.01267  Uiso   1.00
H3     H     0.93600   0.92600   0.60730   0.01267  Uiso   1.00
H4     H     0.67360   0.86320   0.35580   0.01267  Uiso   1.00
H5     H     0.64280   0.77510   0.37610   0.01267  Uiso   1.00
H6     H     0.69920   0.80070   0.30780   0.01267  Uiso   1.00
H7     H     0.84240   0.71570   0.39300   0.01267  Uiso   1.00
H8     H     0.99900   0.76790   0.38270   0.01267  Uiso   1.00
H9     H     0.89780   0.74070   0.32450   0.01267  Uiso   1.00
H10    H     0.92450   0.93820   0.33280   0.01267  Uiso   1.00
H11    H     0.94570   0.87020   0.28940   0.01267  Uiso   1.00
H12    H     0.04700   0.89800   0.34750   0.01267  Uiso   1.00
H13    H     0.30200   0.80700   0.26510   0.01267  Uiso   1.00
H14    H     0.37900   0.81900   0.45600   0.01267  Uiso   1.00
H15    H     0.16100   0.61300   0.37200   0.01267  Uiso   1.00
H16    H     0.11680   0.72520   0.53010   0.01267  Uiso   1.00
H17    H     0.27700   0.77380   0.53680   0.01267  Uiso   1.00
H18    H     0.21690   0.69950   0.57910   0.01267  Uiso   1.00
H19    H     0.40780   0.64650   0.54940   0.01267  Uiso   1.00
H20    H     0.47060   0.72320   0.51010   0.01267  Uiso   1.00
H21    H     0.44730   0.64080   0.47800   0.01267  Uiso   1.00
H22    H     0.06640   0.59230   0.47870   0.01267  Uiso   1.00
H23    H     0.16120   0.57070   0.53220   0.01267  Uiso   1.00
H24    H     0.19710   0.55980   0.46110   0.01267  Uiso   1.00
H25    H     0.83700   0.64100   0.96340   0.01267  Uiso   1.00
H26    H     0.40800   0.62500   0.94410   0.01267  Uiso   1.00
H27    H     0.56400   0.57400   0.10730   0.01267  Uiso   1.00
H28    H     0.82640   0.63680   0.85580   0.01267  Uiso   1.00
H29    H     0.85720   0.72490   0.87610   0.01267  Uiso   1.00
H30    H     0.80080   0.69930   0.80780   0.01267  Uiso   1.00
H31    H     0.65760   0.78430   0.89300   0.01267  Uiso   1.00
H32    H     0.50100   0.73210   0.88270   0.01267  Uiso   1.00
H33    H     0.60220   0.75930   0.82450   0.01267  Uiso   1.00
H34    H     0.57550   0.56180   0.83280   0.01267  Uiso   1.00
H35    H     0.55430   0.62980   0.78940   0.01267  Uiso   1.00
H36    H     0.45300   0.60200   0.84750   0.01267  Uiso   1.00
H37    H     0.19800   0.69300   0.76510   0.01267  Uiso   1.00
H38    H     0.12100   0.68100   0.95600   0.01267  Uiso   1.00
H39    H     0.33900   0.88700   0.87200   0.01267  Uiso   1.00
H40    H     0.38320   0.77480   0.03010   0.01267  Uiso   1.00
H41    H     0.22300   0.72620   0.03680   0.01267  Uiso   1.00
H42    H     0.28310   0.80050   0.07910   0.01267  Uiso   1.00
H43    H     0.09220   0.85350   0.04940   0.01267  Uiso   1.00
H44    H     0.02940   0.77680   0.01010   0.01267  Uiso   1.00
H45    H     0.05270   0.85920   0.97800   0.01267  Uiso   1.00
H46    H     0.43360   0.90770   0.97870   0.01267  Uiso   1.00
H47    H     0.33880   0.92930   0.03220   0.01267  Uiso   1.00
H48    H     0.30290   0.94020   0.96110   0.01267  Uiso   1.00
H49    H     0.33700   0.14100   0.53660   0.01267  Uiso   1.00
H50    H     0.90800   0.12500   0.55590   0.01267  Uiso   1.00
H51    H     0.06400   0.07400   0.39270   0.01267  Uiso   1.00
H52    H     0.32640   0.13680   0.64420   0.01267  Uiso   1.00
H53    H     0.35720   0.22490   0.62390   0.01267  Uiso   1.00
H54    H     0.30080   0.19930   0.69220   0.01267  Uiso   1.00
H55    H     0.15760   0.28430   0.60700   0.01267  Uiso   1.00
H56    H     0.00100   0.23210   0.61730   0.01267  Uiso   1.00
H57    H     0.10220   0.25930   0.67550   0.01267  Uiso   1.00
H58    H     0.07550   0.06180   0.66720   0.01267  Uiso   1.00
H59    H     0.05430   0.12980   0.71060   0.01267  Uiso   1.00
H60    H     0.95300   0.10200   0.65250   0.01267  Uiso   1.00
H61    H     0.69800   0.19300   0.73490   0.01267  Uiso   1.00
H62    H     0.62100   0.18100   0.54400   0.01267  Uiso   1.00
H63    H     0.83900   0.38700   0.62800   0.01267  Uiso   1.00
H64    H     0.88320   0.27480   0.46990   0.01267  Uiso   1.00
H65    H     0.72300   0.22620   0.46320   0.01267  Uiso   1.00
H66    H     0.78310   0.30050   0.42090   0.01267  Uiso   1.00
H67    H     0.59220   0.35350   0.45060   0.01267  Uiso   1.00
H68    H     0.52940   0.27680   0.48990   0.01267  Uiso   1.00
H69    H     0.55270   0.35920   0.52200   0.01267  Uiso   1.00
H70    H     0.93360   0.40770   0.52130   0.01267  Uiso   1.00
H71    H     0.83880   0.42930   0.46780   0.01267  Uiso   1.00
H72    H     0.80290   0.44020   0.53890   0.01267  Uiso   1.00
H73    H     0.16300   0.35900   0.03660   0.01267  Uiso   1.00
H74    H     0.59200   0.37500   0.05590   0.01267  Uiso   1.00
H75    H     0.43600   0.42600   0.89270   0.01267  Uiso   1.00
H76    H     0.17360   0.36320   0.14420   0.01267  Uiso   1.00
H77    H     0.14280   0.27510   0.12390   0.01267  Uiso   1.00
H78    H     0.19920   0.30070   0.19220   0.01267  Uiso   1.00
H79    H     0.34240   0.21570   0.10700   0.01267  Uiso   1.00
H80    H     0.49900   0.26790   0.11730   0.01267  Uiso   1.00
H81    H     0.39780   0.24070   0.17550   0.01267  Uiso   1.00
H82    H     0.42450   0.43820   0.16720   0.01267  Uiso   1.00
H83    H     0.44570   0.37020   0.21060   0.01267  Uiso   1.00
H84    H     0.54700   0.39800   0.15250   0.01267  Uiso   1.00
H85    H     0.80200   0.30700   0.23490   0.01267  Uiso   1.00
H86    H     0.87900   0.31900   0.04400   0.01267  Uiso   1.00
H87    H     0.66100   0.11300   0.12800   0.01267  Uiso   1.00
H88    H     0.61680   0.22520   0.96990   0.01267  Uiso   1.00
H89    H     0.77700   0.27380   0.96320   0.01267  Uiso   1.00
H90    H     0.71690   0.19950   0.92090   0.01267  Uiso   1.00
H91    H     0.90780   0.14650   0.95060   0.01267  Uiso   1.00
H92    H     0.97060   0.22320   0.98990   0.01267  Uiso   1.00
H93    H     0.94730   0.14080   0.02200   0.01267  Uiso   1.00
H94    H     0.56640   0.09230   0.02130   0.01267  Uiso   1.00
H95    H     0.66120   0.07070   0.96780   0.01267  Uiso   1.00
H96    H     0.69710   0.05980   0.03890   0.01267  Uiso   1.00
C1     C     0.65610   0.89769   0.58318   0.01267  Uiso   1.00
C2     C     0.77970   0.89097   0.54298   0.01267  Uiso   1.00
C3     C     0.75720   0.86647   0.48022   0.01267  Uiso   1.00
C4     C     0.87040   0.85900   0.44200   0.01267  Uiso   1.00
C5     C     0.00680   0.87970   0.46837   0.01267  Uiso   1.00
C6     C     0.03090   0.90413   0.53088   0.01267  Uiso   1.00
C7     C     0.91640   0.90911   0.56853   0.01267  Uiso   1.00
C8     C     0.18220   0.92501   0.55510   0.01267  Uiso   1.00
C9     C     0.84950   0.83000   0.37356   0.01267  Uiso   1.00
C10    C     0.70420   0.81610   0.35150   0.01267  Uiso   1.00
C11    C     0.90200   0.75690   0.36790   0.01267  Uiso   1.00
C12    C     0.95100   0.88960   0.33200   0.01267  Uiso   1.00
C13    C     0.16590   0.65900   0.25232   0.01267  Uiso   1.00
C14    C     0.22520   0.70519   0.31035   0.01267  Uiso   1.00
C15    C     0.29170   0.78447   0.30487   0.01267  Uiso   1.00
C16    C     0.34810   0.82723   0.35828   0.01267  Uiso   1.00
C17    C     0.33530   0.79042   0.41726   0.01267  Uiso   1.00
C18    C     0.26730   0.71099   0.42379   0.01267  Uiso   1.00
C19    C     0.21300   0.66906   0.36906   0.01267  Uiso   1.00
C20    C     0.42690   0.91339   0.35149   0.01267  Uiso   1.00
C21    C     0.25500   0.67200   0.48906   0.01267  Uiso   1.00
C22    C     0.21260   0.72210   0.53810   0.01267  Uiso   1.00
C23    C     0.41020   0.67050   0.50850   0.01267  Uiso   1.00
C24    C     0.16190   0.59180   0.49040   0.01267  Uiso   1.00
C25    C     0.84390   0.60231   0.08318   0.01267  Uiso   1.00
C26    C     0.72030   0.60903   0.04298   0.01267  Uiso   1.00
C27    C     0.74280   0.63353   0.98022   0.01267  Uiso   1.00
C28    C     0.62960   0.64100   0.94200   0.01267  Uiso   1.00
C29    C     0.49320   0.62030   0.96837   0.01267  Uiso   1.00
C30    C     0.46910   0.59587   0.03088   0.01267  Uiso   1.00
C31    C     0.58360   0.59089   0.06853   0.01267  Uiso   1.00
C32    C     0.31780   0.57499   0.05510   0.01267  Uiso   1.00
C33    C     0.65050   0.67000   0.87356   0.01267  Uiso   1.00
C34    C     0.79580   0.68390   0.85150   0.01267  Uiso   1.00
C35    C     0.59800   0.74310   0.86790   0.01267  Uiso   1.00
C36    C     0.54900   0.61040   0.83200   0.01267  Uiso   1.00
C37    C     0.33410   0.84100   0.75232   0.01267  Uiso   1.00
C38    C     0.27480   0.79481   0.81035   0.01267  Uiso   1.00
C39    C     0.20830   0.71553   0.80487   0.01267  Uiso   1.00
C40    C     0.15190   0.67277   0.85828   0.01267  Uiso   1.00
C41    C     0.16470   0.70958   0.91726   0.01267  Uiso   1.00
C42    C     0.23270   0.78901   0.92379   0.01267  Uiso   1.00
C43    C     0.28700   0.83094   0.86906   0.01267  Uiso   1.00
C44    C     0.07310   0.58661   0.85149   0.01267  Uiso   1.00
C45    C     0.24500   0.82800   0.98906   0.01267  Uiso   1.00
C46    C     0.28740   0.77790   0.03810   0.01267  Uiso   1.00
C47    C     0.08980   0.82950   0.00850   0.01267  Uiso   1.00
C48    C     0.33810   0.90820   0.99040   0.01267  Uiso   1.00
C49    C     0.34390   0.10231   0.41682   0.01267  Uiso   1.00
C50    C     0.22030   0.10903   0.45702   0.01267  Uiso   1.00
C51    C     0.24280   0.13353   0.51978   0.01267  Uiso   1.00
C52    C     0.12960   0.14100   0.55800   0.01267  Uiso   1.00
C53    C     0.99320   0.12030   0.53163   0.01267  Uiso   1.00
C54    C     0.96910   0.09587   0.46912   0.01267  Uiso   1.00
C55    C     0.08360   0.09089   0.43147   0.01267  Uiso   1.00
C56    C     0.81780   0.07499   0.44490   0.01267  Uiso   1.00
C57    C     0.15050   0.17000   0.62644   0.01267  Uiso   1.00
C58    C     0.29580   0.18390   0.64850   0.01267  Uiso   1.00
C59    C     0.09800   0.24310   0.63210   0.01267  Uiso   1.00
C60    C     0.04900   0.11040   0.66800   0.01267  Uiso   1.00
C61    C     0.83410   0.34100   0.74768   0.01267  Uiso   1.00
C62    C     0.77480   0.29481   0.68965   0.01267  Uiso   1.00
C63    C     0.70830   0.21553   0.69513   0.01267  Uiso   1.00
C64    C     0.65190   0.17277   0.64172   0.01267  Uiso   1.00
C65    C     0.66470   0.20958   0.58274   0.01267  Uiso   1.00
C66    C     0.73270   0.28901   0.57621   0.01267  Uiso   1.00
C67    C     0.78700   0.33094   0.63094   0.01267  Uiso   1.00
C68    C     0.57310   0.08661   0.64851   0.01267  Uiso   1.00
C69    C     0.74500   0.32800   0.51094   0.01267  Uiso   1.00
C70    C     0.78740   0.27790   0.46190   0.01267  Uiso   1.00
C71    C     0.58980   0.32950   0.49150   0.01267  Uiso   1.00
C72    C     0.83810   0.40820   0.50960   0.01267  Uiso   1.00
C73    C     0.15610   0.39769   0.91682   0.01267  Uiso   1.00
C74    C     0.27970   0.39097   0.95702   0.01267  Uiso   1.00
C75    C     0.25720   0.36647   0.01978   0.01267  Uiso   1.00
C76    C     0.37040   0.35900   0.05800   0.01267  Uiso   1.00
C77    C     0.50680   0.37970   0.03163   0.01267  Uiso   1.00
C78    C     0.53090   0.40413   0.96912   0.01267  Uiso   1.00
C79    C     0.41640   0.40911   0.93147   0.01267  Uiso   1.00
C80    C     0.68220   0.42501   0.94490   0.01267  Uiso   1.00
C81    C     0.34950   0.33000   0.12644   0.01267  Uiso   1.00
C82    C     0.20420   0.31610   0.14850   0.01267  Uiso   1.00
C83    C     0.40200   0.25690   0.13210   0.01267  Uiso   1.00
C84    C     0.45100   0.38960   0.16800   0.01267  Uiso   1.00
C85    C     0.66590   0.15900   0.24768   0.01267  Uiso   1.00
C86    C     0.72520   0.20519   0.18965   0.01267  Uiso   1.00
C87    C     0.79170   0.28447   0.19513   0.01267  Uiso   1.00
C88    C     0.84810   0.32723   0.14172   0.01267  Uiso   1.00
C89    C     0.83530   0.29042   0.08274   0.01267  Uiso   1.00
C90    C     0.76730   0.21099   0.07621   0.01267  Uiso   1.00
C91    C     0.71300   0.16906   0.13094   0.01267  Uiso   1.00
C92    C     0.92690   0.41339   0.14851   0.01267  Uiso   1.00
C93    C     0.75500   0.17200   0.01094   0.01267  Uiso   1.00
C94    C     0.71260   0.22210   0.96190   0.01267  Uiso   1.00
C95    C     0.91020   0.17050   0.99150   0.01267  Uiso   1.00
C96    C     0.66190   0.09180   0.00960   0.01267  Uiso   1.00
O1     O     0.53610   0.89494   0.55569   0.01267  Uiso   1.00
O2     O     0.66890   0.90585   0.64125   0.01267  Uiso   1.00
O3     O     0.20350   0.92428   0.61290   0.01267  Uiso   1.00
O4     O     0.27660   0.94025   0.51274   0.01267  Uiso   1.00
O5     O     0.17140   0.69279   0.20026   0.01267  Uiso   1.00
O6     O     0.11380   0.58580   0.25711   0.01267  Uiso   1.00
O7     O     0.43410   0.94414   0.29904   0.01267  Uiso   1.00
O8     O     0.48870   0.94933   0.39899   0.01267  Uiso   1.00
O9     O     0.96390   0.60506   0.05569   0.01267  Uiso   1.00
O10    O     0.83110   0.59415   0.14125   0.01267  Uiso   1.00
O11    O     0.29650   0.57572   0.11290   0.01267  Uiso   1.00
O12    O     0.22340   0.55975   0.01274   0.01267  Uiso   1.00
O13    O     0.32860   0.80721   0.70026   0.01267  Uiso   1.00
O14    O     0.38620   0.91420   0.75711   0.01267  Uiso   1.00
O15    O     0.06590   0.55586   0.79904   0.01267  Uiso   1.00
O16    O     0.01130   0.55067   0.89899   0.01267  Uiso   1.00
O17    O     0.46390   0.10506   0.44431   0.01267  Uiso   1.00
O18    O     0.33110   0.09415   0.35875   0.01267  Uiso   1.00
O19    O     0.79650   0.07572   0.38710   0.01267  Uiso   1.00
O20    O     0.72340   0.05975   0.48726   0.01267  Uiso   1.00
O21    O     0.82860   0.30721   0.79974   0.01267  Uiso   1.00
O22    O     0.88620   0.41420   0.74289   0.01267  Uiso   1.00
O23    O     0.56590   0.05586   0.70096   0.01267  Uiso   1.00
O24    O     0.51130   0.05067   0.60101   0.01267  Uiso   1.00
O25    O     0.03610   0.39494   0.94431   0.01267  Uiso   1.00
O26    O     0.16890   0.40585   0.85875   0.01267  Uiso   1.00
O27    O     0.70350   0.42428   0.88710   0.01267  Uiso   1.00
O28    O     0.77660   0.44025   0.98726   0.01267  Uiso   1.00
O29    O     0.67140   0.19279   0.29974   0.01267  Uiso   1.00
O30    O     0.61380   0.08580   0.24289   0.01267  Uiso   1.00
O31    O     0.93410   0.44414   0.20096   0.01267  Uiso   1.00
O32    O     0.98870   0.44933   0.10101   0.01267  Uiso   1.00
