data_QUSFEP_charged
_audit_creation_date              2014-07-02
_audit_creation_method            'Materials Studio'
_symmetry_space_group_name_H-M    'P1'
_symmetry_Int_Tables_number       1
_symmetry_cell_setting            triclinic
loop_
_symmetry_equiv_pos_as_xyz
  x,y,z
_cell_length_a                    10.9490
_cell_length_b                    13.3710
_cell_length_c                    14.4530
_cell_angle_alpha                 64.4270
_cell_angle_beta                  71.9050
_cell_angle_gamma                 74.3270
loop_
_atom_site_label
_atom_site_type_symbol
_atom_site_fract_x
_atom_site_fract_y
_atom_site_fract_z
_atom_site_U_iso_or_equiv
_atom_site_adp_type
_atom_site_occupancy
La1    La    0.22356   0.82017   0.76843   0.01267  Uiso   1.00
La2    La    0.77644   0.17983   0.23157   0.01267  Uiso   1.00
Cu1    Cu    0.68128   0.60255   0.93726   0.01267  Uiso   1.00
Cu2    Cu    0.19037   0.12325   0.43856   0.01267  Uiso   1.00
Cu3    Cu    0.31872   0.39745   0.06274   0.01267  Uiso   1.00
Cu4    Cu    0.80963   0.87675   0.56144   0.01267  Uiso   1.00
H1     H     0.39490   0.64340   0.06080   0.01267  Uiso   1.00
H2     H     0.40620   0.75830   0.06020   0.01267  Uiso   1.00
H3     H     0.61410   0.81290   0.99630   0.01267  Uiso   1.00
H4     H     0.62090   0.74700   0.11490   0.01267  Uiso   1.00
H5     H     0.63710   0.56140   0.18970   0.01267  Uiso   1.00
H6     H     0.49140   0.55810   0.19950   0.01267  Uiso   1.00
H7     H     0.91310   0.44900   0.91000   0.01267  Uiso   1.00
H8     H     0.02930   0.35730   0.79920   0.01267  Uiso   1.00
H9     H     0.77880   0.53290   0.61150   0.01267  Uiso   1.00
H10    H     0.67220   0.62370   0.72450   0.01267  Uiso   1.00
H11    H     0.15650   0.90920   0.41690   0.01267  Uiso   1.00
H12    H     0.30260   0.85140   0.40680   0.01267  Uiso   1.00
H13    H     0.46080   0.93860   0.38480   0.01267  Uiso   1.00
H14    H     0.46300   0.02760   0.27000   0.01267  Uiso   1.00
H15    H     0.27750   0.13190   0.21270   0.01267  Uiso   1.00
H16    H     0.24180   0.01610   0.23490   0.01267  Uiso   1.00
H17    H     0.94950   0.29180   0.45000   0.01267  Uiso   1.00
H18    H     0.84800   0.40820   0.54110   0.01267  Uiso   1.00
H19    H     0.14630   0.30060   0.68240   0.01267  Uiso   1.00
H20    H     0.23920   0.18600   0.58990   0.01267  Uiso   1.00
H21    H     0.60510   0.35660   0.93920   0.01267  Uiso   1.00
H22    H     0.59380   0.24170   0.93980   0.01267  Uiso   1.00
H23    H     0.38590   0.18710   0.00370   0.01267  Uiso   1.00
H24    H     0.37910   0.25300   0.88510   0.01267  Uiso   1.00
H25    H     0.36290   0.43860   0.81030   0.01267  Uiso   1.00
H26    H     0.50860   0.44190   0.80050   0.01267  Uiso   1.00
H27    H     0.08690   0.55100   0.09000   0.01267  Uiso   1.00
H28    H     0.97070   0.64270   0.20080   0.01267  Uiso   1.00
H29    H     0.22120   0.46710   0.38850   0.01267  Uiso   1.00
H30    H     0.32780   0.37630   0.27550   0.01267  Uiso   1.00
H31    H     0.84350   0.09080   0.58310   0.01267  Uiso   1.00
H32    H     0.69740   0.14860   0.59320   0.01267  Uiso   1.00
H33    H     0.53920   0.06140   0.61520   0.01267  Uiso   1.00
H34    H     0.53700   0.97240   0.73000   0.01267  Uiso   1.00
H35    H     0.72250   0.86810   0.78730   0.01267  Uiso   1.00
H36    H     0.75820   0.98390   0.76510   0.01267  Uiso   1.00
H37    H     0.05050   0.70820   0.55000   0.01267  Uiso   1.00
H38    H     0.15200   0.59180   0.45890   0.01267  Uiso   1.00
H39    H     0.85370   0.69940   0.31760   0.01267  Uiso   1.00
H40    H     0.76080   0.81400   0.41010   0.01267  Uiso   1.00
C1     C     0.44810   0.70230   0.02960   0.01267  Uiso   1.00
C2     C     0.45820   0.75590   0.91160   0.01267  Uiso   1.00
C3     C     0.64390   0.74080   0.04690   0.01267  Uiso   1.00
C4     C     0.79070   0.71250   0.01440   0.01267  Uiso   1.00
C5     C     0.57800   0.55630   0.15450   0.01267  Uiso   1.00
C6     C     0.61820   0.44680   0.13920   0.01267  Uiso   1.00
C7     C     0.88640   0.46610   0.84900   0.01267  Uiso   1.00
C8     C     0.95550   0.40970   0.78340   0.01267  Uiso   1.00
C9     C     0.91430   0.43130   0.69360   0.01267  Uiso   1.00
C10    C     0.80760   0.51410   0.67200   0.01267  Uiso   1.00
C11    C     0.74400   0.56860   0.74010   0.01267  Uiso   1.00
C12    C     0.23980   0.90870   0.42780   0.01267  Uiso   1.00
C13    C     0.22760   0.88070   0.54360   0.01267  Uiso   1.00
C14    C     0.42380   0.01370   0.34370   0.01267  Uiso   1.00
C15    C     0.45730   0.09710   0.37250   0.01267  Uiso   1.00
C16    C     0.23040   0.07160   0.26460   0.01267  Uiso   1.00
C17    C     0.08630   0.11740   0.29270   0.01267  Uiso   1.00
C18    C     0.98860   0.29260   0.49830   0.01267  Uiso   1.00
C19    C     0.92670   0.36240   0.55340   0.01267  Uiso   1.00
C20    C     0.98240   0.36370   0.62690   0.01267  Uiso   1.00
C21    C     0.10310   0.29860   0.63720   0.01267  Uiso   1.00
C22    C     0.15920   0.23070   0.58060   0.01267  Uiso   1.00
C23    C     0.55190   0.29770   0.97040   0.01267  Uiso   1.00
C24    C     0.54180   0.24410   0.08840   0.01267  Uiso   1.00
C25    C     0.35610   0.25920   0.95310   0.01267  Uiso   1.00
C26    C     0.20930   0.28750   0.98560   0.01267  Uiso   1.00
C27    C     0.42200   0.44370   0.84550   0.01267  Uiso   1.00
C28    C     0.38180   0.55320   0.86080   0.01267  Uiso   1.00
C29    C     0.11360   0.53390   0.15100   0.01267  Uiso   1.00
C30    C     0.04450   0.59030   0.21660   0.01267  Uiso   1.00
C31    C     0.08570   0.56870   0.30640   0.01267  Uiso   1.00
C32    C     0.19240   0.48590   0.32800   0.01267  Uiso   1.00
C33    C     0.25600   0.43140   0.25990   0.01267  Uiso   1.00
C34    C     0.76020   0.09130   0.57220   0.01267  Uiso   1.00
C35    C     0.77240   0.11930   0.45640   0.01267  Uiso   1.00
C36    C     0.57620   0.98630   0.65630   0.01267  Uiso   1.00
C37    C     0.54270   0.90290   0.62750   0.01267  Uiso   1.00
C38    C     0.76960   0.92840   0.73540   0.01267  Uiso   1.00
C39    C     0.91370   0.88260   0.70730   0.01267  Uiso   1.00
C40    C     0.01140   0.70740   0.50170   0.01267  Uiso   1.00
C41    C     0.07330   0.63760   0.44660   0.01267  Uiso   1.00
C42    C     0.01760   0.63630   0.37310   0.01267  Uiso   1.00
C43    C     0.89690   0.70140   0.36280   0.01267  Uiso   1.00
C44    C     0.84080   0.76930   0.41940   0.01267  Uiso   1.00
N1     N     0.57790   0.65450   0.05350   0.01267  Uiso   1.00
N2     N     0.78200   0.54490   0.82760   0.01267  Uiso   1.00
N3     N     0.28150   0.01940   0.36200   0.01267  Uiso   1.00
N4     N     0.10240   0.22680   0.51240   0.01267  Uiso   1.00
N5     N     0.42210   0.34550   0.94650   0.01267  Uiso   1.00
N6     N     0.21800   0.45510   0.17240   0.01267  Uiso   1.00
N7     N     0.71850   0.98060   0.63800   0.01267  Uiso   1.00
N8     N     0.89760   0.77320   0.48760   0.01267  Uiso   1.00
O1     O     0.36170   0.81860   0.87910   0.01267  Uiso   1.00
O2     O     0.56640   0.73100   0.85320   0.01267  Uiso   1.00
O3     O     0.85730   0.75260   0.04170   0.01267  Uiso   1.00
O4     O     0.83570   0.65350   0.95870   0.01267  Uiso   1.00
O5     O     0.61500   0.35860   0.22000   0.01267  Uiso   1.00
O6     O     0.65590   0.44930   0.04670   0.01267  Uiso   1.00
O7     O     0.24750   0.78010   0.60380   0.01267  Uiso   1.00
O8     O     0.19600   0.96080   0.57450   0.01267  Uiso   1.00
O9     O     0.57360   0.10520   0.35340   0.01267  Uiso   1.00
O10    O     0.36510   0.15250   0.41830   0.01267  Uiso   1.00
O11    O     0.01500   0.12380   0.23770   0.01267  Uiso   1.00
O12    O     0.04960   0.14730   0.37030   0.01267  Uiso   1.00
O13    O     0.15180   0.01050   0.78380   0.01267  Uiso   1.00
O14    O     0.10180   0.78100   0.95690   0.01267  Uiso   1.00
O15    O     0.10460   0.64310   0.83870   0.01267  Uiso   1.00
O16    O     0.63830   0.18140   0.12090   0.01267  Uiso   1.00
O17    O     0.43360   0.26900   0.14680   0.01267  Uiso   1.00
O18    O     0.14270   0.24740   0.95830   0.01267  Uiso   1.00
O19    O     0.16430   0.34650   0.04130   0.01267  Uiso   1.00
O20    O     0.38500   0.64140   0.78000   0.01267  Uiso   1.00
O21    O     0.34410   0.55070   0.95330   0.01267  Uiso   1.00
O22    O     0.75250   0.21990   0.39620   0.01267  Uiso   1.00
O23    O     0.80400   0.03920   0.42550   0.01267  Uiso   1.00
O24    O     0.42640   0.89480   0.64660   0.01267  Uiso   1.00
O25    O     0.63490   0.84750   0.58170   0.01267  Uiso   1.00
O26    O     0.98500   0.87620   0.76230   0.01267  Uiso   1.00
O27    O     0.95040   0.85270   0.62970   0.01267  Uiso   1.00
O28    O     0.84820   0.98950   0.21620   0.01267  Uiso   1.00
O29    O     0.89820   0.21900   0.04310   0.01267  Uiso   1.00
O30    O     0.89540   0.35690   0.16130   0.01267  Uiso   1.00
N9     N     0.84800   0.15350   0.81860   0.01267  Uiso   1.00
O31    O     0.89490   0.12170   0.89730   0.01267  Uiso   1.00
O32    O     0.75910   0.23860   0.79900   0.01267  Uiso   1.00
O33    O     0.90110   0.11150   0.74940   0.01267  Uiso   1.00
N10    N     0.15200   0.84650   0.18140   0.01267  Uiso   1.00
O34    O     0.10510   0.87830   0.10270   0.01267  Uiso   1.00
O35    O     0.24090   0.76140   0.20100   0.01267  Uiso   1.00
O36    O     0.09890   0.88850   0.25060   0.01267  Uiso   1.00
