data_image0
_cell_length_a       11.46
_cell_length_b       19.968
_cell_length_c       14.949
_cell_angle_alpha    90
_cell_angle_beta     99.628
_cell_angle_gamma    90

_symmetry_space_group_name_H-M    "P 1"
_symmetry_int_tables_number       1

loop_
  _symmetry_equiv_pos_as_xyz
  'x, y, z'

loop_
  _atom_site_label
  _atom_site_occupancy
  _atom_site_fract_x
  _atom_site_fract_y
  _atom_site_fract_z
  _atom_site_thermal_displace_type
  _atom_site_B_iso_or_equiv
  _atom_site_type_symbol
  U1       1.0000 0.73295  0.53271  0.85591  Biso   1.000  U
  U2       1.0000 0.24552  0.61347  0.58710  Biso   1.000  U
  C1       1.0000 0.67190  0.56320  0.66780  Biso   1.000  C
  C2       1.0000 0.84490  0.50970  0.49070  Biso   1.000  C
  C3       1.0000 0.07190  0.73360  0.46970  Biso   1.000  C
  C4       1.0000 0.88650  0.93110  0.56050  Biso   1.000  C
  C5       1.0000 0.43080  0.90710  0.46570  Biso   1.000  C
  C6       1.0000 0.42080  0.75230  0.62570  Biso   1.000  C
  C7       1.0000 0.65470  0.57250  0.56660  Biso   1.000  C
  H1       1.0000 0.64820  0.52890  0.53750  Biso   1.000  H
  H2       1.0000 0.58120  0.59640  0.54680  Biso   1.000  H
  C8       1.0000 0.86310  0.57370  0.54280  Biso   1.000  C
  H3       1.0000 0.89560  0.56420  0.60570  Biso   1.000  H
  H4       1.0000 0.91920  0.60160  0.51800  Biso   1.000  H
  C9       1.0000 0.05560  0.77360  0.55310  Biso   1.000  C
  H5       1.0000 0.05940  0.74300  0.60380  Biso   1.000  H
  H6       1.0000 0.12140  0.80450  0.56720  Biso   1.000  H
  C10      1.0000 0.94220  0.87920  0.50820  Biso   1.000  C
  H7       1.0000 0.89880  0.87790  0.44670  Biso   1.000  H
  H8       1.0000 0.02250  0.89320  0.50500  Biso   1.000  H
  C11      1.0000 0.53070  0.87640  0.52860  Biso   1.000  C
  H9       1.0000 0.60420  0.89660  0.51820  Biso   1.000  H
  H10      1.0000 0.52140  0.88620  0.59060  Biso   1.000  H
  C12      1.0000 0.43460  0.76500  0.52820  Biso   1.000  C
  H11      1.0000 0.43840  0.72220  0.49810  Biso   1.000  H
  H12      1.0000 0.36480  0.78830  0.49780  Biso   1.000  H
  C13      1.0000 0.75050  0.67790  0.53980  Biso   1.000  C
  C14      1.0000 0.84290  0.77630  0.53900  Biso   1.000  C
  C15      1.0000 0.64560  0.77340  0.52920  Biso   1.000  C
  N1       1.0000 0.85330  0.70910  0.54310  Biso   1.000  N
  N2       1.0000 0.74190  0.81150  0.53000  Biso   1.000  N
  N3       1.0000 0.64410  0.70660  0.53650  Biso   1.000  N
  N4       1.0000 0.75110  0.60930  0.53810  Biso   1.000  N
  N5       1.0000 0.94620  0.81150  0.54540  Biso   1.000  N
  N6       1.0000 0.53810  0.80380  0.51760  Biso   1.000  N
  O1       1.0000 0.60400  0.52415  0.70230  Biso   1.000  O
  O2       1.0000 0.75540  0.59300  0.71770  Biso   1.000  O
  O3       1.0000 0.88570  0.45555  0.52640  Biso   1.000  O
  O4       1.0000 0.78470  0.50920  0.41260  Biso   1.000  O
  O5       1.0000 0.14920  0.68658  0.48360  Biso   1.000  O
  O6       1.0000 0.01730  0.74810  0.39600  Biso   1.000  O
  H13      1.0000 0.97750  0.71590  0.37490  Biso   1.000  H
  O7       1.0000 0.81620  0.97210  0.51540  Biso   1.000  O
  O8       1.0000 0.91140  0.93766  0.64450  Biso   1.000  O
  O9       1.0000 0.37320  0.95290  0.49560  Biso   1.000  O
  O10      1.0000 0.40260  0.88880  0.38420  Biso   1.000  O
  O11      1.0000 0.48150  0.78180  0.68680  Biso   1.000  O
  H14      1.0000 0.45020  0.78030  0.73230  Biso   1.000  H
  O12      1.0000 0.33800  0.71030  0.63680  Biso   1.000  O
  U3       1.0000 0.76705  0.03271  0.64409  Biso   1.000  U
  U4       1.0000 0.25448  0.11347  0.91291  Biso   1.000  U
  C16      1.0000 0.82810  0.06320  0.83220  Biso   1.000  C
  C17      1.0000 0.65510  0.00970  0.00930  Biso   1.000  C
  C18      1.0000 0.42810  0.23360  0.03030  Biso   1.000  C
  C19      1.0000 0.61350  0.43110  0.93950  Biso   1.000  C
  C20      1.0000 0.06920  0.40710  0.03430  Biso   1.000  C
  C21      1.0000 0.07920  0.25230  0.87430  Biso   1.000  C
  C22      1.0000 0.84530  0.07250  0.93340  Biso   1.000  C
  H15      1.0000 0.85180  0.02890  0.96250  Biso   1.000  H
  H16      1.0000 0.91880  0.09640  0.95320  Biso   1.000  H
  C23      1.0000 0.63690  0.07370  0.95720  Biso   1.000  C
  H17      1.0000 0.60440  0.06420  0.89430  Biso   1.000  H
  H18      1.0000 0.58080  0.10160  0.98200  Biso   1.000  H
  C24      1.0000 0.44440  0.27360  0.94690  Biso   1.000  C
  H19      1.0000 0.44060  0.24300  0.89620  Biso   1.000  H
  H20      1.0000 0.37860  0.30450  0.93280  Biso   1.000  H
  C25      1.0000 0.55780  0.37920  0.99180  Biso   1.000  C
  H21      1.0000 0.60120  0.37790  0.05330  Biso   1.000  H
  H22      1.0000 0.47750  0.39320  0.99500  Biso   1.000  H
  C26      1.0000 0.96930  0.37640  0.97140  Biso   1.000  C
  H23      1.0000 0.89580  0.39660  0.98180  Biso   1.000  H
  H24      1.0000 0.97860  0.38620  0.90940  Biso   1.000  H
  C27      1.0000 0.06540  0.26500  0.97180  Biso   1.000  C
  H25      1.0000 0.06160  0.22220  0.00190  Biso   1.000  H
  H26      1.0000 0.13520  0.28830  0.00220  Biso   1.000  H
  C28      1.0000 0.74950  0.17790  0.96020  Biso   1.000  C
  C29      1.0000 0.65710  0.27630  0.96100  Biso   1.000  C
  C30      1.0000 0.85440  0.27340  0.97080  Biso   1.000  C
  N7       1.0000 0.64670  0.20910  0.95690  Biso   1.000  N
  N8       1.0000 0.75810  0.31150  0.97000  Biso   1.000  N
  N9       1.0000 0.85590  0.20660  0.96350  Biso   1.000  N
  N10      1.0000 0.74890  0.10930  0.96190  Biso   1.000  N
  N11      1.0000 0.55380  0.31150  0.95460  Biso   1.000  N
  N12      1.0000 0.96190  0.30380  0.98240  Biso   1.000  N
  O13      1.0000 0.89600  0.02415  0.79770  Biso   1.000  O
  O14      1.0000 0.74460  0.09300  0.78230  Biso   1.000  O
  O15      1.0000 0.61430  0.95555  0.97360  Biso   1.000  O
  O16      1.0000 0.71530  0.00920  0.08740  Biso   1.000  O
  O17      1.0000 0.35080  0.18658  0.01640  Biso   1.000  O
  O18      1.0000 0.48270  0.24810  0.10400  Biso   1.000  O
  H27      1.0000 0.52250  0.21590  0.12510  Biso   1.000  H
  O19      1.0000 0.68380  0.47210  0.98460  Biso   1.000  O
  O20      1.0000 0.58860  0.43766  0.85550  Biso   1.000  O
  O21      1.0000 0.12680  0.45290  0.00440  Biso   1.000  O
  O22      1.0000 0.09740  0.38880  0.11580  Biso   1.000  O
  O23      1.0000 0.01850  0.28180  0.81320  Biso   1.000  O
  H28      1.0000 0.04980  0.28030  0.76770  Biso   1.000  H
  O24      1.0000 0.16200  0.21030  0.86320  Biso   1.000  O
  U5       1.0000 0.26705  0.46729  0.14409  Biso   1.000  U
  U6       1.0000 0.75448  0.38653  0.41290  Biso   1.000  U
  C31      1.0000 0.32810  0.43680  0.33220  Biso   1.000  C
  C32      1.0000 0.15510  0.49030  0.50930  Biso   1.000  C
  C33      1.0000 0.92810  0.26640  0.53030  Biso   1.000  C
  C34      1.0000 0.11350  0.06890  0.43950  Biso   1.000  C
  C35      1.0000 0.56920  0.09290  0.53430  Biso   1.000  C
  C36      1.0000 0.57920  0.24770  0.37430  Biso   1.000  C
  C37      1.0000 0.34530  0.42750  0.43340  Biso   1.000  C
  H29      1.0000 0.35180  0.47110  0.46250  Biso   1.000  H
  H30      1.0000 0.41880  0.40360  0.45320  Biso   1.000  H
  C38      1.0000 0.13690  0.42630  0.45720  Biso   1.000  C
  H31      1.0000 0.10440  0.43580  0.39430  Biso   1.000  H
  H32      1.0000 0.08080  0.39840  0.48200  Biso   1.000  H
  C39      1.0000 0.94440  0.22640  0.44690  Biso   1.000  C
  H33      1.0000 0.94060  0.25700  0.39620  Biso   1.000  H
  H34      1.0000 0.87860  0.19550  0.43280  Biso   1.000  H
  C40      1.0000 0.05780  0.12080  0.49180  Biso   1.000  C
  H35      1.0000 0.10120  0.12210  0.55330  Biso   1.000  H
  H36      1.0000 0.97750  0.10680  0.49500  Biso   1.000  H
  C41      1.0000 0.46930  0.12360  0.47140  Biso   1.000  C
  H37      1.0000 0.39580  0.10340  0.48180  Biso   1.000  H
  H38      1.0000 0.47860  0.11380  0.40940  Biso   1.000  H
  C42      1.0000 0.56540  0.23500  0.47180  Biso   1.000  C
  H39      1.0000 0.56160  0.27780  0.50190  Biso   1.000  H
  H40      1.0000 0.63520  0.21170  0.50220  Biso   1.000  H
  C43      1.0000 0.24950  0.32210  0.46020  Biso   1.000  C
  C44      1.0000 0.15710  0.22370  0.46100  Biso   1.000  C
  C45      1.0000 0.35440  0.22660  0.47080  Biso   1.000  C
  N13      1.0000 0.14670  0.29090  0.45690  Biso   1.000  N
  N14      1.0000 0.25810  0.18850  0.47000  Biso   1.000  N
  N15      1.0000 0.35590  0.29340  0.46350  Biso   1.000  N
  N16      1.0000 0.24890  0.39070  0.46190  Biso   1.000  N
  N17      1.0000 0.05380  0.18850  0.45460  Biso   1.000  N
  N18      1.0000 0.46190  0.19620  0.48240  Biso   1.000  N
  O25      1.0000 0.39600  0.47585  0.29770  Biso   1.000  O
  O26      1.0000 0.24460  0.40700  0.28230  Biso   1.000  O
  O27      1.0000 0.11430  0.54445  0.47360  Biso   1.000  O
  O28      1.0000 0.21530  0.49080  0.58740  Biso   1.000  O
  O29      1.0000 0.85080  0.31342  0.51640  Biso   1.000  O
  O30      1.0000 0.98270  0.25190  0.60400  Biso   1.000  O
  H41      1.0000 0.02250  0.28410  0.62510  Biso   1.000  H
  O31      1.0000 0.18380  0.02790  0.48460  Biso   1.000  O
  O32      1.0000 0.08860  0.06234  0.35550  Biso   1.000  O
  O33      1.0000 0.62680  0.04710  0.50440  Biso   1.000  O
  O34      1.0000 0.59740  0.11120  0.61580  Biso   1.000  O
  O35      1.0000 0.51850  0.21820  0.31320  Biso   1.000  O
  H42      1.0000 0.54980  0.21970  0.26770  Biso   1.000  H
  O36      1.0000 0.66200  0.28970  0.36320  Biso   1.000  O
  U7       1.0000 0.23295  0.96729  0.35591  Biso   1.000  U
  U8       1.0000 0.74552  0.88653  0.08710  Biso   1.000  U
  C46      1.0000 0.17190  0.93680  0.16780  Biso   1.000  C
  C47      1.0000 0.34490  0.99030  0.99070  Biso   1.000  C
  C48      1.0000 0.57190  0.76640  0.96970  Biso   1.000  C
  C49      1.0000 0.38650  0.56890  0.06050  Biso   1.000  C
  C50      1.0000 0.93080  0.59290  0.96570  Biso   1.000  C
  C51      1.0000 0.92080  0.74770  0.12570  Biso   1.000  C
  C52      1.0000 0.15470  0.92750  0.06660  Biso   1.000  C
  H43      1.0000 0.14820  0.97110  0.03750  Biso   1.000  H
  H44      1.0000 0.08120  0.90360  0.04680  Biso   1.000  H
  C53      1.0000 0.36310  0.92630  0.04280  Biso   1.000  C
  H45      1.0000 0.39560  0.93580  0.10570  Biso   1.000  H
  H46      1.0000 0.41920  0.89840  0.01800  Biso   1.000  H
  C54      1.0000 0.55560  0.72640  0.05310  Biso   1.000  C
  H47      1.0000 0.55940  0.75700  0.10380  Biso   1.000  H
  H48      1.0000 0.62140  0.69550  0.06720  Biso   1.000  H
  C55      1.0000 0.44220  0.62080  0.00820  Biso   1.000  C
  H49      1.0000 0.39880  0.62210  0.94670  Biso   1.000  H
  H50      1.0000 0.52250  0.60680  0.00500  Biso   1.000  H
  C56      1.0000 0.03070  0.62360  0.02860  Biso   1.000  C
  H51      1.0000 0.10420  0.60340  0.01820  Biso   1.000  H
  H52      1.0000 0.02140  0.61380  0.09060  Biso   1.000  H
  C57      1.0000 0.93460  0.73500  0.02820  Biso   1.000  C
  H53      1.0000 0.93840  0.77780  0.99810  Biso   1.000  H
  H54      1.0000 0.86480  0.71170  0.99780  Biso   1.000  H
  C58      1.0000 0.25050  0.82210  0.03980  Biso   1.000  C
  C59      1.0000 0.34290  0.72370  0.03900  Biso   1.000  C
  C60      1.0000 0.14560  0.72660  0.02920  Biso   1.000  C
  N19      1.0000 0.35330  0.79090  0.04310  Biso   1.000  N
  N20      1.0000 0.24190  0.68850  0.03000  Biso   1.000  N
  N21      1.0000 0.14410  0.79340  0.03650  Biso   1.000  N
  N22      1.0000 0.25110  0.89070  0.03810  Biso   1.000  N
  N23      1.0000 0.44620  0.68850  0.04540  Biso   1.000  N
  N24      1.0000 0.03810  0.69620  0.01760  Biso   1.000  N
  O37      1.0000 0.10400  0.97585  0.20230  Biso   1.000  O
  O38      1.0000 0.25540  0.90700  0.21770  Biso   1.000  O
  O39      1.0000 0.38570  0.04445  0.02640  Biso   1.000  O
  O40      1.0000 0.28470  0.99080  0.91260  Biso   1.000  O
  O41      1.0000 0.64920  0.81342  0.98360  Biso   1.000  O
  O42      1.0000 0.51730  0.75190  0.89600  Biso   1.000  O
  H55      1.0000 0.47750  0.78410  0.87490  Biso   1.000  H
  O43      1.0000 0.31620  0.52790  0.01540  Biso   1.000  O
  O44      1.0000 0.41140  0.56234  0.14450  Biso   1.000  O
  O45      1.0000 0.87320  0.54710  0.99560  Biso   1.000  O
  O46      1.0000 0.90260  0.61120  0.88420  Biso   1.000  O
  O47      1.0000 0.98150  0.71820  0.18680  Biso   1.000  O
  H56      1.0000 0.95020  0.71970  0.23230  Biso   1.000  H
  O48      1.0000 0.83800  0.78970  0.13680  Biso   1.000  O
