data_image0
_cell_length_a       12.624
_cell_length_b       15.891
_cell_length_c       16.585
_cell_angle_alpha    90
_cell_angle_beta     105.217
_cell_angle_gamma    90

_symmetry_space_group_name_H-M    "P 1"
_symmetry_int_tables_number       1

loop_
  _symmetry_equiv_pos_as_xyz
  'x, y, z'

loop_
  _atom_site_label
  _atom_site_occupancy
  _atom_site_fract_x
  _atom_site_fract_y
  _atom_site_fract_z
  _atom_site_thermal_displace_type
  _atom_site_B_iso_or_equiv
  _atom_site_type_symbol
  U1       1.0000 0.34927  0.80168  0.10788  Biso   1.000  U
  U2       1.0000 0.26393  0.10750  0.23791  Biso   1.000  U
  U3       1.0000 0.18895  0.47202  0.24602  Biso   1.000  U
  C1       1.0000 0.27550  0.59130  0.10160  Biso   1.000  C
  C2       1.0000 0.44640  0.40580  0.23850  Biso   1.000  C
  C3       1.0000 0.52160  0.18390  0.22230  Biso   1.000  C
  C4       1.0000 0.35830  0.01120  0.07510  Biso   1.000  C
  C5       1.0000 0.09440  0.13920  0.84500  Biso   1.000  C
  C6       1.0000 0.02820  0.38580  0.81450  Biso   1.000  C
  C7       1.0000 0.30760  0.52190  0.04780  Biso   1.000  C
  H1       1.0000 0.24380  0.50830  0.00260  Biso   1.000  H
  H2       1.0000 0.36330  0.54410  0.02300  Biso   1.000  H
  C8       1.0000 0.45230  0.44870  0.15690  Biso   1.000  C
  H3       1.0000 0.47270  0.50720  0.16830  Biso   1.000  H
  H4       1.0000 0.50920  0.42190  0.13640  Biso   1.000  H
  C9       1.0000 0.51950  0.17400  0.13070  Biso   1.000  C
  H5       1.0000 0.55080  0.22420  0.11300  Biso   1.000  H
  H6       1.0000 0.56620  0.12690  0.12560  Biso   1.000  H
  C10      1.0000 0.39050  0.08150  0.02860  Biso   1.000  C
  H7       1.0000 0.45540  0.06510  0.01150  Biso   1.000  H
  H8       1.0000 0.33200  0.09120  0.97830  Biso   1.000  H
  C11      1.0000 0.04230  0.18930  0.90340  Biso   1.000  C
  H9       1.0000 0.96380  0.19240  0.87820  Biso   1.000  H
  H10      1.0000 0.05320  0.15840  0.95540  Biso   1.000  H
  C12      1.0000 0.01290  0.34420  0.89430  Biso   1.000  C
  H11      1.0000 0.02500  0.38620  0.93820  Biso   1.000  H
  H12      1.0000 0.93750  0.32520  0.88390  Biso   1.000  H
  C13      1.0000 0.18390  0.28440  0.97680  Biso   1.000  C
  C14      1.0000 0.31250  0.36710  0.06020  Biso   1.000  C
  C15      1.0000 0.34150  0.22870  0.05340  Biso   1.000  C
  N1       1.0000 0.24560  0.21490  0.99920  Biso   1.000  N
  N2       1.0000 0.37950  0.30200  0.08980  Biso   1.000  N
  N3       1.0000 0.21620  0.36400  0.00300  Biso   1.000  N
  N4       1.0000 0.34900  0.44480  0.09220  Biso   1.000  N
  N5       1.0000 0.08370  0.27480  0.92310  Biso   1.000  N
  N6       1.0000 0.41340  0.16040  0.07530  Biso   1.000  N
  O1       1.0000 0.27080  0.66440  0.07310  Biso   1.000  O
  O2       1.0000 0.25550  0.57090  0.16930  Biso   1.000  O
  O3       1.0000 0.35670  0.40320  0.25750  Biso   1.000  O
  O4       1.0000 0.53570  0.37910  0.28280  Biso   1.000  O
  O5       1.0000 0.60440  0.22220  0.26660  Biso   1.000  O
  O6       1.0000 0.44930  0.15150  0.25100  Biso   1.000  O
  O7       1.0000 0.31990  0.02530  0.13770  Biso   1.000  O
  O8       1.0000 0.36630  0.93640  0.04750  Biso   1.000  O
  O9       1.0000 0.05400  0.06800  0.82220  Biso   1.000  O
  O10      1.0000 0.17570  0.16300  0.82000  Biso   1.000  O
  O11      1.0000 0.11310  0.37140  0.79250  Biso   1.000  O
  O12      1.0000 0.95220  0.42860  0.77430  Biso   1.000  O
  U4       1.0000 0.65073  0.30168  0.39212  Biso   1.000  U
  U5       1.0000 0.73607  0.60750  0.26209  Biso   1.000  U
  U6       1.0000 0.81105  0.97202  0.25398  Biso   1.000  U
  C16      1.0000 0.72450  0.09130  0.39840  Biso   1.000  C
  C17      1.0000 0.55360  0.90580  0.26150  Biso   1.000  C
  C18      1.0000 0.47840  0.68390  0.27770  Biso   1.000  C
  C19      1.0000 0.64170  0.51120  0.42490  Biso   1.000  C
  C20      1.0000 0.90560  0.63920  0.65500  Biso   1.000  C
  C21      1.0000 0.97180  0.88580  0.68550  Biso   1.000  C
  C22      1.0000 0.69240  0.02190  0.45220  Biso   1.000  C
  H13      1.0000 0.75620  0.00830  0.49740  Biso   1.000  H
  H14      1.0000 0.63670  0.04410  0.47700  Biso   1.000  H
  C23      1.0000 0.54770  0.94870  0.34310  Biso   1.000  C
  H15      1.0000 0.52730  0.00720  0.33170  Biso   1.000  H
  H16      1.0000 0.49080  0.92190  0.36360  Biso   1.000  H
  C24      1.0000 0.48050  0.67400  0.36930  Biso   1.000  C
  H17      1.0000 0.44920  0.72420  0.38700  Biso   1.000  H
  H18      1.0000 0.43380  0.62690  0.37440  Biso   1.000  H
  C25      1.0000 0.60950  0.58150  0.47140  Biso   1.000  C
  H19      1.0000 0.54460  0.56510  0.48850  Biso   1.000  H
  H20      1.0000 0.66800  0.59120  0.52170  Biso   1.000  H
  C26      1.0000 0.95770  0.68930  0.59660  Biso   1.000  C
  H21      1.0000 0.03620  0.69240  0.62180  Biso   1.000  H
  H22      1.0000 0.94680  0.65840  0.54460  Biso   1.000  H
  C27      1.0000 0.98710  0.84420  0.60570  Biso   1.000  C
  H23      1.0000 0.97500  0.88620  0.56180  Biso   1.000  H
  H24      1.0000 0.06250  0.82520  0.61610  Biso   1.000  H
  C28      1.0000 0.81610  0.78440  0.52320  Biso   1.000  C
  C29      1.0000 0.68750  0.86710  0.43980  Biso   1.000  C
  C30      1.0000 0.65850  0.72870  0.44660  Biso   1.000  C
  N7       1.0000 0.75440  0.71490  0.50080  Biso   1.000  N
  N8       1.0000 0.62050  0.80200  0.41020  Biso   1.000  N
  N9       1.0000 0.78380  0.86400  0.49700  Biso   1.000  N
  N10      1.0000 0.65100  0.94480  0.40780  Biso   1.000  N
  N11      1.0000 0.91630  0.77480  0.57690  Biso   1.000  N
  N12      1.0000 0.58660  0.66040  0.42470  Biso   1.000  N
  O13      1.0000 0.72920  0.16440  0.42690  Biso   1.000  O
  O14      1.0000 0.74450  0.07090  0.33070  Biso   1.000  O
  O15      1.0000 0.64330  0.90320  0.24250  Biso   1.000  O
  O16      1.0000 0.46430  0.87910  0.21720  Biso   1.000  O
  O17      1.0000 0.39560  0.72220  0.23340  Biso   1.000  O
  O18      1.0000 0.55070  0.65150  0.24900  Biso   1.000  O
  O19      1.0000 0.68010  0.52530  0.36230  Biso   1.000  O
  O20      1.0000 0.63370  0.43640  0.45250  Biso   1.000  O
  O21      1.0000 0.94600  0.56800  0.67780  Biso   1.000  O
  O22      1.0000 0.82430  0.66300  0.68000  Biso   1.000  O
  O23      1.0000 0.88690  0.87140  0.70750  Biso   1.000  O
  O24      1.0000 0.04780  0.92860  0.72570  Biso   1.000  O
  U7       1.0000 0.65073  0.19832  0.89212  Biso   1.000  U
  U8       1.0000 0.73607  0.89250  0.76209  Biso   1.000  U
  U9       1.0000 0.81105  0.52798  0.75398  Biso   1.000  U
  C31      1.0000 0.72450  0.40870  0.89840  Biso   1.000  C
  C32      1.0000 0.55360  0.59420  0.76150  Biso   1.000  C
  C33      1.0000 0.47840  0.81610  0.77770  Biso   1.000  C
  C34      1.0000 0.64170  0.98880  0.92490  Biso   1.000  C
  C35      1.0000 0.90560  0.86080  0.15500  Biso   1.000  C
  C36      1.0000 0.97180  0.61420  0.18550  Biso   1.000  C
  C37      1.0000 0.69240  0.47810  0.95220  Biso   1.000  C
  H25      1.0000 0.75620  0.49170  0.99740  Biso   1.000  H
  H26      1.0000 0.63670  0.45590  0.97700  Biso   1.000  H
  C38      1.0000 0.54770  0.55130  0.84310  Biso   1.000  C
  H27      1.0000 0.52730  0.49280  0.83170  Biso   1.000  H
  H28      1.0000 0.49080  0.57810  0.86360  Biso   1.000  H
  C39      1.0000 0.48050  0.82600  0.86930  Biso   1.000  C
  H29      1.0000 0.44920  0.77580  0.88700  Biso   1.000  H
  H30      1.0000 0.43380  0.87310  0.87440  Biso   1.000  H
  C40      1.0000 0.60950  0.91850  0.97140  Biso   1.000  C
  H31      1.0000 0.54460  0.93490  0.98850  Biso   1.000  H
  H32      1.0000 0.66800  0.90880  0.02170  Biso   1.000  H
  C41      1.0000 0.95770  0.81070  0.09660  Biso   1.000  C
  H33      1.0000 0.03620  0.80760  0.12180  Biso   1.000  H
  H34      1.0000 0.94680  0.84160  0.04460  Biso   1.000  H
  C42      1.0000 0.98710  0.65580  0.10570  Biso   1.000  C
  H35      1.0000 0.97500  0.61380  0.06180  Biso   1.000  H
  H36      1.0000 0.06250  0.67480  0.11610  Biso   1.000  H
  C43      1.0000 0.81610  0.71560  0.02320  Biso   1.000  C
  C44      1.0000 0.68750  0.63290  0.93980  Biso   1.000  C
  C45      1.0000 0.65850  0.77130  0.94660  Biso   1.000  C
  N13      1.0000 0.75440  0.78510  0.00080  Biso   1.000  N
  N14      1.0000 0.62050  0.69800  0.91020  Biso   1.000  N
  N15      1.0000 0.78380  0.63600  0.99700  Biso   1.000  N
  N16      1.0000 0.65100  0.55520  0.90780  Biso   1.000  N
  N17      1.0000 0.91630  0.72520  0.07690  Biso   1.000  N
  N18      1.0000 0.58660  0.83960  0.92470  Biso   1.000  N
  O25      1.0000 0.72920  0.33560  0.92690  Biso   1.000  O
  O26      1.0000 0.74450  0.42910  0.83070  Biso   1.000  O
  O27      1.0000 0.64330  0.59680  0.74250  Biso   1.000  O
  O28      1.0000 0.46430  0.62090  0.71720  Biso   1.000  O
  O29      1.0000 0.39560  0.77780  0.73340  Biso   1.000  O
  O30      1.0000 0.55070  0.84850  0.74900  Biso   1.000  O
  O31      1.0000 0.68010  0.97470  0.86230  Biso   1.000  O
  O32      1.0000 0.63370  0.06360  0.95250  Biso   1.000  O
  O33      1.0000 0.94600  0.93200  0.17780  Biso   1.000  O
  O34      1.0000 0.82430  0.83700  0.18000  Biso   1.000  O
  O35      1.0000 0.88690  0.62860  0.20750  Biso   1.000  O
  O36      1.0000 0.04780  0.57140  0.22570  Biso   1.000  O
  U10      1.0000 0.34927  0.69832  0.60788  Biso   1.000  U
  U11      1.0000 0.26393  0.39250  0.73791  Biso   1.000  U
  U12      1.0000 0.18895  0.02798  0.74602  Biso   1.000  U
  C46      1.0000 0.27550  0.90870  0.60160  Biso   1.000  C
  C47      1.0000 0.44640  0.09420  0.73850  Biso   1.000  C
  C48      1.0000 0.52160  0.31610  0.72230  Biso   1.000  C
  C49      1.0000 0.35830  0.48880  0.57510  Biso   1.000  C
  C50      1.0000 0.09440  0.36080  0.34500  Biso   1.000  C
  C51      1.0000 0.02820  0.11420  0.31450  Biso   1.000  C
  C52      1.0000 0.30760  0.97810  0.54780  Biso   1.000  C
  H37      1.0000 0.24380  0.99170  0.50260  Biso   1.000  H
  H38      1.0000 0.36330  0.95590  0.52300  Biso   1.000  H
  C53      1.0000 0.45230  0.05130  0.65690  Biso   1.000  C
  H39      1.0000 0.47270  0.99280  0.66830  Biso   1.000  H
  H40      1.0000 0.50920  0.07810  0.63640  Biso   1.000  H
  C54      1.0000 0.51950  0.32600  0.63070  Biso   1.000  C
  H41      1.0000 0.55080  0.27580  0.61300  Biso   1.000  H
  H42      1.0000 0.56620  0.37310  0.62560  Biso   1.000  H
  C55      1.0000 0.39050  0.41850  0.52860  Biso   1.000  C
  H43      1.0000 0.45540  0.43490  0.51150  Biso   1.000  H
  H44      1.0000 0.33200  0.40880  0.47830  Biso   1.000  H
  C56      1.0000 0.04230  0.31070  0.40340  Biso   1.000  C
  H45      1.0000 0.96380  0.30760  0.37820  Biso   1.000  H
  H46      1.0000 0.05320  0.34160  0.45540  Biso   1.000  H
  C57      1.0000 0.01290  0.15580  0.39430  Biso   1.000  C
  H47      1.0000 0.02500  0.11380  0.43820  Biso   1.000  H
  H48      1.0000 0.93750  0.17480  0.38390  Biso   1.000  H
  C58      1.0000 0.18390  0.21560  0.47680  Biso   1.000  C
  C59      1.0000 0.31250  0.13290  0.56020  Biso   1.000  C
  C60      1.0000 0.34150  0.27130  0.55340  Biso   1.000  C
  N19      1.0000 0.24560  0.28510  0.49920  Biso   1.000  N
  N20      1.0000 0.37950  0.19800  0.58980  Biso   1.000  N
  N21      1.0000 0.21620  0.13600  0.50300  Biso   1.000  N
  N22      1.0000 0.34900  0.05520  0.59220  Biso   1.000  N
  N23      1.0000 0.08370  0.22520  0.42310  Biso   1.000  N
  N24      1.0000 0.41340  0.33960  0.57530  Biso   1.000  N
  O37      1.0000 0.27080  0.83560  0.57310  Biso   1.000  O
  O38      1.0000 0.25550  0.92910  0.66930  Biso   1.000  O
  O39      1.0000 0.35670  0.09680  0.75750  Biso   1.000  O
  O40      1.0000 0.53570  0.12090  0.78280  Biso   1.000  O
  O41      1.0000 0.60440  0.27780  0.76660  Biso   1.000  O
  O42      1.0000 0.44930  0.34850  0.75100  Biso   1.000  O
  O43      1.0000 0.31990  0.47470  0.63770  Biso   1.000  O
  O44      1.0000 0.36630  0.56360  0.54750  Biso   1.000  O
  O45      1.0000 0.05400  0.43200  0.32220  Biso   1.000  O
  O46      1.0000 0.17570  0.33700  0.32000  Biso   1.000  O
  O47      1.0000 0.11310  0.12860  0.29250  Biso   1.000  O
  O48      1.0000 0.95220  0.07140  0.27430  Biso   1.000  O
