data_image0
_cell_length_a       14.533
_cell_length_b       15.479
_cell_length_c       15.666
_cell_angle_alpha    74.643
_cell_angle_beta     74.576
_cell_angle_gamma    81.431

_symmetry_space_group_name_H-M    "P 1"
_symmetry_int_tables_number       1

loop_
  _symmetry_equiv_pos_as_xyz
  'x, y, z'

loop_
  _atom_site_label
  _atom_site_occupancy
  _atom_site_fract_x
  _atom_site_fract_y
  _atom_site_fract_z
  _atom_site_thermal_displace_type
  _atom_site_B_iso_or_equiv
  _atom_site_type_symbol
  U1       1.0000 0.45585  0.34330  0.76294  Biso   1.000  U
  U2       1.0000 0.52106  0.85895  0.82052  Biso   1.000  U
  U3       1.0000 0.26824  0.92117  0.58451  Biso   1.000  U
  U4       1.0000 0.84190  0.49701  0.80762  Biso   1.000  U
  U5       1.0000 0.81348  0.52101  0.43292  Biso   1.000  U
  C1       1.0000 0.38220  0.53580  0.60850  Biso   1.000  C
  C2       1.0000 0.45340  0.60390  0.59180  Biso   1.000  C
  H1       1.0000 0.49950  0.60210  0.53460  Biso   1.000  H
  H2       1.0000 0.41940  0.66330  0.58460  Biso   1.000  H
  C3       1.0000 0.64240  0.47970  0.63550  Biso   1.000  C
  C4       1.0000 0.61020  0.57300  0.63730  Biso   1.000  C
  H3       1.0000 0.63660  0.61090  0.57810  Biso   1.000  H
  H4       1.0000 0.63570  0.58910  0.68170  Biso   1.000  H
  C5       1.0000 0.66850  0.66010  0.86730  Biso   1.000  C
  C6       1.0000 0.60060  0.59120  0.93500  Biso   1.000  C
  H5       1.0000 0.61250  0.53600  0.91420  Biso   1.000  H
  H6       1.0000 0.61600  0.57770  0.99400  Biso   1.000  H
  C7       1.0000 0.46330  0.72650  0.04940  Biso   1.000  C
  C8       1.0000 0.44340  0.63800  0.03560  Biso   1.000  C
  H7       1.0000 0.45990  0.58920  0.08390  Biso   1.000  H
  H8       1.0000 0.37550  0.63880  0.03980  Biso   1.000  H
  C9       1.0000 0.19260  0.77060  0.71450  Biso   1.000  C
  C10      1.0000 0.17350  0.67740  0.77460  Biso   1.000  C
  H9       1.0000 0.10490  0.67390  0.79780  Biso   1.000  H
  H10      1.0000 0.19730  0.63330  0.73830  Biso   1.000  H
  C11      1.0000 0.16660  0.62040  0.01820  Biso   1.000  C
  C12      1.0000 0.17090  0.69190  0.93000  Biso   1.000  C
  H11      1.0000 0.10640  0.71560  0.92510  Biso   1.000  H
  H12      1.0000 0.20490  0.74100  0.93060  Biso   1.000  H
  C13      1.0000 0.88220  0.61460  0.58220  Biso   1.000  C
  C14      1.0000 0.92110  0.70340  0.54090  Biso   1.000  C
  H13      1.0000 0.87510  0.74920  0.56360  Biso   1.000  H
  H14      1.0000 0.97930  0.70340  0.56000  Biso   1.000  H
  C15      1.0000 0.02740  0.62790  0.33660  Biso   1.000  C
  C16      1.0000 0.02970  0.69890  0.38890  Biso   1.000  C
  H15      1.0000 0.07250  0.67460  0.42930  Biso   1.000  H
  H16      1.0000 0.05690  0.75130  0.34520  Biso   1.000  H
  C17      1.0000 0.63420  0.89690  0.59040  Biso   1.000  C
  C18      1.0000 0.60820  0.82850  0.54890  Biso   1.000  C
  H17      1.0000 0.64050  0.77030  0.57020  Biso   1.000  H
  H18      1.0000 0.53970  0.82310  0.56930  Biso   1.000  H
  C19      1.0000 0.57320  0.98270  0.33870  Biso   1.000  C
  C20      1.0000 0.55850  0.89530  0.40190  Biso   1.000  C
  H19      1.0000 0.54920  0.85410  0.36830  Biso   1.000  H
  H20      1.0000 0.49940  0.90130  0.44740  Biso   1.000  H
  C21      1.0000 0.69000  0.77530  0.16410  Biso   1.000  C
  C22      1.0000 0.75950  0.84860  0.13650  Biso   1.000  C
  H21      1.0000 0.78330  0.86170  0.07080  Biso   1.000  H
  H22      1.0000 0.72390  0.90280  0.15180  Biso   1.000  H
  C23      1.0000 0.31780  0.63740  0.83460  Biso   1.000  C
  C24      1.0000 0.45670  0.60520  0.74430  Biso   1.000  C
  C25      1.0000 0.45020  0.61960  0.88140  Biso   1.000  C
  C26      1.0000 0.86990  0.77030  0.39960  Biso   1.000  C
  C27      1.0000 0.72010  0.82890  0.40260  Biso   1.000  C
  C28      1.0000 0.82190  0.82060  0.26750  Biso   1.000  C
  C29      1.0000 0.92940  0.80230  0.13010  Biso   1.000  C
  H23      1.0000 0.92930  0.78840  0.07330  Biso   1.000  H
  H24      1.0000 0.96020  0.75200  0.16740  Biso   1.000  H
  C30      1.0000 0.97300  0.89000  0.11500  Biso   1.000  C
  N1       1.0000 0.50470  0.60050  0.80540  Biso   1.000  N
  N2       1.0000 0.35530  0.63530  0.90220  Biso   1.000  N
  N3       1.0000 0.36120  0.62380  0.75270  Biso   1.000  N
  N4       1.0000 0.50410  0.59260  0.65980  Biso   1.000  N
  N5       1.0000 0.21900  0.65530  0.85130  Biso   1.000  N
  N6       1.0000 0.49810  0.62130  0.94640  Biso   1.000  N
  N7       1.0000 0.78700  0.79140  0.44820  Biso   1.000  N
  N8       1.0000 0.73260  0.84430  0.31140  Biso   1.000  N
  N9       1.0000 0.89540  0.78850  0.30520  Biso   1.000  N
  N10      1.0000 0.63460  0.85310  0.45010  Biso   1.000  N
  N11      1.0000 0.94240  0.72660  0.44020  Biso   1.000  N
  N12      1.0000 0.83850  0.82900  0.17620  Biso   1.000  N
  O1       1.0000 0.30890  0.55990  0.57860  Biso   1.000  O
  O2       1.0000 0.40110  0.45590  0.65110  Biso   1.000  O
  O3       1.0000 0.59620  0.41600  0.69780  Biso   1.000  O
  O4       1.0000 0.71850  0.46030  0.58240  Biso   1.000  O
  O5       1.0000 0.75560  0.62990  0.84650  Biso   1.000  O
  O6       1.0000 0.63840  0.73700  0.83860  Biso   1.000  O
  O7       1.0000 0.48640  0.78930  0.98430  Biso   1.000  O
  O8       1.0000 0.44760  0.72870  0.13290  Biso   1.000  O
  O9       1.0000 0.23780  0.82180  0.73760  Biso   1.000  O
  O10      1.0000 0.16800  0.79270  0.64070  Biso   1.000  O
  O11      1.0000 0.18560  0.54090  0.02550  Biso   1.000  O
  O12      1.0000 0.13800  0.65000  0.09120  Biso   1.000  O
  O13      1.0000 0.85690  0.59610  0.66590  Biso   1.000  O
  O14      1.0000 0.87930  0.55950  0.53630  Biso   1.000  O
  O15      1.0000 0.95550  0.58950  0.34840  Biso   1.000  O
  O16      1.0000 0.10570  0.61170  0.28080  Biso   1.000  O
  O17      1.0000 0.62970  0.87310  0.67470  Biso   1.000  O
  O18      1.0000 0.66200  0.97200  0.54300  Biso   1.000  O
  O19      1.0000 0.62530  0.03120  0.35040  Biso   1.000  O
  O20      1.0000 0.52730  0.00630  0.28000  Biso   1.000  O
  O21      1.0000 0.70810  0.70170  0.21420  Biso   1.000  O
  O22      1.0000 0.61340  0.79420  0.13530  Biso   1.000  O
  O23      1.0000 0.01610  0.95330  0.11410  Biso   1.000  O
  O24      1.0000 0.05300  0.86000  0.07100  Biso   1.000  O
  H25      1.0000 0.05240  0.80620  0.07620  Biso   1.000  H
  U6       1.0000 0.54415  0.65670  0.23706  Biso   1.000  U
  U7       1.0000 0.47894  0.14105  0.17948  Biso   1.000  U
  U8       1.0000 0.73176  0.07883  0.41549  Biso   1.000  U
  U9       1.0000 0.15810  0.50299  0.19238  Biso   1.000  U
  U10      1.0000 0.18652  0.47899  0.56708  Biso   1.000  U
  C31      1.0000 0.61780  0.46420  0.39150  Biso   1.000  C
  C32      1.0000 0.54660  0.39610  0.40820  Biso   1.000  C
  H26      1.0000 0.50050  0.39790  0.46540  Biso   1.000  H
  H27      1.0000 0.58060  0.33670  0.41540  Biso   1.000  H
  C33      1.0000 0.35760  0.52030  0.36450  Biso   1.000  C
  C34      1.0000 0.38980  0.42700  0.36270  Biso   1.000  C
  H28      1.0000 0.36340  0.38910  0.42190  Biso   1.000  H
  H29      1.0000 0.36430  0.41090  0.31830  Biso   1.000  H
  C35      1.0000 0.33150  0.33990  0.13270  Biso   1.000  C
  C36      1.0000 0.39940  0.40880  0.06500  Biso   1.000  C
  H30      1.0000 0.38750  0.46400  0.08580  Biso   1.000  H
  H31      1.0000 0.38400  0.42230  0.00600  Biso   1.000  H
  C37      1.0000 0.53670  0.27350  0.95060  Biso   1.000  C
  C38      1.0000 0.55660  0.36200  0.96440  Biso   1.000  C
  H32      1.0000 0.54010  0.41080  0.91610  Biso   1.000  H
  H33      1.0000 0.62450  0.36120  0.96020  Biso   1.000  H
  C39      1.0000 0.80740  0.22940  0.28550  Biso   1.000  C
  C40      1.0000 0.82650  0.32260  0.22540  Biso   1.000  C
  H34      1.0000 0.89510  0.32610  0.20220  Biso   1.000  H
  H35      1.0000 0.80270  0.36670  0.26170  Biso   1.000  H
  C41      1.0000 0.83340  0.37960  0.98180  Biso   1.000  C
  C42      1.0000 0.82910  0.30810  0.07000  Biso   1.000  C
  H36      1.0000 0.89360  0.28440  0.07490  Biso   1.000  H
  H37      1.0000 0.79510  0.25900  0.06940  Biso   1.000  H
  C43      1.0000 0.11780  0.38540  0.41780  Biso   1.000  C
  C44      1.0000 0.07890  0.29660  0.45910  Biso   1.000  C
  H38      1.0000 0.12490  0.25080  0.43640  Biso   1.000  H
  H39      1.0000 0.02070  0.29660  0.44000  Biso   1.000  H
  C45      1.0000 0.97260  0.37210  0.66340  Biso   1.000  C
  C46      1.0000 0.97030  0.30110  0.61110  Biso   1.000  C
  H40      1.0000 0.92750  0.32540  0.57070  Biso   1.000  H
  H41      1.0000 0.94310  0.24870  0.65480  Biso   1.000  H
  C47      1.0000 0.36580  0.10310  0.40960  Biso   1.000  C
  C48      1.0000 0.39180  0.17150  0.45110  Biso   1.000  C
  H42      1.0000 0.35950  0.22970  0.42980  Biso   1.000  H
  H43      1.0000 0.46030  0.17690  0.43070  Biso   1.000  H
  C49      1.0000 0.42680  0.01730  0.66130  Biso   1.000  C
  C50      1.0000 0.44150  0.10470  0.59810  Biso   1.000  C
  H44      1.0000 0.45080  0.14590  0.63170  Biso   1.000  H
  H45      1.0000 0.50060  0.09870  0.55260  Biso   1.000  H
  C51      1.0000 0.31000  0.22470  0.83590  Biso   1.000  C
  C52      1.0000 0.24050  0.15140  0.86350  Biso   1.000  C
  H46      1.0000 0.21670  0.13830  0.92920  Biso   1.000  H
  H47      1.0000 0.27610  0.09720  0.84820  Biso   1.000  H
  C53      1.0000 0.68220  0.36260  0.16540  Biso   1.000  C
  C54      1.0000 0.54330  0.39480  0.25570  Biso   1.000  C
  C55      1.0000 0.54980  0.38040  0.11860  Biso   1.000  C
  C56      1.0000 0.13010  0.22970  0.60040  Biso   1.000  C
  C57      1.0000 0.27990  0.17110  0.59740  Biso   1.000  C
  C58      1.0000 0.17810  0.17940  0.73250  Biso   1.000  C
  C59      1.0000 0.07060  0.19770  0.86990  Biso   1.000  C
  H48      1.0000 0.07070  0.21160  0.92670  Biso   1.000  H
  H49      1.0000 0.03980  0.24800  0.83260  Biso   1.000  H
  C60      1.0000 0.02700  0.11000  0.88500  Biso   1.000  C
  N13      1.0000 0.49530  0.39950  0.19460  Biso   1.000  N
  N14      1.0000 0.64470  0.36470  0.09780  Biso   1.000  N
  N15      1.0000 0.63880  0.37620  0.24730  Biso   1.000  N
  N16      1.0000 0.49590  0.40740  0.34020  Biso   1.000  N
  N17      1.0000 0.78100  0.34470  0.14870  Biso   1.000  N
  N18      1.0000 0.50190  0.37870  0.05360  Biso   1.000  N
  N19      1.0000 0.21300  0.20860  0.55180  Biso   1.000  N
  N20      1.0000 0.26740  0.15570  0.68860  Biso   1.000  N
  N21      1.0000 0.10460  0.21150  0.69480  Biso   1.000  N
  N22      1.0000 0.36540  0.14690  0.54990  Biso   1.000  N
  N23      1.0000 0.05760  0.27340  0.55980  Biso   1.000  N
  N24      1.0000 0.16150  0.17100  0.82380  Biso   1.000  N
  O25      1.0000 0.69110  0.44010  0.42140  Biso   1.000  O
  O26      1.0000 0.59890  0.54410  0.34890  Biso   1.000  O
  O27      1.0000 0.40380  0.58400  0.30220  Biso   1.000  O
  O28      1.0000 0.28150  0.53970  0.41760  Biso   1.000  O
  O29      1.0000 0.24440  0.37010  0.15350  Biso   1.000  O
  O30      1.0000 0.36160  0.26300  0.16140  Biso   1.000  O
  O31      1.0000 0.51360  0.21070  0.01570  Biso   1.000  O
  O32      1.0000 0.55240  0.27130  0.86710  Biso   1.000  O
  O33      1.0000 0.76220  0.17820  0.26240  Biso   1.000  O
  O34      1.0000 0.83200  0.20730  0.35930  Biso   1.000  O
  O35      1.0000 0.81440  0.45910  0.97450  Biso   1.000  O
  O36      1.0000 0.86200  0.35000  0.90880  Biso   1.000  O
  O37      1.0000 0.14310  0.40390  0.33410  Biso   1.000  O
  O38      1.0000 0.12070  0.44050  0.46370  Biso   1.000  O
  O39      1.0000 0.04450  0.41050  0.65160  Biso   1.000  O
  O40      1.0000 0.89430  0.38830  0.71920  Biso   1.000  O
  O41      1.0000 0.37030  0.12690  0.32530  Biso   1.000  O
  O42      1.0000 0.33800  0.02800  0.45700  Biso   1.000  O
  O43      1.0000 0.37470  0.96880  0.64960  Biso   1.000  O
  O44      1.0000 0.47270  0.99370  0.72000  Biso   1.000  O
  O45      1.0000 0.29190  0.29830  0.78580  Biso   1.000  O
  O46      1.0000 0.38660  0.20580  0.86470  Biso   1.000  O
  O47      1.0000 0.98390  0.04670  0.88590  Biso   1.000  O
  O48      1.0000 0.94700  0.14000  0.92900  Biso   1.000  O
  H50      1.0000 0.94760  0.19380  0.92380  Biso   1.000  H
