data_image0
_cell_length_a       11.497
_cell_length_b       33.542
_cell_length_c       12.106
_cell_angle_alpha    90
_cell_angle_beta     116.84
_cell_angle_gamma    90

_symmetry_space_group_name_H-M    "P 1"
_symmetry_int_tables_number       1

loop_
  _symmetry_equiv_pos_as_xyz
  'x, y, z'

loop_
  _atom_site_label
  _atom_site_occupancy
  _atom_site_fract_x
  _atom_site_fract_y
  _atom_site_fract_z
  _atom_site_thermal_displace_type
  _atom_site_B_iso_or_equiv
  _atom_site_type_symbol
  C1       1.0000 0.97320  0.11260  0.68170  Biso   1.000  C
  H1       1.0000 0.01140  0.10700  0.76610  Biso   1.000  H
  C2       1.0000 0.04810  0.10860  0.61950  Biso   1.000  C
  H2       1.0000 0.13490  0.10080  0.66100  Biso   1.000  H
  C3       1.0000 0.99080  0.11650  0.49480  Biso   1.000  C
  C4       1.0000 0.86360  0.12760  0.43640  Biso   1.000  C
  H3       1.0000 0.82290  0.13270  0.35180  Biso   1.000  H
  C5       1.0000 0.79570  0.13140  0.50600  Biso   1.000  C
  H4       1.0000 0.70900  0.13950  0.46630  Biso   1.000  H
  C6       1.0000 0.07000  0.11480  0.42250  Biso   1.000  C
  C7       1.0000 0.16660  0.08630  0.44730  Biso   1.000  C
  H5       1.0000 0.18630  0.06780  0.51040  Biso   1.000  H
  C8       1.0000 0.23250  0.08610  0.37600  Biso   1.000  C
  H6       1.0000 0.29380  0.06630  0.38870  Biso   1.000  H
  C9       1.0000 0.11830  0.14220  0.26730  Biso   1.000  C
  H7       1.0000 0.10290  0.16160  0.20730  Biso   1.000  H
  C10      1.0000 0.04750  0.14270  0.33230  Biso   1.000  C
  H8       1.0000 0.98370  0.16210  0.31530  Biso   1.000  H
  C11      1.0000 0.28360  0.11460  0.21650  Biso   1.000  C
  H9       1.0000 0.64900  0.18010  0.83720  Biso   1.000  H
  C12      1.0000 0.41680  0.11040  0.27770  Biso   1.000  C
  H10      1.0000 0.46070  0.10730  0.36310  Biso   1.000  H
  C13      1.0000 0.48320  0.11120  0.20500  Biso   1.000  C
  H11      1.0000 0.57330  0.10820  0.24220  Biso   1.000  H
  C14      1.0000 0.41560  0.11630  0.07830  Biso   1.000  C
  C15      1.0000 0.28320  0.12030  0.02140  Biso   1.000  C
  H12      1.0000 0.23900  0.12400  0.93620  Biso   1.000  H
  C16      1.0000 0.21390  0.11890  0.09120  Biso   1.000  C
  H13      1.0000 0.12350  0.12090  0.05360  Biso   1.000  H
  C17      1.0000 0.48610  0.11950  0.99770  Biso   1.000  C
  C18      1.0000 0.31840  0.18230  0.55910  Biso   1.000  C
  C19      1.0000 0.21620  0.21450  0.52280  Biso   1.000  C
  C20      1.0000 0.14570  0.21920  0.59030  Biso   1.000  C
  H14      1.0000 0.15850  0.20190  0.65470  Biso   1.000  H
  C21      1.0000 0.05660  0.25000  0.56000  Biso   1.000  C
  H15      1.0000 0.01020  0.25350  0.60540  Biso   1.000  H
  C22      1.0000 0.03550  0.27574  0.46350  Biso   1.000  C
  C23      1.0000 0.10370  0.26970  0.39350  Biso   1.000  C
  H16      1.0000 0.08750  0.28600  0.32580  Biso   1.000  H
  C24      1.0000 0.19450  0.23970  0.42550  Biso   1.000  C
  H17      1.0000 0.24190  0.23640  0.38090  Biso   1.000  H
  C25      1.0000 0.93980  0.30906  0.43180  Biso   1.000  C
  C26      1.0000 0.53500  0.07371  0.63320  Biso   1.000  C
  C27      1.0000 0.51920  0.03532  0.56690  Biso   1.000  C
  C28      1.0000 0.43480  0.00619  0.57090  Biso   1.000  C
  H18      1.0000 0.39130  0.01040  0.61860  Biso   1.000  H
  C29      1.0000 0.58510  0.02875  0.49510  Biso   1.000  C
  H19      1.0000 0.64190  0.04790  0.49210  Biso   1.000  H
  C30      1.0000 0.86550  0.07688  0.94850  Biso   1.000  C
  C31      1.0000 0.93700  0.03710  0.97700  Biso   1.000  C
  C32      1.0000 0.99730  0.02180  0.09580  Biso   1.000  C
  H20      1.0000 0.99560  0.03620  0.16070  Biso   1.000  H
  C33      1.0000 0.93990  0.01470  0.88050  Biso   1.000  C
  H21      1.0000 0.89930  0.02440  0.79990  Biso   1.000  H
  N1       1.0000 0.84890  0.12398  0.62630  Biso   1.000  N
  N2       1.0000 0.20990  0.11419  0.28810  Biso   1.000  N
  O1       1.0000 0.60680  0.11776  0.04860  Biso   1.000  O
  O2       1.0000 0.41330  0.12250  0.88560  Biso   1.000  O
  O3       1.0000 0.33040  0.16151  0.65090  Biso   1.000  O
  O4       1.0000 0.38070  0.17762  0.49840  Biso   1.000  O
  O5       1.0000 0.91320  0.32093  0.51570  Biso   1.000  O
  O6       1.0000 0.89600  0.32267  0.32510  Biso   1.000  O
  O7       1.0000 0.59370  0.10164  0.61030  Biso   1.000  O
  O8       1.0000 0.48330  0.07616  0.70550  Biso   1.000  O
  O9       1.0000 0.82630  0.08962  0.84200  Biso   1.000  O
  O10      1.0000 0.85190  0.09381  0.03830  Biso   1.000  O
  O11      1.0000 0.64520  0.15645  0.83330  Biso   1.000  O
  Zn1      1.0000 0.74584  0.13947  0.73011  Biso   1.000  Zn
  Zn2      1.0000 0.47635  0.13019  0.76194  Biso   1.000  Zn
  Zn3      1.0000 0.75869  0.14582  0.01157  Biso   1.000  Zn
  C34      1.0000 0.02680  0.61260  0.81830  Biso   1.000  C
  H22      1.0000 0.98860  0.60700  0.73390  Biso   1.000  H
  C35      1.0000 0.95190  0.60860  0.88050  Biso   1.000  C
  H23      1.0000 0.86510  0.60080  0.83900  Biso   1.000  H
  C36      1.0000 0.00920  0.61650  0.00520  Biso   1.000  C
  C37      1.0000 0.13640  0.62760  0.06360  Biso   1.000  C
  H24      1.0000 0.17710  0.63270  0.14820  Biso   1.000  H
  C38      1.0000 0.20430  0.63140  0.99400  Biso   1.000  C
  H25      1.0000 0.29100  0.63950  0.03370  Biso   1.000  H
  C39      1.0000 0.93000  0.61480  0.07750  Biso   1.000  C
  C40      1.0000 0.83340  0.58630  0.05270  Biso   1.000  C
  H26      1.0000 0.81370  0.56780  0.98960  Biso   1.000  H
  C41      1.0000 0.76750  0.58610  0.12400  Biso   1.000  C
  H27      1.0000 0.70620  0.56630  0.11130  Biso   1.000  H
  C42      1.0000 0.88170  0.64220  0.23270  Biso   1.000  C
  H28      1.0000 0.89710  0.66160  0.29270  Biso   1.000  H
  C43      1.0000 0.95250  0.64270  0.16770  Biso   1.000  C
  H29      1.0000 0.01630  0.66210  0.18470  Biso   1.000  H
  C44      1.0000 0.71640  0.61460  0.28350  Biso   1.000  C
  H30      1.0000 0.35100  0.68010  0.66280  Biso   1.000  H
  C45      1.0000 0.58320  0.61040  0.22230  Biso   1.000  C
  H31      1.0000 0.53930  0.60730  0.13690  Biso   1.000  H
  C46      1.0000 0.51680  0.61120  0.29500  Biso   1.000  C
  H32      1.0000 0.42670  0.60820  0.25780  Biso   1.000  H
  C47      1.0000 0.58440  0.61630  0.42170  Biso   1.000  C
  C48      1.0000 0.71680  0.62030  0.47860  Biso   1.000  C
  H33      1.0000 0.76100  0.62400  0.56380  Biso   1.000  H
  C49      1.0000 0.78610  0.61890  0.40880  Biso   1.000  C
  H34      1.0000 0.87650  0.62090  0.44640  Biso   1.000  H
  C50      1.0000 0.51390  0.61950  0.50230  Biso   1.000  C
  C51      1.0000 0.68160  0.68230  0.94090  Biso   1.000  C
  C52      1.0000 0.78380  0.71450  0.97720  Biso   1.000  C
  C53      1.0000 0.85430  0.71920  0.90970  Biso   1.000  C
  H35      1.0000 0.84150  0.70190  0.84530  Biso   1.000  H
  C54      1.0000 0.94340  0.75000  0.94000  Biso   1.000  C
  H36      1.0000 0.98980  0.75350  0.89460  Biso   1.000  H
  C55      1.0000 0.96450  0.77574  0.03650  Biso   1.000  C
  C56      1.0000 0.89630  0.76970  0.10650  Biso   1.000  C
  H37      1.0000 0.91250  0.78600  0.17420  Biso   1.000  H
  C57      1.0000 0.80550  0.73970  0.07450  Biso   1.000  C
  H38      1.0000 0.75810  0.73640  0.11910  Biso   1.000  H
  C58      1.0000 0.06020  0.80906  0.06820  Biso   1.000  C
  C59      1.0000 0.46500  0.57371  0.86680  Biso   1.000  C
  C60      1.0000 0.48080  0.53532  0.93310  Biso   1.000  C
  C61      1.0000 0.56520  0.50619  0.92910  Biso   1.000  C
  H39      1.0000 0.60870  0.51040  0.88140  Biso   1.000  H
  C62      1.0000 0.41490  0.52875  0.00490  Biso   1.000  C
  H40      1.0000 0.35810  0.54790  0.00790  Biso   1.000  H
  C63      1.0000 0.13450  0.57688  0.55150  Biso   1.000  C
  C64      1.0000 0.06300  0.53710  0.52300  Biso   1.000  C
  C65      1.0000 0.00270  0.52180  0.40420  Biso   1.000  C
  H41      1.0000 0.00440  0.53620  0.33930  Biso   1.000  H
  C66      1.0000 0.06010  0.51470  0.61950  Biso   1.000  C
  H42      1.0000 0.10070  0.52440  0.70010  Biso   1.000  H
  N3       1.0000 0.15110  0.62398  0.87370  Biso   1.000  N
  N4       1.0000 0.79010  0.61419  0.21190  Biso   1.000  N
  O12      1.0000 0.39320  0.61776  0.45140  Biso   1.000  O
  O13      1.0000 0.58670  0.62250  0.61440  Biso   1.000  O
  O14      1.0000 0.66960  0.66151  0.84910  Biso   1.000  O
  O15      1.0000 0.61930  0.67762  0.00160  Biso   1.000  O
  O16      1.0000 0.08680  0.82093  0.98430  Biso   1.000  O
  O17      1.0000 0.10400  0.82267  0.17490  Biso   1.000  O
  O18      1.0000 0.40630  0.60164  0.88970  Biso   1.000  O
  O19      1.0000 0.51670  0.57616  0.79450  Biso   1.000  O
  O20      1.0000 0.17370  0.58962  0.65800  Biso   1.000  O
  O21      1.0000 0.14810  0.59381  0.46170  Biso   1.000  O
  O22      1.0000 0.35480  0.65645  0.66670  Biso   1.000  O
  Zn4      1.0000 0.25416  0.63947  0.76989  Biso   1.000  Zn
  Zn5      1.0000 0.52365  0.63019  0.73806  Biso   1.000  Zn
  Zn6      1.0000 0.24131  0.64582  0.48843  Biso   1.000  Zn
  C67      1.0000 0.02680  0.88740  0.31830  Biso   1.000  C
  H43      1.0000 0.98860  0.89300  0.23390  Biso   1.000  H
  C68      1.0000 0.95190  0.89140  0.38050  Biso   1.000  C
  H44      1.0000 0.86510  0.89920  0.33900  Biso   1.000  H
  C69      1.0000 0.00920  0.88350  0.50520  Biso   1.000  C
  C70      1.0000 0.13640  0.87240  0.56360  Biso   1.000  C
  H45      1.0000 0.17710  0.86730  0.64820  Biso   1.000  H
  C71      1.0000 0.20430  0.86860  0.49400  Biso   1.000  C
  H46      1.0000 0.29100  0.86050  0.53370  Biso   1.000  H
  C72      1.0000 0.93000  0.88520  0.57750  Biso   1.000  C
  C73      1.0000 0.83340  0.91370  0.55270  Biso   1.000  C
  H47      1.0000 0.81370  0.93220  0.48960  Biso   1.000  H
  C74      1.0000 0.76750  0.91390  0.62400  Biso   1.000  C
  H48      1.0000 0.70620  0.93370  0.61130  Biso   1.000  H
  C75      1.0000 0.88170  0.85780  0.73270  Biso   1.000  C
  H49      1.0000 0.89710  0.83840  0.79270  Biso   1.000  H
  C76      1.0000 0.95250  0.85730  0.66770  Biso   1.000  C
  H50      1.0000 0.01630  0.83790  0.68470  Biso   1.000  H
  C77      1.0000 0.71640  0.88540  0.78350  Biso   1.000  C
  H51      1.0000 0.35100  0.81990  0.16280  Biso   1.000  H
  C78      1.0000 0.58320  0.88960  0.72230  Biso   1.000  C
  H52      1.0000 0.53930  0.89270  0.63690  Biso   1.000  H
  C79      1.0000 0.51680  0.88880  0.79500  Biso   1.000  C
  H53      1.0000 0.42670  0.89180  0.75780  Biso   1.000  H
  C80      1.0000 0.58440  0.88370  0.92170  Biso   1.000  C
  C81      1.0000 0.71680  0.87970  0.97860  Biso   1.000  C
  H54      1.0000 0.76100  0.87600  0.06380  Biso   1.000  H
  C82      1.0000 0.78610  0.88110  0.90880  Biso   1.000  C
  H55      1.0000 0.87650  0.87910  0.94640  Biso   1.000  H
  C83      1.0000 0.51390  0.88050  0.00230  Biso   1.000  C
  C84      1.0000 0.68160  0.81770  0.44090  Biso   1.000  C
  C85      1.0000 0.78380  0.78550  0.47720  Biso   1.000  C
  C86      1.0000 0.85430  0.78080  0.40970  Biso   1.000  C
  H56      1.0000 0.84150  0.79810  0.34530  Biso   1.000  H
  C87      1.0000 0.94340  0.75000  0.44000  Biso   1.000  C
  H57      1.0000 0.98980  0.74650  0.39460  Biso   1.000  H
  C88      1.0000 0.96450  0.72426  0.53650  Biso   1.000  C
  C89      1.0000 0.89630  0.73030  0.60650  Biso   1.000  C
  H58      1.0000 0.91250  0.71400  0.67420  Biso   1.000  H
  C90      1.0000 0.80550  0.76030  0.57450  Biso   1.000  C
  H59      1.0000 0.75810  0.76360  0.61910  Biso   1.000  H
  C91      1.0000 0.06020  0.69094  0.56820  Biso   1.000  C
  C92      1.0000 0.46500  0.92629  0.36680  Biso   1.000  C
  C93      1.0000 0.48080  0.96468  0.43310  Biso   1.000  C
  C94      1.0000 0.56520  0.99381  0.42910  Biso   1.000  C
  H60      1.0000 0.60870  0.98960  0.38140  Biso   1.000  H
  C95      1.0000 0.41490  0.97125  0.50490  Biso   1.000  C
  H61      1.0000 0.35810  0.95210  0.50790  Biso   1.000  H
  C96      1.0000 0.13450  0.92312  0.05150  Biso   1.000  C
  C97      1.0000 0.06300  0.96290  0.02300  Biso   1.000  C
  C98      1.0000 0.00270  0.97820  0.90420  Biso   1.000  C
  H62      1.0000 0.00440  0.96380  0.83930  Biso   1.000  H
  C99      1.0000 0.06010  0.98530  0.11950  Biso   1.000  C
  H63      1.0000 0.10070  0.97560  0.20010  Biso   1.000  H
  N5       1.0000 0.15110  0.87602  0.37370  Biso   1.000  N
  N6       1.0000 0.79010  0.88581  0.71190  Biso   1.000  N
  O23      1.0000 0.39320  0.88224  0.95140  Biso   1.000  O
  O24      1.0000 0.58670  0.87750  0.11440  Biso   1.000  O
  O25      1.0000 0.66960  0.83849  0.34910  Biso   1.000  O
  O26      1.0000 0.61930  0.82238  0.50160  Biso   1.000  O
  O27      1.0000 0.08680  0.67907  0.48430  Biso   1.000  O
  O28      1.0000 0.10400  0.67733  0.67490  Biso   1.000  O
  O29      1.0000 0.40630  0.89836  0.38970  Biso   1.000  O
  O30      1.0000 0.51670  0.92384  0.29450  Biso   1.000  O
  O31      1.0000 0.17370  0.91038  0.15800  Biso   1.000  O
  O32      1.0000 0.14810  0.90619  0.96170  Biso   1.000  O
  O33      1.0000 0.35480  0.84355  0.16670  Biso   1.000  O
  Zn7      1.0000 0.25416  0.86053  0.26989  Biso   1.000  Zn
  Zn8      1.0000 0.52365  0.86981  0.23806  Biso   1.000  Zn
  Zn9      1.0000 0.24131  0.85418  0.98843  Biso   1.000  Zn
  C100     1.0000 0.97320  0.38740  0.18170  Biso   1.000  C
  H64      1.0000 0.01140  0.39300  0.26610  Biso   1.000  H
  C101     1.0000 0.04810  0.39140  0.11950  Biso   1.000  C
  H65      1.0000 0.13490  0.39920  0.16100  Biso   1.000  H
  C102     1.0000 0.99080  0.38350  0.99480  Biso   1.000  C
  C103     1.0000 0.86360  0.37240  0.93640  Biso   1.000  C
  H66      1.0000 0.82290  0.36730  0.85180  Biso   1.000  H
  C104     1.0000 0.79570  0.36860  0.00600  Biso   1.000  C
  H67      1.0000 0.70900  0.36050  0.96630  Biso   1.000  H
  C105     1.0000 0.07000  0.38520  0.92250  Biso   1.000  C
  C106     1.0000 0.16660  0.41370  0.94730  Biso   1.000  C
  H68      1.0000 0.18630  0.43220  0.01040  Biso   1.000  H
  C107     1.0000 0.23250  0.41390  0.87600  Biso   1.000  C
  H69      1.0000 0.29380  0.43370  0.88870  Biso   1.000  H
  C108     1.0000 0.11830  0.35780  0.76730  Biso   1.000  C
  H70      1.0000 0.10290  0.33840  0.70730  Biso   1.000  H
  C109     1.0000 0.04750  0.35730  0.83230  Biso   1.000  C
  H71      1.0000 0.98370  0.33790  0.81530  Biso   1.000  H
  C110     1.0000 0.28360  0.38540  0.71650  Biso   1.000  C
  H72      1.0000 0.64900  0.31990  0.33720  Biso   1.000  H
  C111     1.0000 0.41680  0.38960  0.77770  Biso   1.000  C
  H73      1.0000 0.46070  0.39270  0.86310  Biso   1.000  H
  C112     1.0000 0.48320  0.38880  0.70500  Biso   1.000  C
  H74      1.0000 0.57330  0.39180  0.74220  Biso   1.000  H
  C113     1.0000 0.41560  0.38370  0.57830  Biso   1.000  C
  C114     1.0000 0.28320  0.37970  0.52140  Biso   1.000  C
  H75      1.0000 0.23900  0.37600  0.43620  Biso   1.000  H
  C115     1.0000 0.21390  0.38110  0.59120  Biso   1.000  C
  H76      1.0000 0.12350  0.37910  0.55360  Biso   1.000  H
  C116     1.0000 0.48610  0.38050  0.49770  Biso   1.000  C
  C117     1.0000 0.31840  0.31770  0.05910  Biso   1.000  C
  C118     1.0000 0.21620  0.28550  0.02280  Biso   1.000  C
  C119     1.0000 0.14570  0.28080  0.09030  Biso   1.000  C
  H77      1.0000 0.15850  0.29810  0.15470  Biso   1.000  H
  C120     1.0000 0.05660  0.25000  0.06000  Biso   1.000  C
  H78      1.0000 0.01020  0.24650  0.10540  Biso   1.000  H
  C121     1.0000 0.03550  0.22426  0.96350  Biso   1.000  C
  C122     1.0000 0.10370  0.23030  0.89350  Biso   1.000  C
  H79      1.0000 0.08750  0.21400  0.82580  Biso   1.000  H
  C123     1.0000 0.19450  0.26030  0.92550  Biso   1.000  C
  H80      1.0000 0.24190  0.26360  0.88090  Biso   1.000  H
  C124     1.0000 0.93980  0.19094  0.93180  Biso   1.000  C
  C125     1.0000 0.53500  0.42629  0.13320  Biso   1.000  C
  C126     1.0000 0.51920  0.46468  0.06690  Biso   1.000  C
  C127     1.0000 0.43480  0.49381  0.07090  Biso   1.000  C
  H81      1.0000 0.39130  0.48960  0.11860  Biso   1.000  H
  C128     1.0000 0.58510  0.47125  0.99510  Biso   1.000  C
  H82      1.0000 0.64190  0.45210  0.99210  Biso   1.000  H
  C129     1.0000 0.86550  0.42312  0.44850  Biso   1.000  C
  C130     1.0000 0.93700  0.46290  0.47700  Biso   1.000  C
  C131     1.0000 0.99730  0.47820  0.59580  Biso   1.000  C
  H83      1.0000 0.99560  0.46380  0.66070  Biso   1.000  H
  C132     1.0000 0.93990  0.48530  0.38050  Biso   1.000  C
  H84      1.0000 0.89930  0.47560  0.29990  Biso   1.000  H
  N7       1.0000 0.84890  0.37602  0.12630  Biso   1.000  N
  N8       1.0000 0.20990  0.38581  0.78810  Biso   1.000  N
  O34      1.0000 0.60680  0.38224  0.54860  Biso   1.000  O
  O35      1.0000 0.41330  0.37750  0.38560  Biso   1.000  O
  O36      1.0000 0.33040  0.33849  0.15090  Biso   1.000  O
  O37      1.0000 0.38070  0.32238  0.99840  Biso   1.000  O
  O38      1.0000 0.91320  0.17907  0.01570  Biso   1.000  O
  O39      1.0000 0.89600  0.17733  0.82510  Biso   1.000  O
  O40      1.0000 0.59370  0.39836  0.11030  Biso   1.000  O
  O41      1.0000 0.48330  0.42384  0.20550  Biso   1.000  O
  O42      1.0000 0.82630  0.41038  0.34200  Biso   1.000  O
  O43      1.0000 0.85190  0.40619  0.53830  Biso   1.000  O
  O44      1.0000 0.64520  0.34355  0.33330  Biso   1.000  O
  Zn10     1.0000 0.74584  0.36053  0.23011  Biso   1.000  Zn
  Zn11     1.0000 0.47635  0.36981  0.26194  Biso   1.000  Zn
  Zn12     1.0000 0.75869  0.35418  0.51157  Biso   1.000  Zn
