data_image0
_cell_length_a       15.3805
_cell_length_b       8.4335
_cell_length_c       13.8969
_cell_angle_alpha    90
_cell_angle_beta     107.583
_cell_angle_gamma    90

_symmetry_space_group_name_H-M    "P 1"
_symmetry_int_tables_number       1

loop_
  _symmetry_equiv_pos_as_xyz
  'x, y, z'

loop_
  _atom_site_label
  _atom_site_occupancy
  _atom_site_fract_x
  _atom_site_fract_y
  _atom_site_fract_z
  _atom_site_thermal_displace_type
  _atom_site_B_iso_or_equiv
  _atom_site_type_symbol
  C1       1.0000 0.68696  0.43878  0.43054  Biso   1.000  C
  N1       1.0000 0.64609  0.54778  0.39134  Biso   1.000  N
  C2       1.0000 0.66491  0.12016  0.39849  Biso   1.000  C
  N2       1.0000 0.61384  0.04506  0.33794  Biso   1.000  N
  N3       1.0000 0.88911  0.24558  0.37880  Biso   1.000  N
  C3       1.0000 0.83635  0.24825  0.42231  Biso   1.000  C
  C4       1.0000 0.18696  0.93878  0.43054  Biso   1.000  C
  N4       1.0000 0.14609  0.04778  0.39134  Biso   1.000  N
  C5       1.0000 0.16491  0.62016  0.39849  Biso   1.000  C
  N5       1.0000 0.11384  0.54506  0.33794  Biso   1.000  N
  N6       1.0000 0.38911  0.74558  0.37880  Biso   1.000  N
  C6       1.0000 0.33635  0.74825  0.42231  Biso   1.000  C
  C7       1.0000 0.31304  0.43878  0.06946  Biso   1.000  C
  N7       1.0000 0.35391  0.54778  0.10866  Biso   1.000  N
  C8       1.0000 0.33509  0.12016  0.10151  Biso   1.000  C
  N8       1.0000 0.38616  0.04506  0.16206  Biso   1.000  N
  N9       1.0000 0.11089  0.24558  0.12120  Biso   1.000  N
  C9       1.0000 0.16365  0.24825  0.07769  Biso   1.000  C
  C10      1.0000 0.81304  0.93878  0.06946  Biso   1.000  C
  N10      1.0000 0.85391  0.04778  0.10866  Biso   1.000  N
  C11      1.0000 0.83509  0.62016  0.10151  Biso   1.000  C
  N11      1.0000 0.88616  0.54506  0.16206  Biso   1.000  N
  N12      1.0000 0.61089  0.74558  0.12120  Biso   1.000  N
  C12      1.0000 0.66365  0.74825  0.07769  Biso   1.000  C
  C13      1.0000 0.31304  0.56122  0.56946  Biso   1.000  C
  N13      1.0000 0.35391  0.45222  0.60866  Biso   1.000  N
  C14      1.0000 0.33509  0.87984  0.60151  Biso   1.000  C
  N14      1.0000 0.38616  0.95494  0.66206  Biso   1.000  N
  N15      1.0000 0.11089  0.75442  0.62120  Biso   1.000  N
  C15      1.0000 0.16365  0.75175  0.57769  Biso   1.000  C
  C16      1.0000 0.81304  0.06122  0.56946  Biso   1.000  C
  N16      1.0000 0.85391  0.95222  0.60866  Biso   1.000  N
  C17      1.0000 0.83509  0.37984  0.60151  Biso   1.000  C
  N17      1.0000 0.88616  0.45494  0.66206  Biso   1.000  N
  N18      1.0000 0.61089  0.25442  0.62120  Biso   1.000  N
  C18      1.0000 0.66365  0.25175  0.57769  Biso   1.000  C
  C19      1.0000 0.68696  0.56122  0.93054  Biso   1.000  C
  N19      1.0000 0.64609  0.45222  0.89134  Biso   1.000  N
  C20      1.0000 0.66491  0.87984  0.89849  Biso   1.000  C
  N20      1.0000 0.61384  0.95494  0.83794  Biso   1.000  N
  N21      1.0000 0.88911  0.75442  0.87880  Biso   1.000  N
  C21      1.0000 0.83635  0.75175  0.92231  Biso   1.000  C
  C22      1.0000 0.18696  0.06122  0.93054  Biso   1.000  C
  N22      1.0000 0.14609  0.95222  0.89134  Biso   1.000  N
  C23      1.0000 0.16491  0.37984  0.89849  Biso   1.000  C
  N23      1.0000 0.11384  0.45494  0.83794  Biso   1.000  N
  N24      1.0000 0.38911  0.25442  0.87880  Biso   1.000  N
  C24      1.0000 0.33635  0.25175  0.92231  Biso   1.000  C
  K1       1.0000 0.50000  0.78005  0.25000  Biso   1.000  K
  K2       1.0000 0.00000  0.28005  0.25000  Biso   1.000  K
  K3       1.0000 0.50000  0.21995  0.75000  Biso   1.000  K
  K4       1.0000 0.00000  0.71995  0.75000  Biso   1.000  K
  Fe1      1.0000 0.75000  0.25000  0.50000  Biso   1.000  Fe
  Fe2      1.0000 0.25000  0.25000  0.00000  Biso   1.000  Fe
  Fe3      1.0000 0.25000  0.75000  0.50000  Biso   1.000  Fe
  Fe4      1.0000 0.75000  0.75000  0.00000  Biso   1.000  Fe
