data_QUVFET_clean
_audit_creation_date              2014-07-02
_audit_creation_method            'Materials Studio'
_symmetry_space_group_name_H-M    'P1'
_symmetry_Int_Tables_number       1
_symmetry_cell_setting            triclinic
loop_
_symmetry_equiv_pos_as_xyz
  x,y,z
_cell_length_a                    11.2506
_cell_length_b                    14.8354
_cell_length_c                    16.1843
_cell_angle_alpha                 90.0000
_cell_angle_beta                  90.0000
_cell_angle_gamma                 90.0000
loop_
_atom_site_label
_atom_site_type_symbol
_atom_site_fract_x
_atom_site_fract_y
_atom_site_fract_z
_atom_site_U_iso_or_equiv
_atom_site_adp_type
_atom_site_occupancy
Lu1    Lu    0.27297   0.74730   0.43189   0.01267  Uiso   1.00
Lu2    Lu    0.24309   0.80465   0.05502   0.01267  Uiso   1.00
Lu3    Lu    0.22703   0.25270   0.93189   0.01267  Uiso   1.00
Lu4    Lu    0.25691   0.19535   0.55502   0.01267  Uiso   1.00
Lu5    Lu    0.72703   0.24730   0.06811   0.01267  Uiso   1.00
Lu6    Lu    0.75691   0.30465   0.44498   0.01267  Uiso   1.00
Lu7    Lu    0.77297   0.75270   0.56811   0.01267  Uiso   1.00
Lu8    Lu    0.74309   0.69535   0.94498   0.01267  Uiso   1.00
P1     P     0.26140   0.81850   0.83319   0.01267  Uiso   1.00
P2     P     0.31220   0.95050   0.54520   0.01267  Uiso   1.00
P3     P     0.23860   0.18150   0.33319   0.01267  Uiso   1.00
P4     P     0.18780   0.04950   0.04520   0.01267  Uiso   1.00
P5     P     0.73860   0.31850   0.66681   0.01267  Uiso   1.00
P6     P     0.68780   0.45050   0.95480   0.01267  Uiso   1.00
P7     P     0.76140   0.68150   0.16681   0.01267  Uiso   1.00
P8     P     0.81220   0.54950   0.45480   0.01267  Uiso   1.00
H1     H     0.40400   0.75120   0.79410   0.01267  Uiso   1.00
H2     H     0.46600   0.01180   0.52870   0.01267  Uiso   1.00
H3     H     0.22740   0.00700   0.69580   0.01267  Uiso   1.00
H4     H     0.86290   0.15210   0.74230   0.01267  Uiso   1.00
H5     H     0.32780   0.96370   0.80510   0.01267  Uiso   1.00
H6     H     0.19270   0.96460   0.82700   0.01267  Uiso   1.00
H7     H     0.38740   0.90860   0.67510   0.01267  Uiso   1.00
H8     H     0.29050   0.83910   0.64730   0.01267  Uiso   1.00
H9     H     0.08530   0.93300   0.62730   0.01267  Uiso   1.00
H10    H     0.08990   0.85690   0.69450   0.01267  Uiso   1.00
H11    H     0.98280   0.87770   0.82630   0.01267  Uiso   1.00
H12    H     0.85280   0.95950   0.90350   0.01267  Uiso   1.00
H13    H     0.79700   0.10190   0.86350   0.01267  Uiso   1.00
H14    H     0.99960   0.07710   0.66260   0.01267  Uiso   1.00
H15    H     0.09600   0.24880   0.29410   0.01267  Uiso   1.00
H16    H     0.03400   0.98820   0.02870   0.01267  Uiso   1.00
H17    H     0.27260   0.99300   0.19580   0.01267  Uiso   1.00
H18    H     0.63710   0.84790   0.24230   0.01267  Uiso   1.00
H19    H     0.17220   0.03630   0.30510   0.01267  Uiso   1.00
H20    H     0.30730   0.03540   0.32700   0.01267  Uiso   1.00
H21    H     0.11260   0.09140   0.17510   0.01267  Uiso   1.00
H22    H     0.20950   0.16090   0.14730   0.01267  Uiso   1.00
H23    H     0.41470   0.06700   0.12730   0.01267  Uiso   1.00
H24    H     0.41010   0.14310   0.19450   0.01267  Uiso   1.00
H25    H     0.51720   0.12230   0.32630   0.01267  Uiso   1.00
H26    H     0.64720   0.04050   0.40350   0.01267  Uiso   1.00
H27    H     0.70300   0.89810   0.36350   0.01267  Uiso   1.00
H28    H     0.50040   0.92290   0.16260   0.01267  Uiso   1.00
H29    H     0.59600   0.25120   0.70590   0.01267  Uiso   1.00
H30    H     0.53400   0.51180   0.97130   0.01267  Uiso   1.00
H31    H     0.77260   0.50700   0.80420   0.01267  Uiso   1.00
H32    H     0.13710   0.65210   0.75770   0.01267  Uiso   1.00
H33    H     0.67220   0.46370   0.69490   0.01267  Uiso   1.00
H34    H     0.80730   0.46460   0.67300   0.01267  Uiso   1.00
H35    H     0.61260   0.40860   0.82490   0.01267  Uiso   1.00
H36    H     0.70950   0.33910   0.85270   0.01267  Uiso   1.00
H37    H     0.91470   0.43300   0.87270   0.01267  Uiso   1.00
H38    H     0.91010   0.35690   0.80550   0.01267  Uiso   1.00
H39    H     0.01720   0.37770   0.67370   0.01267  Uiso   1.00
H40    H     0.14720   0.45950   0.59650   0.01267  Uiso   1.00
H41    H     0.20300   0.60190   0.63650   0.01267  Uiso   1.00
H42    H     0.00040   0.57710   0.83740   0.01267  Uiso   1.00
H43    H     0.90400   0.74880   0.20590   0.01267  Uiso   1.00
H44    H     0.96600   0.48820   0.47130   0.01267  Uiso   1.00
H45    H     0.72740   0.49300   0.30420   0.01267  Uiso   1.00
H46    H     0.36290   0.34790   0.25770   0.01267  Uiso   1.00
H47    H     0.82780   0.53630   0.19490   0.01267  Uiso   1.00
H48    H     0.69270   0.53540   0.17300   0.01267  Uiso   1.00
H49    H     0.88740   0.59140   0.32490   0.01267  Uiso   1.00
H50    H     0.79050   0.66090   0.35270   0.01267  Uiso   1.00
H51    H     0.58530   0.56700   0.37270   0.01267  Uiso   1.00
H52    H     0.58990   0.64310   0.30550   0.01267  Uiso   1.00
H53    H     0.48280   0.62230   0.17370   0.01267  Uiso   1.00
H54    H     0.35280   0.54050   0.09650   0.01267  Uiso   1.00
H55    H     0.29700   0.39810   0.13650   0.01267  Uiso   1.00
H56    H     0.49960   0.42290   0.33740   0.01267  Uiso   1.00
C1     C     0.25270   0.93380   0.79450   0.01267  Uiso   1.00
C2     C     0.30890   0.90290   0.65080   0.01267  Uiso   1.00
C3     C     0.09970   0.92110   0.68540   0.01267  Uiso   1.00
C4     C     0.00730   0.97280   0.73750   0.01267  Uiso   1.00
C5     C     0.96060   0.93530   0.80960   0.01267  Uiso   1.00
C6     C     0.88310   0.98380   0.85490   0.01267  Uiso   1.00
C7     C     0.84800   0.06810   0.83060   0.01267  Uiso   1.00
C8     C     0.97030   0.05270   0.71150   0.01267  Uiso   1.00
C9     C     0.49850   0.74370   0.54390   0.01267  Uiso   1.00
C10    C     0.54580   0.76620   0.45670   0.01267  Uiso   1.00
C11    C     0.26310   0.82230   0.25010   0.01267  Uiso   1.00
C12    C     0.24810   0.72330   0.23650   0.01267  Uiso   1.00
C13    C     0.46940   0.70170   0.98620   0.01267  Uiso   1.00
C14    C     0.51540   0.79580   0.00600   0.01267  Uiso   1.00
C15    C     0.24730   0.06620   0.29450   0.01267  Uiso   1.00
C16    C     0.19110   0.09710   0.15080   0.01267  Uiso   1.00
C17    C     0.40030   0.07890   0.18540   0.01267  Uiso   1.00
C18    C     0.49270   0.02720   0.23750   0.01267  Uiso   1.00
C19    C     0.53940   0.06470   0.30960   0.01267  Uiso   1.00
C20    C     0.61690   0.01620   0.35490   0.01267  Uiso   1.00
C21    C     0.65200   0.93190   0.33060   0.01267  Uiso   1.00
C22    C     0.52970   0.94730   0.21150   0.01267  Uiso   1.00
C23    C     0.00150   0.25630   0.04390   0.01267  Uiso   1.00
C24    C     0.95420   0.23380   0.95670   0.01267  Uiso   1.00
C25    C     0.23690   0.17770   0.75010   0.01267  Uiso   1.00
C26    C     0.25190   0.27670   0.73650   0.01267  Uiso   1.00
C27    C     0.03060   0.29830   0.48620   0.01267  Uiso   1.00
C28    C     0.98460   0.20420   0.50600   0.01267  Uiso   1.00
C29    C     0.74730   0.43380   0.70550   0.01267  Uiso   1.00
C30    C     0.69110   0.40290   0.84920   0.01267  Uiso   1.00
C31    C     0.90030   0.42110   0.81460   0.01267  Uiso   1.00
C32    C     0.99270   0.47280   0.76250   0.01267  Uiso   1.00
C33    C     0.03940   0.43530   0.69040   0.01267  Uiso   1.00
C34    C     0.11690   0.48380   0.64510   0.01267  Uiso   1.00
C35    C     0.15200   0.56810   0.66940   0.01267  Uiso   1.00
C36    C     0.02970   0.55270   0.78850   0.01267  Uiso   1.00
C37    C     0.50150   0.24370   0.95610   0.01267  Uiso   1.00
C38    C     0.45420   0.26620   0.04330   0.01267  Uiso   1.00
C39    C     0.73690   0.32230   0.24990   0.01267  Uiso   1.00
C40    C     0.75190   0.22330   0.26350   0.01267  Uiso   1.00
C41    C     0.53060   0.20170   0.51380   0.01267  Uiso   1.00
C42    C     0.48460   0.29580   0.49400   0.01267  Uiso   1.00
C43    C     0.75270   0.56620   0.20550   0.01267  Uiso   1.00
C44    C     0.80890   0.59710   0.34920   0.01267  Uiso   1.00
C45    C     0.59970   0.57890   0.31460   0.01267  Uiso   1.00
C46    C     0.50730   0.52720   0.26250   0.01267  Uiso   1.00
C47    C     0.46060   0.56470   0.19040   0.01267  Uiso   1.00
C48    C     0.38310   0.51620   0.14510   0.01267  Uiso   1.00
C49    C     0.34800   0.43190   0.16940   0.01267  Uiso   1.00
C50    C     0.47030   0.44730   0.28850   0.01267  Uiso   1.00
C51    C     0.99850   0.75630   0.45610   0.01267  Uiso   1.00
C52    C     0.04580   0.73380   0.54330   0.01267  Uiso   1.00
C53    C     0.76310   0.67770   0.74990   0.01267  Uiso   1.00
C54    C     0.74810   0.77670   0.76350   0.01267  Uiso   1.00
C55    C     0.96940   0.79830   0.01380   0.01267  Uiso   1.00
C56    C     0.01540   0.70420   0.99400   0.01267  Uiso   1.00
N1     N     0.22170   0.94680   0.70570   0.01267  Uiso   1.00
N2     N     0.88760   0.10070   0.75970   0.01267  Uiso   1.00
N3     N     0.27830   0.05320   0.20570   0.01267  Uiso   1.00
N4     N     0.61240   0.89930   0.25970   0.01267  Uiso   1.00
N5     N     0.77830   0.44680   0.79430   0.01267  Uiso   1.00
N6     N     0.11240   0.60070   0.74030   0.01267  Uiso   1.00
N7     N     0.72170   0.55320   0.29430   0.01267  Uiso   1.00
N8     N     0.38760   0.39930   0.24030   0.01267  Uiso   1.00
O1     O     0.17920   0.76100   0.78420   0.01267  Uiso   1.00
O2     O     0.23660   0.82780   0.92140   0.01267  Uiso   1.00
O3     O     0.39600   0.79350   0.82610   0.01267  Uiso   1.00
O4     O     0.25420   0.04060   0.54810   0.01267  Uiso   1.00
O5     O     0.25930   0.88440   0.48630   0.01267  Uiso   1.00
O6     O     0.44580   0.95880   0.52560   0.01267  Uiso   1.00
O7     O     0.38870   0.73130   0.55120   0.01267  Uiso   1.00
O8     O     0.57390   0.73800   0.60150   0.01267  Uiso   1.00
O9     O     0.65240   0.77920   0.45130   0.01267  Uiso   1.00
O10    O     0.47100   0.76490   0.40000   0.01267  Uiso   1.00
O11    O     0.27540   0.84990   0.32290   0.01267  Uiso   1.00
O12    O     0.26450   0.86950   0.18540   0.01267  Uiso   1.00
O13    O     0.23370   0.69790   0.16490   0.01267  Uiso   1.00
O14    O     0.25210   0.67430   0.30180   0.01267  Uiso   1.00
O15    O     0.54240   0.65210   0.94950   0.01267  Uiso   1.00
O16    O     0.36730   0.68460   0.00720   0.01267  Uiso   1.00
O17    O     0.44300   0.84780   0.04470   0.01267  Uiso   1.00
O18    O     0.62080   0.81680   0.98820   0.01267  Uiso   1.00
O19    O     0.32080   0.23900   0.28420   0.01267  Uiso   1.00
O20    O     0.26340   0.17220   0.42140   0.01267  Uiso   1.00
O21    O     0.10400   0.20650   0.32610   0.01267  Uiso   1.00
O22    O     0.24580   0.95940   0.04810   0.01267  Uiso   1.00
O23    O     0.24070   0.11560   0.98630   0.01267  Uiso   1.00
O24    O     0.05420   0.04120   0.02560   0.01267  Uiso   1.00
O25    O     0.11130   0.26870   0.05120   0.01267  Uiso   1.00
O26    O     0.92610   0.26200   0.10150   0.01267  Uiso   1.00
O27    O     0.84760   0.22080   0.95130   0.01267  Uiso   1.00
O28    O     0.02900   0.23510   0.90000   0.01267  Uiso   1.00
O29    O     0.22460   0.15010   0.82290   0.01267  Uiso   1.00
O30    O     0.23550   0.13050   0.68540   0.01267  Uiso   1.00
O31    O     0.26630   0.30210   0.66490   0.01267  Uiso   1.00
O32    O     0.24790   0.32570   0.80180   0.01267  Uiso   1.00
O33    O     0.95760   0.34790   0.44950   0.01267  Uiso   1.00
O34    O     0.13270   0.31540   0.50720   0.01267  Uiso   1.00
O35    O     0.05700   0.15220   0.54470   0.01267  Uiso   1.00
O36    O     0.87920   0.18320   0.48820   0.01267  Uiso   1.00
O37    O     0.82080   0.26100   0.71580   0.01267  Uiso   1.00
O38    O     0.76340   0.32780   0.57860   0.01267  Uiso   1.00
O39    O     0.60400   0.29350   0.67390   0.01267  Uiso   1.00
O40    O     0.74580   0.54060   0.95190   0.01267  Uiso   1.00
O41    O     0.74070   0.38440   0.01370   0.01267  Uiso   1.00
O42    O     0.55420   0.45880   0.97440   0.01267  Uiso   1.00
O43    O     0.61130   0.23130   0.94880   0.01267  Uiso   1.00
O44    O     0.42610   0.23800   0.89850   0.01267  Uiso   1.00
O45    O     0.34760   0.27920   0.04870   0.01267  Uiso   1.00
O46    O     0.52900   0.26490   0.10000   0.01267  Uiso   1.00
O47    O     0.72460   0.34990   0.17710   0.01267  Uiso   1.00
O48    O     0.73550   0.36950   0.31460   0.01267  Uiso   1.00
O49    O     0.76630   0.19790   0.33510   0.01267  Uiso   1.00
O50    O     0.74790   0.17430   0.19820   0.01267  Uiso   1.00
O51    O     0.45760   0.15210   0.55050   0.01267  Uiso   1.00
O52    O     0.63270   0.18460   0.49280   0.01267  Uiso   1.00
O53    O     0.55700   0.34780   0.45530   0.01267  Uiso   1.00
O54    O     0.37920   0.31680   0.51180   0.01267  Uiso   1.00
O55    O     0.67920   0.73900   0.21580   0.01267  Uiso   1.00
O56    O     0.73660   0.67220   0.07860   0.01267  Uiso   1.00
O57    O     0.89600   0.70650   0.17390   0.01267  Uiso   1.00
O58    O     0.75420   0.45940   0.45190   0.01267  Uiso   1.00
O59    O     0.75930   0.61560   0.51370   0.01267  Uiso   1.00
O60    O     0.94580   0.54120   0.47440   0.01267  Uiso   1.00
O61    O     0.88870   0.76870   0.44880   0.01267  Uiso   1.00
O62    O     0.07390   0.76200   0.39850   0.01267  Uiso   1.00
O63    O     0.15240   0.72080   0.54870   0.01267  Uiso   1.00
O64    O     0.97100   0.73510   0.60000   0.01267  Uiso   1.00
O65    O     0.77540   0.65010   0.67710   0.01267  Uiso   1.00
O66    O     0.76450   0.63050   0.81460   0.01267  Uiso   1.00
O67    O     0.73370   0.80210   0.83510   0.01267  Uiso   1.00
O68    O     0.75210   0.82570   0.69820   0.01267  Uiso   1.00
O69    O     0.04240   0.84790   0.05050   0.01267  Uiso   1.00
O70    O     0.86730   0.81540   0.99280   0.01267  Uiso   1.00
O71    O     0.94300   0.65220   0.95530   0.01267  Uiso   1.00
O72    O     0.12080   0.68320   0.01180   0.01267  Uiso   1.00
