data_image0
_cell_length_a       11.7073
_cell_length_b       5.5647
_cell_length_c       22.83
_cell_angle_alpha    90
_cell_angle_beta     100.586
_cell_angle_gamma    90

_symmetry_space_group_name_H-M    "P 1"
_symmetry_int_tables_number       1

loop_
  _symmetry_equiv_pos_as_xyz
  'x, y, z'

loop_
  _atom_site_label
  _atom_site_occupancy
  _atom_site_fract_x
  _atom_site_fract_y
  _atom_site_fract_z
  _atom_site_thermal_displace_type
  _atom_site_B_iso_or_equiv
  _atom_site_type_symbol
  Ca1      1.0000 0.63729  0.25666  0.22192  Biso   1.000  Ca
  S1       1.0000 0.39846  0.46493  0.10674  Biso   1.000  S
  O1       1.0000 0.26426  0.02310  0.82792  Biso   1.000  O
  O2       1.0000 0.26053  0.41490  0.80911  Biso   1.000  O
  O3       1.0000 0.41539  0.72090  0.11051  Biso   1.000  O
  O4       1.0000 0.49480  0.30610  0.12965  Biso   1.000  O
  O5       1.0000 0.98711  0.02410  0.24639  Biso   1.000  O
  O6       1.0000 0.95804  0.41960  0.25535  Biso   1.000  O
  C1       1.0000 0.10083  0.29250  0.20110  Biso   1.000  C
  C2       1.0000 0.29868  0.29150  0.91041  Biso   1.000  C
  C3       1.0000 0.19234  0.55960  0.14051  Biso   1.000  C
  H1       1.0000 0.19320  0.70550  0.11900  Biso   1.000  H
  C4       1.0000 0.26760  0.51200  0.93165  Biso   1.000  C
  H2       1.0000 0.22830  0.62810  0.90470  Biso   1.000  H
  C5       1.0000 0.10262  0.51030  0.17100  Biso   1.000  C
  H3       1.0000 0.04260  0.62480  0.17140  Biso   1.000  H
  C6       1.0000 0.29424  0.56210  0.99237  Biso   1.000  C
  H4       1.0000 0.27220  0.71090  0.00740  Biso   1.000  H
  C7       1.0000 0.38210  0.16740  0.01042  Biso   1.000  C
  H5       1.0000 0.42010  0.05020  0.03740  Biso   1.000  H
  C8       1.0000 0.18857  0.12420  0.20044  Biso   1.000  C
  H6       1.0000 0.18560  0.97450  0.22010  Biso   1.000  H
  C9       1.0000 0.28046  0.17220  0.17132  Biso   1.000  C
  H7       1.0000 0.34110  0.05860  0.17140  Biso   1.000  H
  C10      1.0000 0.27420  0.23820  0.84462  Biso   1.000  C
  C11      1.0000 0.35396  0.11910  0.94983  Biso   1.000  C
  H8       1.0000 0.37260  0.96710  0.93520  Biso   1.000  H
  C12      1.0000 0.00659  0.24100  0.23699  Biso   1.000  C
  C13      1.0000 0.35353  0.39080  0.03067  Biso   1.000  C
  C14      1.0000 0.28117  0.39130  0.14203  Biso   1.000  C
  Ca2      1.0000 0.86271  0.75666  0.27808  Biso   1.000  Ca
  S2       1.0000 0.10154  0.96493  0.39326  Biso   1.000  S
  O7       1.0000 0.23574  0.52310  0.67208  Biso   1.000  O
  O8       1.0000 0.23947  0.91490  0.69089  Biso   1.000  O
  O9       1.0000 0.08461  0.22090  0.38949  Biso   1.000  O
  O10      1.0000 0.00520  0.80610  0.37035  Biso   1.000  O
  O11      1.0000 0.51289  0.52410  0.25361  Biso   1.000  O
  O12      1.0000 0.54196  0.91960  0.24465  Biso   1.000  O
  C15      1.0000 0.39917  0.79250  0.29890  Biso   1.000  C
  C16      1.0000 0.20132  0.79150  0.58959  Biso   1.000  C
  C17      1.0000 0.30766  0.05960  0.35949  Biso   1.000  C
  H9       1.0000 0.30680  0.20550  0.38100  Biso   1.000  H
  C18      1.0000 0.23240  0.01200  0.56835  Biso   1.000  C
  H10      1.0000 0.27170  0.12810  0.59530  Biso   1.000  H
  C19      1.0000 0.39738  0.01030  0.32900  Biso   1.000  C
  H11      1.0000 0.45740  0.12480  0.32860  Biso   1.000  H
  C20      1.0000 0.20576  0.06210  0.50763  Biso   1.000  C
  H12      1.0000 0.22780  0.21090  0.49260  Biso   1.000  H
  C21      1.0000 0.11790  0.66740  0.48958  Biso   1.000  C
  H13      1.0000 0.07990  0.55020  0.46260  Biso   1.000  H
  C22      1.0000 0.31143  0.62420  0.29956  Biso   1.000  C
  H14      1.0000 0.31440  0.47450  0.27990  Biso   1.000  H
  C23      1.0000 0.21954  0.67220  0.32868  Biso   1.000  C
  H15      1.0000 0.15890  0.55860  0.32860  Biso   1.000  H
  C24      1.0000 0.22580  0.73820  0.65538  Biso   1.000  C
  C25      1.0000 0.14604  0.61910  0.55017  Biso   1.000  C
  H16      1.0000 0.12740  0.46710  0.56480  Biso   1.000  H
  C26      1.0000 0.49341  0.74100  0.26301  Biso   1.000  C
  C27      1.0000 0.14647  0.89080  0.46933  Biso   1.000  C
  C28      1.0000 0.21883  0.89130  0.35797  Biso   1.000  C
  Ca3      1.0000 0.36271  0.74334  0.77808  Biso   1.000  Ca
  S3       1.0000 0.60154  0.53507  0.89326  Biso   1.000  S
  O13      1.0000 0.73574  0.97690  0.17208  Biso   1.000  O
  O14      1.0000 0.73947  0.58510  0.19089  Biso   1.000  O
  O15      1.0000 0.58461  0.27910  0.88949  Biso   1.000  O
  O16      1.0000 0.50520  0.69390  0.87035  Biso   1.000  O
  O17      1.0000 0.01289  0.97590  0.75361  Biso   1.000  O
  O18      1.0000 0.04196  0.58040  0.74465  Biso   1.000  O
  C29      1.0000 0.89917  0.70750  0.79890  Biso   1.000  C
  C30      1.0000 0.70132  0.70850  0.08959  Biso   1.000  C
  C31      1.0000 0.80766  0.44040  0.85949  Biso   1.000  C
  H17      1.0000 0.80680  0.29450  0.88100  Biso   1.000  H
  C32      1.0000 0.73240  0.48800  0.06835  Biso   1.000  C
  H18      1.0000 0.77170  0.37190  0.09530  Biso   1.000  H
  C33      1.0000 0.89738  0.48970  0.82900  Biso   1.000  C
  H19      1.0000 0.95740  0.37520  0.82860  Biso   1.000  H
  C34      1.0000 0.70576  0.43790  0.00763  Biso   1.000  C
  H20      1.0000 0.72780  0.28910  0.99260  Biso   1.000  H
  C35      1.0000 0.61790  0.83260  0.98958  Biso   1.000  C
  H21      1.0000 0.57990  0.94980  0.96260  Biso   1.000  H
  C36      1.0000 0.81143  0.87580  0.79956  Biso   1.000  C
  H22      1.0000 0.81440  0.02550  0.77990  Biso   1.000  H
  C37      1.0000 0.71954  0.82780  0.82868  Biso   1.000  C
  H23      1.0000 0.65890  0.94140  0.82860  Biso   1.000  H
  C38      1.0000 0.72580  0.76180  0.15538  Biso   1.000  C
  C39      1.0000 0.64604  0.88090  0.05017  Biso   1.000  C
  H24      1.0000 0.62740  0.03290  0.06480  Biso   1.000  H
  C40      1.0000 0.99341  0.75900  0.76301  Biso   1.000  C
  C41      1.0000 0.64647  0.60920  0.96933  Biso   1.000  C
  C42      1.0000 0.71883  0.60870  0.85797  Biso   1.000  C
  Ca4      1.0000 0.13729  0.24334  0.72192  Biso   1.000  Ca
  S4       1.0000 0.89846  0.03507  0.60674  Biso   1.000  S
  O19      1.0000 0.76426  0.47690  0.32792  Biso   1.000  O
  O20      1.0000 0.76053  0.08510  0.30911  Biso   1.000  O
  O21      1.0000 0.91539  0.77910  0.61051  Biso   1.000  O
  O22      1.0000 0.99480  0.19390  0.62965  Biso   1.000  O
  O23      1.0000 0.48711  0.47590  0.74639  Biso   1.000  O
  O24      1.0000 0.45804  0.08040  0.75535  Biso   1.000  O
  C43      1.0000 0.60083  0.20750  0.70110  Biso   1.000  C
  C44      1.0000 0.79868  0.20850  0.41041  Biso   1.000  C
  C45      1.0000 0.69234  0.94040  0.64051  Biso   1.000  C
  H25      1.0000 0.69320  0.79450  0.61900  Biso   1.000  H
  C46      1.0000 0.76760  0.98800  0.43165  Biso   1.000  C
  H26      1.0000 0.72830  0.87190  0.40470  Biso   1.000  H
  C47      1.0000 0.60262  0.98970  0.67100  Biso   1.000  C
  H27      1.0000 0.54260  0.87520  0.67140  Biso   1.000  H
  C48      1.0000 0.79424  0.93790  0.49237  Biso   1.000  C
  H28      1.0000 0.77220  0.78910  0.50740  Biso   1.000  H
  C49      1.0000 0.88210  0.33260  0.51042  Biso   1.000  C
  H29      1.0000 0.92010  0.44980  0.53740  Biso   1.000  H
  C50      1.0000 0.68857  0.37580  0.70044  Biso   1.000  C
  H30      1.0000 0.68560  0.52550  0.72010  Biso   1.000  H
  C51      1.0000 0.78046  0.32780  0.67132  Biso   1.000  C
  H31      1.0000 0.84110  0.44140  0.67140  Biso   1.000  H
  C52      1.0000 0.77420  0.26180  0.34462  Biso   1.000  C
  C53      1.0000 0.85396  0.38090  0.44983  Biso   1.000  C
  H32      1.0000 0.87260  0.53290  0.43520  Biso   1.000  H
  C54      1.0000 0.50659  0.25900  0.73699  Biso   1.000  C
  C55      1.0000 0.85353  0.10920  0.53067  Biso   1.000  C
  C56      1.0000 0.78117  0.10870  0.64203  Biso   1.000  C
