data_image0
_cell_length_a       8.6326
_cell_length_b       28.1206
_cell_length_c       15.3462
_cell_angle_alpha    90
_cell_angle_beta     90
_cell_angle_gamma    90

_symmetry_space_group_name_H-M    "P 1"
_symmetry_int_tables_number       1

loop_
  _symmetry_equiv_pos_as_xyz
  'x, y, z'

loop_
  _atom_site_label
  _atom_site_occupancy
  _atom_site_fract_x
  _atom_site_fract_y
  _atom_site_fract_z
  _atom_site_thermal_displace_type
  _atom_site_B_iso_or_equiv
  _atom_site_type_symbol
  Dy1      1.0000 0.94761  0.58672  0.20205  Biso   1.000  Dy
  O1       1.0000 0.20670  0.62836  0.30450  Biso   1.000  O
  O2       1.0000 0.04900  0.66320  0.21050  Biso   1.000  O
  O3       1.0000 0.04410  0.52270  0.28280  Biso   1.000  O
  O4       1.0000 0.20510  0.46592  0.46740  Biso   1.000  O
  O5       1.0000 0.12640  0.39700  0.65510  Biso   1.000  O
  C1       1.0000 0.14720  0.51050  0.33530  Biso   1.000  C
  C2       1.0000 0.19460  0.71120  0.30380  Biso   1.000  C
  C3       1.0000 0.14880  0.66460  0.27010  Biso   1.000  C
  O6       1.0000 0.33840  0.43740  0.61950  Biso   1.000  O
  O7       1.0000 0.28460  0.52669  0.33810  Biso   1.000  O
  C4       1.0000 0.13080  0.43380  0.52220  Biso   1.000  C
  C5       1.0000 0.97190  0.45010  0.41240  Biso   1.000  C
  H1       1.0000 0.88610  0.45010  0.37580  Biso   1.000  H
  C6       1.0000 0.10130  0.47450  0.40110  Biso   1.000  C
  C7       1.0000 0.28940  0.72460  0.36850  Biso   1.000  C
  H2       1.0000 0.34420  0.70480  0.40600  Biso   1.000  H
  C8       1.0000 0.20360  0.42180  0.60530  Biso   1.000  C
  C9       1.0000 0.98840  0.42430  0.48910  Biso   1.000  C
  H3       1.0000 0.91480  0.40420  0.51340  Biso   1.000  H
  Dy2      1.0000 0.55239  0.41328  0.70205  Biso   1.000  Dy
  O8       1.0000 0.29330  0.37164  0.80450  Biso   1.000  O
  O9       1.0000 0.45100  0.33680  0.71050  Biso   1.000  O
  O10      1.0000 0.45590  0.47730  0.78280  Biso   1.000  O
  O11      1.0000 0.29490  0.53408  0.96740  Biso   1.000  O
  O12      1.0000 0.37360  0.60300  0.15510  Biso   1.000  O
  C10      1.0000 0.35280  0.48950  0.83530  Biso   1.000  C
  C11      1.0000 0.30540  0.28880  0.80380  Biso   1.000  C
  C12      1.0000 0.35120  0.33540  0.77010  Biso   1.000  C
  O13      1.0000 0.16160  0.56260  0.11950  Biso   1.000  O
  O14      1.0000 0.21540  0.47331  0.83810  Biso   1.000  O
  C13      1.0000 0.36920  0.56620  0.02220  Biso   1.000  C
  C14      1.0000 0.52810  0.54990  0.91240  Biso   1.000  C
  H4       1.0000 0.61390  0.54990  0.87580  Biso   1.000  H
  C15      1.0000 0.39870  0.52550  0.90110  Biso   1.000  C
  C16      1.0000 0.21060  0.27540  0.86850  Biso   1.000  C
  H5       1.0000 0.15580  0.29520  0.90600  Biso   1.000  H
  C17      1.0000 0.29640  0.57820  0.10530  Biso   1.000  C
  C18      1.0000 0.51160  0.57570  0.98910  Biso   1.000  C
  H6       1.0000 0.58520  0.59580  0.01340  Biso   1.000  H
  Dy3      1.0000 0.05239  0.08672  0.79795  Biso   1.000  Dy
  O15      1.0000 0.79330  0.12836  0.69550  Biso   1.000  O
  O16      1.0000 0.95100  0.16320  0.78950  Biso   1.000  O
  O17      1.0000 0.95590  0.02270  0.71720  Biso   1.000  O
  O18      1.0000 0.79490  0.96592  0.53260  Biso   1.000  O
  O19      1.0000 0.87360  0.89700  0.34490  Biso   1.000  O
  C19      1.0000 0.85280  0.01050  0.66470  Biso   1.000  C
  C20      1.0000 0.80540  0.21120  0.69620  Biso   1.000  C
  C21      1.0000 0.85120  0.16460  0.72990  Biso   1.000  C
  O20      1.0000 0.66160  0.93740  0.38050  Biso   1.000  O
  O21      1.0000 0.71540  0.02669  0.66190  Biso   1.000  O
  C22      1.0000 0.86920  0.93380  0.47780  Biso   1.000  C
  C23      1.0000 0.02810  0.95010  0.58760  Biso   1.000  C
  H7       1.0000 0.11390  0.95010  0.62420  Biso   1.000  H
  C24      1.0000 0.89870  0.97450  0.59890  Biso   1.000  C
  C25      1.0000 0.71060  0.22460  0.63150  Biso   1.000  C
  H8       1.0000 0.65580  0.20480  0.59400  Biso   1.000  H
  C26      1.0000 0.79640  0.92180  0.39470  Biso   1.000  C
  C27      1.0000 0.01160  0.92430  0.51090  Biso   1.000  C
  H9       1.0000 0.08520  0.90420  0.48660  Biso   1.000  H
  Dy4      1.0000 0.44761  0.91328  0.29795  Biso   1.000  Dy
  O22      1.0000 0.70670  0.87164  0.19550  Biso   1.000  O
  O23      1.0000 0.54900  0.83680  0.28950  Biso   1.000  O
  O24      1.0000 0.54410  0.97730  0.21720  Biso   1.000  O
  O25      1.0000 0.70510  0.03408  0.03260  Biso   1.000  O
  O26      1.0000 0.62640  0.10300  0.84490  Biso   1.000  O
  C28      1.0000 0.64720  0.98950  0.16470  Biso   1.000  C
  C29      1.0000 0.69460  0.78880  0.19620  Biso   1.000  C
  C30      1.0000 0.64880  0.83540  0.22990  Biso   1.000  C
  O27      1.0000 0.83840  0.06260  0.88050  Biso   1.000  O
  O28      1.0000 0.78460  0.97331  0.16190  Biso   1.000  O
  C31      1.0000 0.63080  0.06620  0.97780  Biso   1.000  C
  C32      1.0000 0.47190  0.04990  0.08760  Biso   1.000  C
  H10      1.0000 0.38610  0.04990  0.12420  Biso   1.000  H
  C33      1.0000 0.60130  0.02550  0.09890  Biso   1.000  C
  C34      1.0000 0.78940  0.77540  0.13150  Biso   1.000  C
  H11      1.0000 0.84420  0.79520  0.09400  Biso   1.000  H
  C35      1.0000 0.70360  0.07820  0.89470  Biso   1.000  C
  C36      1.0000 0.48840  0.07570  0.01090  Biso   1.000  C
  H12      1.0000 0.41480  0.09580  0.98660  Biso   1.000  H
  Dy5      1.0000 0.05239  0.41328  0.79795  Biso   1.000  Dy
  O29      1.0000 0.79330  0.37164  0.69550  Biso   1.000  O
  O30      1.0000 0.95100  0.33680  0.78950  Biso   1.000  O
  O31      1.0000 0.95590  0.47730  0.71720  Biso   1.000  O
  O32      1.0000 0.79490  0.53408  0.53260  Biso   1.000  O
  O33      1.0000 0.87360  0.60300  0.34490  Biso   1.000  O
  C37      1.0000 0.85280  0.48950  0.66470  Biso   1.000  C
  C38      1.0000 0.80540  0.28880  0.69620  Biso   1.000  C
  C39      1.0000 0.85120  0.33540  0.72990  Biso   1.000  C
  O34      1.0000 0.66160  0.56260  0.38050  Biso   1.000  O
  O35      1.0000 0.71540  0.47331  0.66190  Biso   1.000  O
  C40      1.0000 0.86920  0.56620  0.47780  Biso   1.000  C
  C41      1.0000 0.02810  0.54990  0.58760  Biso   1.000  C
  H13      1.0000 0.11390  0.54990  0.62420  Biso   1.000  H
  C42      1.0000 0.89870  0.52550  0.59890  Biso   1.000  C
  C43      1.0000 0.71060  0.27540  0.63150  Biso   1.000  C
  H14      1.0000 0.65580  0.29520  0.59400  Biso   1.000  H
  C44      1.0000 0.79640  0.57820  0.39470  Biso   1.000  C
  C45      1.0000 0.01160  0.57570  0.51090  Biso   1.000  C
  H15      1.0000 0.08520  0.59580  0.48660  Biso   1.000  H
  Dy6      1.0000 0.44761  0.58672  0.29795  Biso   1.000  Dy
  O36      1.0000 0.70670  0.62836  0.19550  Biso   1.000  O
  O37      1.0000 0.54900  0.66320  0.28950  Biso   1.000  O
  O38      1.0000 0.54410  0.52270  0.21720  Biso   1.000  O
  O39      1.0000 0.70510  0.46592  0.03260  Biso   1.000  O
  O40      1.0000 0.62640  0.39700  0.84490  Biso   1.000  O
  C46      1.0000 0.64720  0.51050  0.16470  Biso   1.000  C
  C47      1.0000 0.69460  0.71120  0.19620  Biso   1.000  C
  C48      1.0000 0.64880  0.66460  0.22990  Biso   1.000  C
  O41      1.0000 0.83840  0.43740  0.88050  Biso   1.000  O
  O42      1.0000 0.78460  0.52669  0.16190  Biso   1.000  O
  C49      1.0000 0.63080  0.43380  0.97780  Biso   1.000  C
  C50      1.0000 0.47190  0.45010  0.08760  Biso   1.000  C
  H16      1.0000 0.38610  0.45010  0.12420  Biso   1.000  H
  C51      1.0000 0.60130  0.47450  0.09890  Biso   1.000  C
  C52      1.0000 0.78940  0.72460  0.13150  Biso   1.000  C
  H17      1.0000 0.84420  0.70480  0.09400  Biso   1.000  H
  C53      1.0000 0.70360  0.42180  0.89470  Biso   1.000  C
  C54      1.0000 0.48840  0.42430  0.01090  Biso   1.000  C
  H18      1.0000 0.41480  0.40420  0.98660  Biso   1.000  H
  Dy7      1.0000 0.94761  0.91328  0.20205  Biso   1.000  Dy
  O43      1.0000 0.20670  0.87164  0.30450  Biso   1.000  O
  O44      1.0000 0.04900  0.83680  0.21050  Biso   1.000  O
  O45      1.0000 0.04410  0.97730  0.28280  Biso   1.000  O
  O46      1.0000 0.20510  0.03408  0.46740  Biso   1.000  O
  O47      1.0000 0.12640  0.10300  0.65510  Biso   1.000  O
  C55      1.0000 0.14720  0.98950  0.33530  Biso   1.000  C
  C56      1.0000 0.19460  0.78880  0.30380  Biso   1.000  C
  C57      1.0000 0.14880  0.83540  0.27010  Biso   1.000  C
  O48      1.0000 0.33840  0.06260  0.61950  Biso   1.000  O
  O49      1.0000 0.28460  0.97331  0.33810  Biso   1.000  O
  C58      1.0000 0.13080  0.06620  0.52220  Biso   1.000  C
  C59      1.0000 0.97190  0.04990  0.41240  Biso   1.000  C
  H19      1.0000 0.88610  0.04990  0.37580  Biso   1.000  H
  C60      1.0000 0.10130  0.02550  0.40110  Biso   1.000  C
  C61      1.0000 0.28940  0.77540  0.36850  Biso   1.000  C
  H20      1.0000 0.34420  0.79520  0.40600  Biso   1.000  H
  C62      1.0000 0.20360  0.07820  0.60530  Biso   1.000  C
  C63      1.0000 0.98840  0.07570  0.48910  Biso   1.000  C
  H21      1.0000 0.91480  0.09580  0.51340  Biso   1.000  H
  Dy8      1.0000 0.55239  0.08672  0.70205  Biso   1.000  Dy
  O50      1.0000 0.29330  0.12836  0.80450  Biso   1.000  O
  O51      1.0000 0.45100  0.16320  0.71050  Biso   1.000  O
  O52      1.0000 0.45590  0.02270  0.78280  Biso   1.000  O
  O53      1.0000 0.29490  0.96592  0.96740  Biso   1.000  O
  O54      1.0000 0.37360  0.89700  0.15510  Biso   1.000  O
  C64      1.0000 0.35280  0.01050  0.83530  Biso   1.000  C
  C65      1.0000 0.30540  0.21120  0.80380  Biso   1.000  C
  C66      1.0000 0.35120  0.16460  0.77010  Biso   1.000  C
  O55      1.0000 0.16160  0.93740  0.11950  Biso   1.000  O
  O56      1.0000 0.21540  0.02669  0.83810  Biso   1.000  O
  C67      1.0000 0.36920  0.93380  0.02220  Biso   1.000  C
  C68      1.0000 0.52810  0.95010  0.91240  Biso   1.000  C
  H22      1.0000 0.61390  0.95010  0.87580  Biso   1.000  H
  C69      1.0000 0.39870  0.97450  0.90110  Biso   1.000  C
  C70      1.0000 0.21060  0.22460  0.86850  Biso   1.000  C
  H23      1.0000 0.15580  0.20480  0.90600  Biso   1.000  H
  C71      1.0000 0.29640  0.92180  0.10530  Biso   1.000  C
  C72      1.0000 0.51160  0.92430  0.98910  Biso   1.000  C
  H24      1.0000 0.58520  0.90420  0.01340  Biso   1.000  H
  O57      1.0000 0.13480  0.75000  0.26250  Biso   1.000  O
  O58      1.0000 0.36520  0.25000  0.76250  Biso   1.000  O
  O59      1.0000 0.86520  0.25000  0.73750  Biso   1.000  O
  O60      1.0000 0.63480  0.75000  0.23750  Biso   1.000  O
