data_RABHIH_clean
_audit_creation_date              2014-07-02
_audit_creation_method            'Materials Studio'
_symmetry_space_group_name_H-M    'P1'
_symmetry_Int_Tables_number       1
_symmetry_cell_setting            triclinic
loop_
_symmetry_equiv_pos_as_xyz
  x,y,z
_cell_length_a                    7.6100
_cell_length_b                    13.5990
_cell_length_c                    27.9380
_cell_angle_alpha                 90.0000
_cell_angle_beta                  90.0000
_cell_angle_gamma                 90.0000
loop_
_atom_site_label
_atom_site_type_symbol
_atom_site_fract_x
_atom_site_fract_y
_atom_site_fract_z
_atom_site_U_iso_or_equiv
_atom_site_adp_type
_atom_site_occupancy
Cd1    Cd    0.00000   0.77258   0.76331   0.01267  Uiso   1.00
Cd2    Cd    0.00000   0.22742   0.23669   0.01267  Uiso   1.00
Cd3    Cd    0.00000   0.72742   0.26331   0.01267  Uiso   1.00
Cd4    Cd    0.00000   0.27258   0.73669   0.01267  Uiso   1.00
Ni1    Ni    0.50000   0.51714   0.79155   0.01267  Uiso   1.00
Ni2    Ni    0.50000   0.48286   0.20845   0.01267  Uiso   1.00
Ni3    Ni    0.50000   0.98286   0.29155   0.01267  Uiso   1.00
Ni4    Ni    0.50000   0.01714   0.70845   0.01267  Uiso   1.00
H1     H     0.89283   0.62519   0.69816   0.01267  Uiso   1.00
H2     H     0.88211   0.76859   0.64681   0.01267  Uiso   1.00
H3     H     0.88211   0.60353   0.60723   0.01267  Uiso   1.00
H4     H     0.88211   0.75902   0.55787   0.01267  Uiso   1.00
H5     H     0.88211   0.59243   0.51581   0.01267  Uiso   1.00
H6     H     0.88211   0.74925   0.46744   0.01267  Uiso   1.00
H7     H     0.88211   0.58646   0.42474   0.01267  Uiso   1.00
H8     H     0.11789   0.75751   0.87790   0.01267  Uiso   1.00
H9     H     0.10717   0.90883   0.83449   0.01267  Uiso   1.00
H10    H     0.89283   0.37481   0.30184   0.01267  Uiso   1.00
H11    H     0.88211   0.23141   0.35319   0.01267  Uiso   1.00
H12    H     0.88211   0.39647   0.39277   0.01267  Uiso   1.00
H13    H     0.88211   0.24098   0.44213   0.01267  Uiso   1.00
H14    H     0.88211   0.40757   0.48419   0.01267  Uiso   1.00
H15    H     0.88211   0.25075   0.53256   0.01267  Uiso   1.00
H16    H     0.88211   0.41354   0.57526   0.01267  Uiso   1.00
H17    H     0.11789   0.24249   0.12210   0.01267  Uiso   1.00
H18    H     0.10717   0.09117   0.16551   0.01267  Uiso   1.00
H19    H     0.10717   0.87481   0.19816   0.01267  Uiso   1.00
H20    H     0.11789   0.73141   0.14681   0.01267  Uiso   1.00
H21    H     0.11789   0.89647   0.10723   0.01267  Uiso   1.00
H22    H     0.11789   0.74098   0.05787   0.01267  Uiso   1.00
H23    H     0.11789   0.90757   0.01581   0.01267  Uiso   1.00
H24    H     0.11789   0.75075   0.96744   0.01267  Uiso   1.00
H25    H     0.11789   0.91354   0.92474   0.01267  Uiso   1.00
H26    H     0.88211   0.74249   0.37790   0.01267  Uiso   1.00
H27    H     0.89283   0.59117   0.33449   0.01267  Uiso   1.00
H28    H     0.10717   0.12519   0.80184   0.01267  Uiso   1.00
H29    H     0.11789   0.26859   0.85319   0.01267  Uiso   1.00
H30    H     0.11789   0.10353   0.89277   0.01267  Uiso   1.00
H31    H     0.11789   0.25902   0.94213   0.01267  Uiso   1.00
H32    H     0.11789   0.09243   0.98419   0.01267  Uiso   1.00
H33    H     0.11789   0.24925   0.03256   0.01267  Uiso   1.00
H34    H     0.11789   0.08646   0.07526   0.01267  Uiso   1.00
H35    H     0.88211   0.25751   0.62210   0.01267  Uiso   1.00
H36    H     0.89283   0.40883   0.66551   0.01267  Uiso   1.00
H37    H     0.10717   0.37481   0.30184   0.01267  Uiso   1.00
H38    H     0.11789   0.23141   0.35319   0.01267  Uiso   1.00
H39    H     0.11789   0.39647   0.39277   0.01267  Uiso   1.00
H40    H     0.11789   0.24098   0.44213   0.01267  Uiso   1.00
H41    H     0.11789   0.40757   0.48419   0.01267  Uiso   1.00
H42    H     0.11789   0.25075   0.53256   0.01267  Uiso   1.00
H43    H     0.11789   0.41354   0.57526   0.01267  Uiso   1.00
H44    H     0.88211   0.24249   0.12210   0.01267  Uiso   1.00
H45    H     0.89283   0.09117   0.16551   0.01267  Uiso   1.00
H46    H     0.10717   0.62519   0.69816   0.01267  Uiso   1.00
H47    H     0.11789   0.76859   0.64681   0.01267  Uiso   1.00
H48    H     0.11789   0.60353   0.60723   0.01267  Uiso   1.00
H49    H     0.11789   0.75902   0.55787   0.01267  Uiso   1.00
H50    H     0.11789   0.59243   0.51581   0.01267  Uiso   1.00
H51    H     0.11789   0.74925   0.46744   0.01267  Uiso   1.00
H52    H     0.11789   0.58646   0.42474   0.01267  Uiso   1.00
H53    H     0.88211   0.75751   0.87790   0.01267  Uiso   1.00
H54    H     0.89283   0.90883   0.83449   0.01267  Uiso   1.00
H55    H     0.89283   0.12519   0.80184   0.01267  Uiso   1.00
H56    H     0.88211   0.26859   0.85319   0.01267  Uiso   1.00
H57    H     0.88211   0.10353   0.89277   0.01267  Uiso   1.00
H58    H     0.88211   0.25902   0.94213   0.01267  Uiso   1.00
H59    H     0.88211   0.09243   0.98419   0.01267  Uiso   1.00
H60    H     0.88211   0.24925   0.03256   0.01267  Uiso   1.00
H61    H     0.88211   0.08646   0.07526   0.01267  Uiso   1.00
H62    H     0.11789   0.25751   0.62210   0.01267  Uiso   1.00
H63    H     0.10717   0.40883   0.66551   0.01267  Uiso   1.00
H64    H     0.89283   0.87481   0.19816   0.01267  Uiso   1.00
H65    H     0.88211   0.73141   0.14681   0.01267  Uiso   1.00
H66    H     0.88211   0.89647   0.10723   0.01267  Uiso   1.00
H67    H     0.88211   0.74098   0.05787   0.01267  Uiso   1.00
H68    H     0.88211   0.90757   0.01581   0.01267  Uiso   1.00
H69    H     0.88211   0.75075   0.96744   0.01267  Uiso   1.00
H70    H     0.88211   0.91354   0.92474   0.01267  Uiso   1.00
H71    H     0.11789   0.74249   0.37790   0.01267  Uiso   1.00
H72    H     0.10717   0.59117   0.33449   0.01267  Uiso   1.00
C1     C     0.67190   0.61340   0.79580   0.01267  Uiso   1.00
C2     C     0.32490   0.92340   0.71830   0.01267  Uiso   1.00
C3     C     0.67190   0.38660   0.20420   0.01267  Uiso   1.00
C4     C     0.32490   0.07660   0.28170   0.01267  Uiso   1.00
C5     C     0.32810   0.88660   0.29580   0.01267  Uiso   1.00
C6     C     0.67510   0.57660   0.21830   0.01267  Uiso   1.00
C7     C     0.32810   0.11340   0.70420   0.01267  Uiso   1.00
C8     C     0.67510   0.42340   0.78170   0.01267  Uiso   1.00
C9     C     0.32810   0.38660   0.20420   0.01267  Uiso   1.00
C10    C     0.67510   0.07660   0.28170   0.01267  Uiso   1.00
C11    C     0.32810   0.61340   0.79580   0.01267  Uiso   1.00
C12    C     0.67510   0.92340   0.71830   0.01267  Uiso   1.00
C13    C     0.67190   0.11340   0.70420   0.01267  Uiso   1.00
C14    C     0.32490   0.42340   0.78170   0.01267  Uiso   1.00
C15    C     0.67190   0.88660   0.29580   0.01267  Uiso   1.00
C16    C     0.32490   0.57660   0.21830   0.01267  Uiso   1.00
C17    C     0.00000   0.72210   0.64880   0.01267  Uiso   1.00
C18    C     0.00000   0.65020   0.60600   0.01267  Uiso   1.00
C19    C     0.00000   0.71240   0.55910   0.01267  Uiso   1.00
C20    C     0.00000   0.63910   0.51480   0.01267  Uiso   1.00
C21    C     0.00000   0.70260   0.46820   0.01267  Uiso   1.00
C22    C     0.00000   0.63310   0.42400   0.01267  Uiso   1.00
C23    C     0.00000   0.80420   0.87810   0.01267  Uiso   1.00
C24    C     0.00000   0.27790   0.35120   0.01267  Uiso   1.00
C25    C     0.00000   0.34980   0.39400   0.01267  Uiso   1.00
C26    C     0.00000   0.28760   0.44090   0.01267  Uiso   1.00
C27    C     0.00000   0.36090   0.48520   0.01267  Uiso   1.00
C28    C     0.00000   0.29740   0.53180   0.01267  Uiso   1.00
C29    C     0.00000   0.36690   0.57600   0.01267  Uiso   1.00
C30    C     0.00000   0.19580   0.12190   0.01267  Uiso   1.00
C31    C     0.00000   0.77790   0.14880   0.01267  Uiso   1.00
C32    C     0.00000   0.84980   0.10600   0.01267  Uiso   1.00
C33    C     0.00000   0.78760   0.05910   0.01267  Uiso   1.00
C34    C     0.00000   0.86090   0.01480   0.01267  Uiso   1.00
C35    C     0.00000   0.79740   0.96820   0.01267  Uiso   1.00
C36    C     0.00000   0.86690   0.92400   0.01267  Uiso   1.00
C37    C     0.00000   0.69580   0.37810   0.01267  Uiso   1.00
C38    C     0.00000   0.22210   0.85120   0.01267  Uiso   1.00
C39    C     0.00000   0.15020   0.89400   0.01267  Uiso   1.00
C40    C     0.00000   0.21240   0.94090   0.01267  Uiso   1.00
C41    C     0.00000   0.13910   0.98520   0.01267  Uiso   1.00
C42    C     0.00000   0.20260   0.03180   0.01267  Uiso   1.00
C43    C     0.00000   0.13310   0.07600   0.01267  Uiso   1.00
C44    C     0.00000   0.30420   0.62190   0.01267  Uiso   1.00
N1     N     0.77940   0.67230   0.79470   0.01267  Uiso   1.00
N2     N     0.21750   0.86910   0.72860   0.01267  Uiso   1.00
N3     N     0.77940   0.32770   0.20530   0.01267  Uiso   1.00
N4     N     0.21750   0.13090   0.27140   0.01267  Uiso   1.00
N5     N     0.22060   0.82770   0.29470   0.01267  Uiso   1.00
N6     N     0.78250   0.63090   0.22860   0.01267  Uiso   1.00
N7     N     0.22060   0.17230   0.70530   0.01267  Uiso   1.00
N8     N     0.78250   0.36910   0.77140   0.01267  Uiso   1.00
N9     N     0.22060   0.32770   0.20530   0.01267  Uiso   1.00
N10    N     0.78250   0.13090   0.27140   0.01267  Uiso   1.00
N11    N     0.22060   0.67230   0.79470   0.01267  Uiso   1.00
N12    N     0.78250   0.86910   0.72860   0.01267  Uiso   1.00
N13    N     0.77940   0.17230   0.70530   0.01267  Uiso   1.00
N14    N     0.21750   0.36910   0.77140   0.01267  Uiso   1.00
N15    N     0.77940   0.82770   0.29470   0.01267  Uiso   1.00
N16    N     0.21750   0.63090   0.22860   0.01267  Uiso   1.00
N17    N     0.00000   0.66750   0.69660   0.01267  Uiso   1.00
N18    N     0.00000   0.86640   0.83420   0.01267  Uiso   1.00
N19    N     0.00000   0.33250   0.30340   0.01267  Uiso   1.00
N20    N     0.00000   0.13360   0.16580   0.01267  Uiso   1.00
N21    N     0.00000   0.83250   0.19660   0.01267  Uiso   1.00
N22    N     0.00000   0.63360   0.33420   0.01267  Uiso   1.00
N23    N     0.00000   0.16750   0.80340   0.01267  Uiso   1.00
N24    N     0.00000   0.36640   0.66580   0.01267  Uiso   1.00
