data_image0
_cell_length_a       9.6673
_cell_length_b       9.6673
_cell_length_c       14.86
_cell_angle_alpha    90
_cell_angle_beta     90
_cell_angle_gamma    120

_symmetry_space_group_name_H-M    "P 1"
_symmetry_int_tables_number       1

loop_
  _symmetry_equiv_pos_as_xyz
  'x, y, z'

loop_
  _atom_site_label
  _atom_site_occupancy
  _atom_site_fract_x
  _atom_site_fract_y
  _atom_site_fract_z
  _atom_site_thermal_displace_type
  _atom_site_B_iso_or_equiv
  _atom_site_type_symbol
  P1       1.0000 0.60843  0.76331  0.23980  Biso   1.000  P
  O1       1.0000 0.77610  0.78090  0.22678  Biso   1.000  O
  O2       1.0000 0.47940  0.61520  0.19288  Biso   1.000  O
  O3       1.0000 0.70560  0.62190  0.03767  Biso   1.000  O
  O4       1.0000 0.56580  0.74510  0.34208  Biso   1.000  O
  P2       1.0000 0.23669  0.84512  0.90647  Biso   1.000  P
  O5       1.0000 0.21910  0.99520  0.89345  Biso   1.000  O
  O6       1.0000 0.38480  0.86420  0.85955  Biso   1.000  O
  O7       1.0000 0.37810  0.08370  0.70434  Biso   1.000  O
  O8       1.0000 0.25490  0.82070  0.00875  Biso   1.000  O
  P3       1.0000 0.15488  0.39157  0.57313  Biso   1.000  P
  O9       1.0000 0.00480  0.22390  0.56011  Biso   1.000  O
  O10      1.0000 0.13580  0.52060  0.52621  Biso   1.000  O
  O11      1.0000 0.91630  0.29440  0.37100  Biso   1.000  O
  O12      1.0000 0.17930  0.43420  0.67541  Biso   1.000  O
  P4       1.0000 0.39157  0.23669  0.73980  Biso   1.000  P
  O13      1.0000 0.22390  0.21910  0.72678  Biso   1.000  O
  O14      1.0000 0.52060  0.38480  0.69288  Biso   1.000  O
  O15      1.0000 0.29440  0.37810  0.53767  Biso   1.000  O
  O16      1.0000 0.43420  0.25490  0.84208  Biso   1.000  O
  P5       1.0000 0.76331  0.15488  0.40647  Biso   1.000  P
  O17      1.0000 0.78090  0.00480  0.39345  Biso   1.000  O
  O18      1.0000 0.61520  0.13580  0.35955  Biso   1.000  O
  O19      1.0000 0.62190  0.91630  0.20434  Biso   1.000  O
  O20      1.0000 0.74510  0.17930  0.50875  Biso   1.000  O
  P6       1.0000 0.84512  0.60843  0.07313  Biso   1.000  P
  O21      1.0000 0.99520  0.77610  0.06011  Biso   1.000  O
  O22      1.0000 0.86420  0.47940  0.02621  Biso   1.000  O
  O23      1.0000 0.08370  0.70560  0.87100  Biso   1.000  O
  O24      1.0000 0.82070  0.56580  0.17541  Biso   1.000  O
  P7       1.0000 0.76331  0.60843  0.42687  Biso   1.000  P
  O25      1.0000 0.78090  0.77610  0.43989  Biso   1.000  O
  O26      1.0000 0.61520  0.47940  0.47379  Biso   1.000  O
  O27      1.0000 0.62190  0.70560  0.62900  Biso   1.000  O
  O28      1.0000 0.74510  0.56580  0.32459  Biso   1.000  O
  P8       1.0000 0.84512  0.23669  0.76020  Biso   1.000  P
  O29      1.0000 0.99520  0.21910  0.77322  Biso   1.000  O
  O30      1.0000 0.86420  0.38480  0.80712  Biso   1.000  O
  O31      1.0000 0.08370  0.37810  0.96233  Biso   1.000  O
  O32      1.0000 0.82070  0.25490  0.65792  Biso   1.000  O
  P9       1.0000 0.39157  0.15488  0.09353  Biso   1.000  P
  O33      1.0000 0.22390  0.00480  0.10655  Biso   1.000  O
  O34      1.0000 0.52060  0.13580  0.14045  Biso   1.000  O
  O35      1.0000 0.29440  0.91630  0.29566  Biso   1.000  O
  O36      1.0000 0.43420  0.17930  0.99125  Biso   1.000  O
  P10      1.0000 0.23669  0.39157  0.92687  Biso   1.000  P
  O37      1.0000 0.21910  0.22390  0.93989  Biso   1.000  O
  O38      1.0000 0.38480  0.52060  0.97379  Biso   1.000  O
  O39      1.0000 0.37810  0.29440  0.12900  Biso   1.000  O
  O40      1.0000 0.25490  0.43420  0.82459  Biso   1.000  O
  P11      1.0000 0.15488  0.76331  0.26020  Biso   1.000  P
  O41      1.0000 0.00480  0.78090  0.27322  Biso   1.000  O
  O42      1.0000 0.13580  0.61520  0.30712  Biso   1.000  O
  O43      1.0000 0.91630  0.62190  0.46233  Biso   1.000  O
  O44      1.0000 0.17930  0.74510  0.15792  Biso   1.000  O
  P12      1.0000 0.60843  0.84512  0.59353  Biso   1.000  P
  O45      1.0000 0.77610  0.99520  0.60655  Biso   1.000  O
  O46      1.0000 0.47940  0.86420  0.64045  Biso   1.000  O
  O47      1.0000 0.70560  0.08370  0.79566  Biso   1.000  O
  O48      1.0000 0.56580  0.82070  0.49125  Biso   1.000  O
  Zn1      1.0000 0.48981  0.51019  0.08333  Biso   1.000  Zn
  Zn2      1.0000 0.48981  0.97962  0.75000  Biso   1.000  Zn
  Zn3      1.0000 0.02038  0.51019  0.41667  Biso   1.000  Zn
  Zn4      1.0000 0.51019  0.48981  0.58333  Biso   1.000  Zn
  Zn5      1.0000 0.51019  0.02038  0.25000  Biso   1.000  Zn
  Zn6      1.0000 0.97962  0.48981  0.91667  Biso   1.000  Zn
  B1       1.0000 0.83610  0.67220  0.25000  Biso   1.000  B
  B2       1.0000 0.32780  0.16390  0.91667  Biso   1.000  B
  B3       1.0000 0.83610  0.16390  0.58333  Biso   1.000  B
  B4       1.0000 0.16390  0.32780  0.75000  Biso   1.000  B
  B5       1.0000 0.67220  0.83610  0.41667  Biso   1.000  B
  B6       1.0000 0.16390  0.83610  0.08333  Biso   1.000  B
