data_image0
_cell_length_a       10.1763
_cell_length_b       11.1598
_cell_length_c       14.8557
_cell_angle_alpha    90
_cell_angle_beta     107.035
_cell_angle_gamma    90

_symmetry_space_group_name_H-M    "P 1"
_symmetry_int_tables_number       1

loop_
  _symmetry_equiv_pos_as_xyz
  'x, y, z'

loop_
  _atom_site_label
  _atom_site_occupancy
  _atom_site_fract_x
  _atom_site_fract_y
  _atom_site_fract_z
  _atom_site_thermal_displace_type
  _atom_site_B_iso_or_equiv
  _atom_site_type_symbol
  Cu1      1.0000 0.03066  0.25026  0.00000  Biso   1.000  Cu
  O1       1.0000 0.85090  0.17220  0.99140  Biso   1.000  O
  O2       1.0000 0.70700  0.06760  0.04630  Biso   1.000  O
  O3       1.0000 0.98750  0.36550  0.08440  Biso   1.000  O
  O4       1.0000 0.86710  0.42350  0.17870  Biso   1.000  O
  O5       1.0000 0.94010  0.88440  0.07560  Biso   1.000  O
  O6       1.0000 0.85570  0.81840  0.19050  Biso   1.000  O
  N1       1.0000 0.21340  0.32910  0.01810  Biso   1.000  N
  C1       1.0000 0.21880  0.44880  0.02910  Biso   1.000  C
  H1       1.0000 0.14470  0.48720  0.04120  Biso   1.000  H
  C2       1.0000 0.32790  0.51680  0.02330  Biso   1.000  C
  H2       1.0000 0.32570  0.59950  0.03090  Biso   1.000  H
  C3       1.0000 0.44160  0.46420  0.00630  Biso   1.000  C
  C4       1.0000 0.43910  0.33920  0.00000  Biso   1.000  C
  H3       1.0000 0.51470  0.29840  0.99220  Biso   1.000  H
  C5       1.0000 0.32530  0.27580  0.00520  Biso   1.000  C
  H4       1.0000 0.32590  0.19280  0.99960  Biso   1.000  H
  C6       1.0000 0.93320  0.34810  0.15120  Biso   1.000  C
  C7       1.0000 0.96310  0.22800  0.20150  Biso   1.000  C
  C8       1.0000 0.81930  0.11900  0.05640  Biso   1.000  C
  C9       1.0000 0.92010  0.11990  0.15540  Biso   1.000  C
  C10      1.0000 0.95780  0.01190  0.20330  Biso   1.000  C
  C11      1.0000 0.91240  0.89430  0.15300  Biso   1.000  C
  Cu2      1.0000 0.96934  0.25026  0.50000  Biso   1.000  Cu
  O7       1.0000 0.14910  0.17220  0.50860  Biso   1.000  O
  O8       1.0000 0.29300  0.06760  0.45370  Biso   1.000  O
  O9       1.0000 0.01250  0.36550  0.41560  Biso   1.000  O
  O10      1.0000 0.13290  0.42350  0.32130  Biso   1.000  O
  O11      1.0000 0.05990  0.88440  0.42440  Biso   1.000  O
  O12      1.0000 0.14430  0.81840  0.30950  Biso   1.000  O
  N2       1.0000 0.78660  0.32910  0.48190  Biso   1.000  N
  C12      1.0000 0.78120  0.44880  0.47090  Biso   1.000  C
  H5       1.0000 0.85530  0.48720  0.45880  Biso   1.000  H
  C13      1.0000 0.67210  0.51680  0.47670  Biso   1.000  C
  H6       1.0000 0.67430  0.59950  0.46910  Biso   1.000  H
  C14      1.0000 0.55840  0.46420  0.49370  Biso   1.000  C
  C15      1.0000 0.56090  0.33920  0.50000  Biso   1.000  C
  H7       1.0000 0.48530  0.29840  0.50780  Biso   1.000  H
  C16      1.0000 0.67470  0.27580  0.49480  Biso   1.000  C
  H8       1.0000 0.67410  0.19280  0.50040  Biso   1.000  H
  C17      1.0000 0.06680  0.34810  0.34880  Biso   1.000  C
  C18      1.0000 0.03690  0.22800  0.29850  Biso   1.000  C
  C19      1.0000 0.18070  0.11900  0.44360  Biso   1.000  C
  C20      1.0000 0.07990  0.11990  0.34460  Biso   1.000  C
  C21      1.0000 0.04220  0.01190  0.29670  Biso   1.000  C
  C22      1.0000 0.08760  0.89430  0.34700  Biso   1.000  C
  Cu3      1.0000 0.96934  0.74974  0.00000  Biso   1.000  Cu
  O13      1.0000 0.14910  0.82780  0.00860  Biso   1.000  O
  O14      1.0000 0.29300  0.93240  0.95370  Biso   1.000  O
  O15      1.0000 0.01250  0.63450  0.91560  Biso   1.000  O
  O16      1.0000 0.13290  0.57650  0.82130  Biso   1.000  O
  O17      1.0000 0.05990  0.11560  0.92440  Biso   1.000  O
  O18      1.0000 0.14430  0.18160  0.80950  Biso   1.000  O
  N3       1.0000 0.78660  0.67090  0.98190  Biso   1.000  N
  C23      1.0000 0.78120  0.55120  0.97090  Biso   1.000  C
  H9       1.0000 0.85530  0.51280  0.95880  Biso   1.000  H
  C24      1.0000 0.67210  0.48320  0.97670  Biso   1.000  C
  H10      1.0000 0.67430  0.40050  0.96910  Biso   1.000  H
  C25      1.0000 0.55840  0.53580  0.99370  Biso   1.000  C
  C26      1.0000 0.56090  0.66080  0.00000  Biso   1.000  C
  H11      1.0000 0.48530  0.70160  0.00780  Biso   1.000  H
  C27      1.0000 0.67470  0.72420  0.99480  Biso   1.000  C
  H12      1.0000 0.67410  0.80720  0.00040  Biso   1.000  H
  C28      1.0000 0.06680  0.65190  0.84880  Biso   1.000  C
  C29      1.0000 0.03690  0.77200  0.79850  Biso   1.000  C
  C30      1.0000 0.18070  0.88100  0.94360  Biso   1.000  C
  C31      1.0000 0.07990  0.88010  0.84460  Biso   1.000  C
  C32      1.0000 0.04220  0.98810  0.79670  Biso   1.000  C
  C33      1.0000 0.08760  0.10570  0.84700  Biso   1.000  C
  Cu4      1.0000 0.03066  0.74974  0.50000  Biso   1.000  Cu
  O19      1.0000 0.85090  0.82780  0.49140  Biso   1.000  O
  O20      1.0000 0.70700  0.93240  0.54630  Biso   1.000  O
  O21      1.0000 0.98750  0.63450  0.58440  Biso   1.000  O
  O22      1.0000 0.86710  0.57650  0.67870  Biso   1.000  O
  O23      1.0000 0.94010  0.11560  0.57560  Biso   1.000  O
  O24      1.0000 0.85570  0.18160  0.69050  Biso   1.000  O
  N4       1.0000 0.21340  0.67090  0.51810  Biso   1.000  N
  C34      1.0000 0.21880  0.55120  0.52910  Biso   1.000  C
  H13      1.0000 0.14470  0.51280  0.54120  Biso   1.000  H
  C35      1.0000 0.32790  0.48320  0.52330  Biso   1.000  C
  H14      1.0000 0.32570  0.40050  0.53090  Biso   1.000  H
  C36      1.0000 0.44160  0.53580  0.50630  Biso   1.000  C
  C37      1.0000 0.43910  0.66080  0.50000  Biso   1.000  C
  H15      1.0000 0.51470  0.70160  0.49220  Biso   1.000  H
  C38      1.0000 0.32530  0.72420  0.50520  Biso   1.000  C
  H16      1.0000 0.32590  0.80720  0.49960  Biso   1.000  H
  C39      1.0000 0.93320  0.65190  0.65120  Biso   1.000  C
  C40      1.0000 0.96310  0.77200  0.70150  Biso   1.000  C
  C41      1.0000 0.81930  0.88100  0.55640  Biso   1.000  C
  C42      1.0000 0.92010  0.88010  0.65540  Biso   1.000  C
  C43      1.0000 0.95780  0.98810  0.70330  Biso   1.000  C
  C44      1.0000 0.91240  0.10570  0.65300  Biso   1.000  C
