data_RAJFAL_clean
_audit_creation_date              2014-07-02
_audit_creation_method            'Materials Studio'
_symmetry_space_group_name_H-M    'P1'
_symmetry_Int_Tables_number       1
_symmetry_cell_setting            triclinic
loop_
_symmetry_equiv_pos_as_xyz
  x,y,z
_cell_length_a                    9.8240
_cell_length_b                    9.9630
_cell_length_c                    10.1500
_cell_angle_alpha                 74.0440
_cell_angle_beta                  86.3610
_cell_angle_gamma                 78.3280
loop_
_atom_site_label
_atom_site_type_symbol
_atom_site_fract_x
_atom_site_fract_y
_atom_site_fract_z
_atom_site_U_iso_or_equiv
_atom_site_adp_type
_atom_site_occupancy
Ca1    Ca    0.50784   0.87968   0.88347   0.01267  Uiso   1.00
Ca2    Ca    0.49216   0.12032   0.11653   0.01267  Uiso   1.00
Ca3    Ca    0.50000   0.00000   0.50000   0.01267  Uiso   1.00
H1     H     0.30860   0.72120   0.52700   0.01267  Uiso   1.00
H2     H     0.32760   0.31400   0.53040   0.01267  Uiso   1.00
H3     H     0.48850   0.40730   0.84210   0.01267  Uiso   1.00
H4     H     0.27400   0.41630   0.30360   0.01267  Uiso   1.00
H5     H     0.13540   0.41730   0.39040   0.01267  Uiso   1.00
H6     H     0.26380   0.53550   0.06240   0.01267  Uiso   1.00
H7     H     0.13190   0.65690   0.86990   0.01267  Uiso   1.00
H8     H     0.80260   0.74040   0.10770   0.01267  Uiso   1.00
H9     H     0.93120   0.61500   0.29880   0.01267  Uiso   1.00
H10    H     0.69140   0.27880   0.47300   0.01267  Uiso   1.00
H11    H     0.67240   0.68600   0.46960   0.01267  Uiso   1.00
H12    H     0.51150   0.59270   0.15790   0.01267  Uiso   1.00
H13    H     0.72600   0.58370   0.69640   0.01267  Uiso   1.00
H14    H     0.86460   0.58270   0.60960   0.01267  Uiso   1.00
H15    H     0.73620   0.46450   0.93760   0.01267  Uiso   1.00
H16    H     0.86810   0.34310   0.13010   0.01267  Uiso   1.00
H17    H     0.19740   0.25960   0.89230   0.01267  Uiso   1.00
H18    H     0.06880   0.38500   0.70120   0.01267  Uiso   1.00
C1     C     0.44880   0.68700   0.75308   0.01267  Uiso   1.00
C2     C     0.40610   0.58040   0.69218   0.01267  Uiso   1.00
C3     C     0.33470   0.62470   0.56995   0.01267  Uiso   1.00
C4     C     0.30180   0.52440   0.51115   0.01267  Uiso   1.00
C5     C     0.34550   0.38100   0.57186   0.01267  Uiso   1.00
C6     C     0.41660   0.33720   0.69593   0.01267  Uiso   1.00
C7     C     0.44450   0.43670   0.75764   0.01267  Uiso   1.00
C8     C     0.46530   0.18230   0.75924   0.01267  Uiso   1.00
C9     C     0.19130   0.47690   0.32750   0.01267  Uiso   1.00
C10    C     0.11000   0.56060   0.20120   0.01267  Uiso   1.00
C11    C     0.17060   0.57500   0.07170   0.01267  Uiso   1.00
C12    C     0.09140   0.64870   0.95640   0.01267  Uiso   1.00
C13    C     0.95290   0.71030   0.96790   0.01267  Uiso   1.00
C14    C     0.86600   0.78570   0.84300   0.01267  Uiso   1.00
C15    C     0.89470   0.69790   0.09800   0.01267  Uiso   1.00
C16    C     0.97210   0.62340   0.21250   0.01267  Uiso   1.00
C17    C     0.55120   0.31300   0.24692   0.01267  Uiso   1.00
C18    C     0.59390   0.41960   0.30782   0.01267  Uiso   1.00
C19    C     0.66530   0.37530   0.43005   0.01267  Uiso   1.00
C20    C     0.69820   0.47560   0.48885   0.01267  Uiso   1.00
C21    C     0.65450   0.61900   0.42814   0.01267  Uiso   1.00
C22    C     0.58340   0.66280   0.30407   0.01267  Uiso   1.00
C23    C     0.55550   0.56330   0.24236   0.01267  Uiso   1.00
C24    C     0.53470   0.81770   0.24076   0.01267  Uiso   1.00
C25    C     0.80870   0.52310   0.67250   0.01267  Uiso   1.00
C26    C     0.89000   0.43940   0.79880   0.01267  Uiso   1.00
C27    C     0.82940   0.42500   0.92830   0.01267  Uiso   1.00
C28    C     0.90860   0.35130   0.04360   0.01267  Uiso   1.00
C29    C     0.04710   0.28970   0.03210   0.01267  Uiso   1.00
C30    C     0.13400   0.21430   0.15700   0.01267  Uiso   1.00
C31    C     0.10530   0.30210   0.90200   0.01267  Uiso   1.00
C32    C     0.02790   0.37660   0.78750   0.01267  Uiso   1.00
O1     O     0.92337   0.80000   0.72795   0.01267  Uiso   1.00
O2     O     0.73903   0.83190   0.85916   0.01267  Uiso   1.00
O3     O     0.22925   0.57804   0.39044   0.01267  Uiso   1.00
O4     O     0.45413   0.81078   0.67615   0.01267  Uiso   1.00
O5     O     0.47986   0.65121   0.87626   0.01267  Uiso   1.00
O6     O     0.47942   0.09606   0.68608   0.01267  Uiso   1.00
O7     O     0.49201   0.13759   0.88544   0.01267  Uiso   1.00
O8     O     0.07663   0.20000   0.27205   0.01267  Uiso   1.00
O9     O     0.26097   0.16810   0.14084   0.01267  Uiso   1.00
O10    O     0.77075   0.42196   0.60956   0.01267  Uiso   1.00
O11    O     0.54587   0.18922   0.32385   0.01267  Uiso   1.00
O12    O     0.52014   0.34879   0.12374   0.01267  Uiso   1.00
O13    O     0.52058   0.90394   0.31392   0.01267  Uiso   1.00
O14    O     0.50799   0.86241   0.11456   0.01267  Uiso   1.00
