data_image0
_cell_length_a       23.7905
_cell_length_b       8.8535
_cell_length_c       15.5522
_cell_angle_alpha    90
_cell_angle_beta     90
_cell_angle_gamma    90

_symmetry_space_group_name_H-M    "P 1"
_symmetry_int_tables_number       1

loop_
  _symmetry_equiv_pos_as_xyz
  'x, y, z'

loop_
  _atom_site_label
  _atom_site_occupancy
  _atom_site_fract_x
  _atom_site_fract_y
  _atom_site_fract_z
  _atom_site_thermal_displace_type
  _atom_site_B_iso_or_equiv
  _atom_site_type_symbol
  N1       1.0000 0.40080  0.55430  0.12750  Biso   1.000  N
  C1       1.0000 0.42840  0.45350  0.14100  Biso   1.000  C
  N2       1.0000 0.28620  0.55970  0.01070  Biso   1.000  N
  C2       1.0000 0.26790  0.45880  0.97670  Biso   1.000  C
  N3       1.0000 0.09920  0.44570  0.62750  Biso   1.000  N
  C3       1.0000 0.07160  0.54650  0.64100  Biso   1.000  C
  N4       1.0000 0.21380  0.44030  0.51070  Biso   1.000  N
  C4       1.0000 0.23210  0.54120  0.47670  Biso   1.000  C
  N5       1.0000 0.59920  0.05430  0.87250  Biso   1.000  N
  C5       1.0000 0.57160  0.95350  0.85900  Biso   1.000  C
  N6       1.0000 0.71380  0.05970  0.98930  Biso   1.000  N
  C6       1.0000 0.73210  0.95880  0.02330  Biso   1.000  C
  N7       1.0000 0.90080  0.94570  0.37250  Biso   1.000  N
  C7       1.0000 0.92840  0.04650  0.35900  Biso   1.000  C
  N8       1.0000 0.78620  0.94030  0.48930  Biso   1.000  N
  C8       1.0000 0.76790  0.04120  0.52330  Biso   1.000  C
  N9       1.0000 0.59920  0.44570  0.87250  Biso   1.000  N
  C9       1.0000 0.57160  0.54650  0.85900  Biso   1.000  C
  N10      1.0000 0.71380  0.44030  0.98930  Biso   1.000  N
  C10      1.0000 0.73210  0.54120  0.02330  Biso   1.000  C
  N11      1.0000 0.90080  0.55430  0.37250  Biso   1.000  N
  C11      1.0000 0.92840  0.45350  0.35900  Biso   1.000  C
  N12      1.0000 0.78620  0.55970  0.48930  Biso   1.000  N
  C12      1.0000 0.76790  0.45880  0.52330  Biso   1.000  C
  N13      1.0000 0.40080  0.94570  0.12750  Biso   1.000  N
  C13      1.0000 0.42840  0.04650  0.14100  Biso   1.000  C
  N14      1.0000 0.28620  0.94030  0.01070  Biso   1.000  N
  C14      1.0000 0.26790  0.04120  0.97670  Biso   1.000  C
  N15      1.0000 0.09920  0.05430  0.62750  Biso   1.000  N
  C15      1.0000 0.07160  0.95350  0.64100  Biso   1.000  C
  N16      1.0000 0.21380  0.05970  0.51070  Biso   1.000  N
  C16      1.0000 0.23210  0.95880  0.47670  Biso   1.000  C
  Cd1      1.0000 0.34236  0.75000  0.07154  Biso   1.000  Cd
  Cd2      1.0000 0.51878  0.75000  0.83701  Biso   1.000  Cd
  Cd3      1.0000 0.26836  0.75000  0.41988  Biso   1.000  Cd
  Cl1      1.0000 0.49250  0.75000  0.68210  Biso   1.000  Cl
  Cl2      1.0000 0.37130  0.75000  0.46700  Biso   1.000  Cl
  N17      1.0000 0.40280  0.75000  0.95620  Biso   1.000  N
  C17      1.0000 0.44220  0.75000  0.91560  Biso   1.000  C
  N18      1.0000 0.29830  0.75000  0.20780  Biso   1.000  N
  C18      1.0000 0.28460  0.75000  0.27810  Biso   1.000  C
  Cd4      1.0000 0.15764  0.25000  0.57154  Biso   1.000  Cd
  Cd5      1.0000 0.98122  0.25000  0.33701  Biso   1.000  Cd
  Cd6      1.0000 0.23164  0.25000  0.91988  Biso   1.000  Cd
  Cl3      1.0000 0.00750  0.25000  0.18210  Biso   1.000  Cl
  Cl4      1.0000 0.12870  0.25000  0.96700  Biso   1.000  Cl
  N19      1.0000 0.09720  0.25000  0.45620  Biso   1.000  N
  C19      1.0000 0.05780  0.25000  0.41560  Biso   1.000  C
  N20      1.0000 0.20170  0.25000  0.70780  Biso   1.000  N
  C20      1.0000 0.21540  0.25000  0.77810  Biso   1.000  C
  Cd7      1.0000 0.65764  0.25000  0.92846  Biso   1.000  Cd
  Cd8      1.0000 0.48122  0.25000  0.16299  Biso   1.000  Cd
  Cd9      1.0000 0.73164  0.25000  0.58012  Biso   1.000  Cd
  Cl5      1.0000 0.50750  0.25000  0.31790  Biso   1.000  Cl
  Cl6      1.0000 0.62870  0.25000  0.53300  Biso   1.000  Cl
  N21      1.0000 0.59720  0.25000  0.04380  Biso   1.000  N
  C21      1.0000 0.55780  0.25000  0.08440  Biso   1.000  C
  N22      1.0000 0.70170  0.25000  0.79220  Biso   1.000  N
  C22      1.0000 0.71540  0.25000  0.72190  Biso   1.000  C
  Cd10     1.0000 0.84236  0.75000  0.42846  Biso   1.000  Cd
  Cd11     1.0000 0.01878  0.75000  0.66299  Biso   1.000  Cd
  Cd12     1.0000 0.76836  0.75000  0.08012  Biso   1.000  Cd
  Cl7      1.0000 0.99250  0.75000  0.81790  Biso   1.000  Cl
  Cl8      1.0000 0.87130  0.75000  0.03300  Biso   1.000  Cl
  N23      1.0000 0.90280  0.75000  0.54380  Biso   1.000  N
  C23      1.0000 0.94220  0.75000  0.58440  Biso   1.000  C
  N24      1.0000 0.79830  0.75000  0.29220  Biso   1.000  N
  C24      1.0000 0.78460  0.75000  0.22190  Biso   1.000  C
