data_image0
_cell_length_a       6.0394
_cell_length_b       26.524
_cell_length_c       23.431
_cell_angle_alpha    90
_cell_angle_beta     93.71
_cell_angle_gamma    90

_symmetry_space_group_name_H-M    "P 1"
_symmetry_int_tables_number       1

loop_
  _symmetry_equiv_pos_as_xyz
  'x, y, z'

loop_
  _atom_site_label
  _atom_site_occupancy
  _atom_site_fract_x
  _atom_site_fract_y
  _atom_site_fract_z
  _atom_site_thermal_displace_type
  _atom_site_B_iso_or_equiv
  _atom_site_type_symbol
  La1      1.0000 0.75400  0.80541  0.94478  Biso   1.000  La
  La2      1.0000 0.74680  0.77503  0.55484  Biso   1.000  La
  P1       1.0000 0.88550  0.89890  0.62440  Biso   1.000  P
  P2       1.0000 0.26080  0.86030  0.02230  Biso   1.000  P
  P3       1.0000 0.78500  0.76698  0.10700  Biso   1.000  P
  P4       1.0000 0.23150  0.17240  0.98190  Biso   1.000  P
  P5       1.0000 0.71570  0.73626  0.39320  Biso   1.000  P
  P6       1.0000 0.60420  0.93250  0.88430  Biso   1.000  P
  O1       1.0000 0.76000  0.85110  0.61810  Biso   1.000  O
  O2       1.0000 0.91800  0.93390  0.57480  Biso   1.000  O
  O3       1.0000 0.77400  0.92790  0.67390  Biso   1.000  O
  O4       1.0000 0.03600  0.86330  0.98430  Biso   1.000  O
  O5       1.0000 0.27100  0.81880  0.06760  Biso   1.000  O
  O6       1.0000 0.47300  0.86200  0.98790  Biso   1.000  O
  O7       1.0000 0.57600  0.74060  0.12580  Biso   1.000  O
  O8       1.0000 0.99400  0.74280  0.13280  Biso   1.000  O
  O9       1.0000 0.78300  0.77430  0.04390  Biso   1.000  O
  O10      1.0000 0.45900  0.16940  0.01680  Biso   1.000  O
  O11      1.0000 0.03700  0.17170  0.01910  Biso   1.000  O
  O12      1.0000 0.22000  0.21140  0.93600  Biso   1.000  O
  O13      1.0000 0.91900  0.70880  0.37300  Biso   1.000  O
  O14      1.0000 0.49600  0.71150  0.36860  Biso   1.000  O
  O15      1.0000 0.71200  0.73740  0.46010  Biso   1.000  O
  O16      1.0000 0.70000  0.96740  0.84140  Biso   1.000  O
  O17      1.0000 0.57700  0.96000  0.93790  Biso   1.000  O
  O18      1.0000 0.72300  0.88400  0.88770  Biso   1.000  O
  C1       1.0000 0.17000  0.88570  0.65170  Biso   1.000  C
  H1       1.0000 0.22970  0.91550  0.67120  Biso   1.000  H
  H2       1.0000 0.25930  0.87920  0.61950  Biso   1.000  H
  C2       1.0000 0.42800  0.83840  0.72090  Biso   1.000  C
  H3       1.0000 0.45600  0.80590  0.73880  Biso   1.000  H
  H4       1.0000 0.53290  0.84270  0.69150  Biso   1.000  H
  C3       1.0000 0.46400  0.87980  0.76540  Biso   1.000  C
  H5       1.0000 0.44590  0.91240  0.74690  Biso   1.000  H
  H6       1.0000 0.61400  0.87780  0.78260  Biso   1.000  H
  C4       1.0000 0.07200  0.87570  0.78520  Biso   1.000  C
  H7       1.0000 0.97000  0.87010  0.81490  Biso   1.000  H
  H8       1.0000 0.03860  0.90850  0.76830  Biso   1.000  H
  C5       1.0000 0.03700  0.83510  0.73950  Biso   1.000  C
  H9       1.0000 0.88640  0.83720  0.72270  Biso   1.000  H
  H10      1.0000 0.05570  0.80220  0.75730  Biso   1.000  H
  C6       1.0000 0.27400  0.92080  0.06250  Biso   1.000  C
  H11      1.0000 0.14200  0.92410  0.08390  Biso   1.000  H
  H12      1.0000 0.40190  0.92050  0.08970  Biso   1.000  H
  C7       1.0000 0.38600  0.01100  0.05390  Biso   1.000  C
  H13      1.0000 0.53270  0.00280  0.07090  Biso   1.000  H
  H14      1.0000 0.29340  0.02030  0.08440  Biso   1.000  H
  C8       1.0000 0.40400  0.05570  0.01250  Biso   1.000  C
  H15      1.0000 0.46790  0.08460  0.03290  Biso   1.000  H
  H16      1.0000 0.50060  0.04680  0.98250  Biso   1.000  H
  C9       1.0000 0.07900  0.02210  0.95500  Biso   1.000  C
  H17      1.0000 0.93100  0.02990  0.93880  Biso   1.000  H
  H18      1.0000 0.16980  0.01310  0.92390  Biso   1.000  H
  C10      1.0000 0.06700  0.97820  0.99540  Biso   1.000  C
  H19      1.0000 0.96750  0.98640  0.02490  Biso   1.000  H
  H20      1.0000 0.00720  0.94910  0.97460  Biso   1.000  H
  C11      1.0000 0.77100  0.83200  0.13080  Biso   1.000  C
  H21      1.0000 0.89880  0.84970  0.11780  Biso   1.000  H
  H22      1.0000 0.64010  0.84720  0.11150  Biso   1.000  H
  C12      1.0000 0.56300  0.82150  0.21460  Biso   1.000  C
  H23      1.0000 0.55750  0.78550  0.20720  Biso   1.000  H
  H24      1.0000 0.43600  0.83670  0.19370  Biso   1.000  H
  C13      1.0000 0.54300  0.83100  0.28260  Biso   1.000  C
  H25      1.0000 0.54670  0.86670  0.29160  Biso   1.000  H
  H26      1.0000 0.40840  0.81640  0.29570  Biso   1.000  H
  C14      1.0000 0.94100  0.82970  0.29290  Biso   1.000  C
  H27      1.0000 0.06750  0.81210  0.31120  Biso   1.000  H
  H28      1.0000 0.94510  0.86450  0.30550  Biso   1.000  H
  C15      1.0000 0.94700  0.82680  0.22760  Biso   1.000  C
  H29      1.0000 0.07090  0.84700  0.21680  Biso   1.000  H
  H30      1.0000 0.97900  0.79210  0.21790  Biso   1.000  H
  C16      1.0000 0.18900  0.11150  0.94380  Biso   1.000  C
  H31      1.0000 0.05240  0.11270  0.91980  Biso   1.000  H
  H32      1.0000 0.31060  0.10560  0.91950  Biso   1.000  H
  C17      1.0000 0.71800  0.80060  0.37040  Biso   1.000  C
  H33      1.0000 0.84230  0.81780  0.39020  Biso   1.000  H
  H34      1.0000 0.58300  0.81690  0.38100  Biso   1.000  H
  C18      1.0000 0.31100  0.91840  0.85410  Biso   1.000  C
  H35      1.0000 0.21950  0.90960  0.88520  Biso   1.000  H
  H36      1.0000 0.24840  0.94840  0.83580  Biso   1.000  H
  N1       1.0000 0.19400  0.83990  0.69380  Biso   1.000  N
  H37      1.0000 0.17660  0.81160  0.67190  Biso   1.000  H
  N2       1.0000 0.30400  0.87550  0.81090  Biso   1.000  N
  H38      1.0000 0.32890  0.84590  0.82990  Biso   1.000  H
  N3       1.0000 0.28900  0.96510  0.02280  Biso   1.000  N
  H39      1.0000 0.37950  0.95650  0.99490  Biso   1.000  H
  N4       1.0000 0.17800  0.06890  0.98660  Biso   1.000  N
  H40      1.0000 0.08960  0.07810  0.01480  Biso   1.000  H
  N5       1.0000 0.76200  0.84160  0.19340  Biso   1.000  N
  H41      1.0000 0.75230  0.87560  0.19730  Biso   1.000  H
  N6       1.0000 0.73600  0.80590  0.30730  Biso   1.000  N
  H42      1.0000 0.73530  0.77420  0.29240  Biso   1.000  H
  La3      1.0000 0.25400  0.30541  0.94478  Biso   1.000  La
  La4      1.0000 0.24680  0.27503  0.55484  Biso   1.000  La
  P7       1.0000 0.38550  0.39890  0.62440  Biso   1.000  P
  P8       1.0000 0.76080  0.36030  0.02230  Biso   1.000  P
  P9       1.0000 0.28500  0.26698  0.10700  Biso   1.000  P
  P10      1.0000 0.73150  0.67240  0.98190  Biso   1.000  P
  P11      1.0000 0.21570  0.23626  0.39320  Biso   1.000  P
  P12      1.0000 0.10420  0.43250  0.88430  Biso   1.000  P
  O19      1.0000 0.26000  0.35110  0.61810  Biso   1.000  O
  O20      1.0000 0.41800  0.43390  0.57480  Biso   1.000  O
  O21      1.0000 0.27400  0.42790  0.67390  Biso   1.000  O
  O22      1.0000 0.53600  0.36330  0.98430  Biso   1.000  O
  O23      1.0000 0.77100  0.31880  0.06760  Biso   1.000  O
  O24      1.0000 0.97300  0.36200  0.98790  Biso   1.000  O
  O25      1.0000 0.07600  0.24060  0.12580  Biso   1.000  O
  O26      1.0000 0.49400  0.24280  0.13280  Biso   1.000  O
  O27      1.0000 0.28300  0.27430  0.04390  Biso   1.000  O
  O28      1.0000 0.95900  0.66940  0.01680  Biso   1.000  O
  O29      1.0000 0.53700  0.67170  0.01910  Biso   1.000  O
  O30      1.0000 0.72000  0.71140  0.93600  Biso   1.000  O
  O31      1.0000 0.41900  0.20880  0.37300  Biso   1.000  O
  O32      1.0000 0.99600  0.21150  0.36860  Biso   1.000  O
  O33      1.0000 0.21200  0.23740  0.46010  Biso   1.000  O
  O34      1.0000 0.20000  0.46740  0.84140  Biso   1.000  O
  O35      1.0000 0.07700  0.46000  0.93790  Biso   1.000  O
  O36      1.0000 0.22300  0.38400  0.88770  Biso   1.000  O
  C19      1.0000 0.67000  0.38570  0.65170  Biso   1.000  C
  H43      1.0000 0.72970  0.41550  0.67120  Biso   1.000  H
  H44      1.0000 0.75930  0.37920  0.61950  Biso   1.000  H
  C20      1.0000 0.92800  0.33840  0.72090  Biso   1.000  C
  H45      1.0000 0.95600  0.30590  0.73880  Biso   1.000  H
  H46      1.0000 0.03290  0.34270  0.69150  Biso   1.000  H
  C21      1.0000 0.96400  0.37980  0.76540  Biso   1.000  C
  H47      1.0000 0.94590  0.41240  0.74690  Biso   1.000  H
  H48      1.0000 0.11400  0.37780  0.78260  Biso   1.000  H
  C22      1.0000 0.57200  0.37570  0.78520  Biso   1.000  C
  H49      1.0000 0.47000  0.37010  0.81490  Biso   1.000  H
  H50      1.0000 0.53860  0.40850  0.76830  Biso   1.000  H
  C23      1.0000 0.53700  0.33510  0.73950  Biso   1.000  C
  H51      1.0000 0.38640  0.33720  0.72270  Biso   1.000  H
  H52      1.0000 0.55570  0.30220  0.75730  Biso   1.000  H
  C24      1.0000 0.77400  0.42080  0.06250  Biso   1.000  C
  H53      1.0000 0.64200  0.42410  0.08390  Biso   1.000  H
  H54      1.0000 0.90190  0.42050  0.08970  Biso   1.000  H
  C25      1.0000 0.88600  0.51100  0.05390  Biso   1.000  C
  H55      1.0000 0.03270  0.50280  0.07090  Biso   1.000  H
  H56      1.0000 0.79340  0.52030  0.08440  Biso   1.000  H
  C26      1.0000 0.90400  0.55570  0.01250  Biso   1.000  C
  H57      1.0000 0.96790  0.58460  0.03290  Biso   1.000  H
  H58      1.0000 0.00060  0.54680  0.98250  Biso   1.000  H
  C27      1.0000 0.57900  0.52210  0.95500  Biso   1.000  C
  H59      1.0000 0.43100  0.52990  0.93880  Biso   1.000  H
  H60      1.0000 0.66980  0.51310  0.92390  Biso   1.000  H
  C28      1.0000 0.56700  0.47820  0.99540  Biso   1.000  C
  H61      1.0000 0.46750  0.48640  0.02490  Biso   1.000  H
  H62      1.0000 0.50720  0.44910  0.97460  Biso   1.000  H
  C29      1.0000 0.27100  0.33200  0.13080  Biso   1.000  C
  H63      1.0000 0.39880  0.34970  0.11780  Biso   1.000  H
  H64      1.0000 0.14010  0.34720  0.11150  Biso   1.000  H
  C30      1.0000 0.06300  0.32150  0.21460  Biso   1.000  C
  H65      1.0000 0.05750  0.28550  0.20720  Biso   1.000  H
  H66      1.0000 0.93600  0.33670  0.19370  Biso   1.000  H
  C31      1.0000 0.04300  0.33100  0.28260  Biso   1.000  C
  H67      1.0000 0.04670  0.36670  0.29160  Biso   1.000  H
  H68      1.0000 0.90840  0.31640  0.29570  Biso   1.000  H
  C32      1.0000 0.44100  0.32970  0.29290  Biso   1.000  C
  H69      1.0000 0.56750  0.31210  0.31120  Biso   1.000  H
  H70      1.0000 0.44510  0.36450  0.30550  Biso   1.000  H
  C33      1.0000 0.44700  0.32680  0.22760  Biso   1.000  C
  H71      1.0000 0.57090  0.34700  0.21680  Biso   1.000  H
  H72      1.0000 0.47900  0.29210  0.21790  Biso   1.000  H
  C34      1.0000 0.68900  0.61150  0.94380  Biso   1.000  C
  H73      1.0000 0.55240  0.61270  0.91980  Biso   1.000  H
  H74      1.0000 0.81060  0.60560  0.91950  Biso   1.000  H
  C35      1.0000 0.21800  0.30060  0.37040  Biso   1.000  C
  H75      1.0000 0.34230  0.31780  0.39020  Biso   1.000  H
  H76      1.0000 0.08300  0.31690  0.38100  Biso   1.000  H
  C36      1.0000 0.81100  0.41840  0.85410  Biso   1.000  C
  H77      1.0000 0.71950  0.40960  0.88520  Biso   1.000  H
  H78      1.0000 0.74840  0.44840  0.83580  Biso   1.000  H
  N7       1.0000 0.69400  0.33990  0.69380  Biso   1.000  N
  H79      1.0000 0.67660  0.31160  0.67190  Biso   1.000  H
  N8       1.0000 0.80400  0.37550  0.81090  Biso   1.000  N
  H80      1.0000 0.82890  0.34590  0.82990  Biso   1.000  H
  N9       1.0000 0.78900  0.46510  0.02280  Biso   1.000  N
  H81      1.0000 0.87950  0.45650  0.99490  Biso   1.000  H
  N10      1.0000 0.67800  0.56890  0.98660  Biso   1.000  N
  H82      1.0000 0.58960  0.57810  0.01480  Biso   1.000  H
  N11      1.0000 0.26200  0.34160  0.19340  Biso   1.000  N
  H83      1.0000 0.25230  0.37560  0.19730  Biso   1.000  H
  N12      1.0000 0.23600  0.30590  0.30730  Biso   1.000  N
  H84      1.0000 0.23530  0.27420  0.29240  Biso   1.000  H
  La5      1.0000 0.75400  0.19459  0.44478  Biso   1.000  La
  La6      1.0000 0.74680  0.22497  0.05484  Biso   1.000  La
  P13      1.0000 0.88550  0.10110  0.12440  Biso   1.000  P
  P14      1.0000 0.26080  0.13970  0.52230  Biso   1.000  P
  P15      1.0000 0.78500  0.23302  0.60700  Biso   1.000  P
  P16      1.0000 0.23150  0.82760  0.48190  Biso   1.000  P
  P17      1.0000 0.71570  0.26374  0.89320  Biso   1.000  P
  P18      1.0000 0.60420  0.06750  0.38430  Biso   1.000  P
  O37      1.0000 0.76000  0.14890  0.11810  Biso   1.000  O
  O38      1.0000 0.91800  0.06610  0.07480  Biso   1.000  O
  O39      1.0000 0.77400  0.07210  0.17390  Biso   1.000  O
  O40      1.0000 0.03600  0.13670  0.48430  Biso   1.000  O
  O41      1.0000 0.27100  0.18120  0.56760  Biso   1.000  O
  O42      1.0000 0.47300  0.13800  0.48790  Biso   1.000  O
  O43      1.0000 0.57600  0.25940  0.62580  Biso   1.000  O
  O44      1.0000 0.99400  0.25720  0.63280  Biso   1.000  O
  O45      1.0000 0.78300  0.22570  0.54390  Biso   1.000  O
  O46      1.0000 0.45900  0.83060  0.51680  Biso   1.000  O
  O47      1.0000 0.03700  0.82830  0.51910  Biso   1.000  O
  O48      1.0000 0.22000  0.78860  0.43600  Biso   1.000  O
  O49      1.0000 0.91900  0.29120  0.87300  Biso   1.000  O
  O50      1.0000 0.49600  0.28850  0.86860  Biso   1.000  O
  O51      1.0000 0.71200  0.26260  0.96010  Biso   1.000  O
  O52      1.0000 0.70000  0.03260  0.34140  Biso   1.000  O
  O53      1.0000 0.57700  0.04000  0.43790  Biso   1.000  O
  O54      1.0000 0.72300  0.11600  0.38770  Biso   1.000  O
  C37      1.0000 0.17000  0.11430  0.15170  Biso   1.000  C
  H85      1.0000 0.22970  0.08450  0.17120  Biso   1.000  H
  H86      1.0000 0.25930  0.12080  0.11950  Biso   1.000  H
  C38      1.0000 0.42800  0.16160  0.22090  Biso   1.000  C
  H87      1.0000 0.45600  0.19410  0.23880  Biso   1.000  H
  H88      1.0000 0.53290  0.15730  0.19150  Biso   1.000  H
  C39      1.0000 0.46400  0.12020  0.26540  Biso   1.000  C
  H89      1.0000 0.44590  0.08760  0.24690  Biso   1.000  H
  H90      1.0000 0.61400  0.12220  0.28260  Biso   1.000  H
  C40      1.0000 0.07200  0.12430  0.28520  Biso   1.000  C
  H91      1.0000 0.97000  0.12990  0.31490  Biso   1.000  H
  H92      1.0000 0.03860  0.09150  0.26830  Biso   1.000  H
  C41      1.0000 0.03700  0.16490  0.23950  Biso   1.000  C
  H93      1.0000 0.88640  0.16280  0.22270  Biso   1.000  H
  H94      1.0000 0.05570  0.19780  0.25730  Biso   1.000  H
  C42      1.0000 0.27400  0.07920  0.56250  Biso   1.000  C
  H95      1.0000 0.14200  0.07590  0.58390  Biso   1.000  H
  H96      1.0000 0.40190  0.07950  0.58970  Biso   1.000  H
  C43      1.0000 0.38600  0.98900  0.55390  Biso   1.000  C
  H97      1.0000 0.53270  0.99720  0.57090  Biso   1.000  H
  H98      1.0000 0.29340  0.97970  0.58440  Biso   1.000  H
  C44      1.0000 0.40400  0.94430  0.51250  Biso   1.000  C
  H99      1.0000 0.46790  0.91540  0.53290  Biso   1.000  H
  H100     1.0000 0.50060  0.95320  0.48250  Biso   1.000  H
  C45      1.0000 0.07900  0.97790  0.45500  Biso   1.000  C
  H101     1.0000 0.93100  0.97010  0.43880  Biso   1.000  H
  H102     1.0000 0.16980  0.98690  0.42390  Biso   1.000  H
  C46      1.0000 0.06700  0.02180  0.49540  Biso   1.000  C
  H103     1.0000 0.96750  0.01360  0.52490  Biso   1.000  H
  H104     1.0000 0.00720  0.05090  0.47460  Biso   1.000  H
  C47      1.0000 0.77100  0.16800  0.63080  Biso   1.000  C
  H105     1.0000 0.89880  0.15030  0.61780  Biso   1.000  H
  H106     1.0000 0.64010  0.15280  0.61150  Biso   1.000  H
  C48      1.0000 0.56300  0.17850  0.71460  Biso   1.000  C
  H107     1.0000 0.55750  0.21450  0.70720  Biso   1.000  H
  H108     1.0000 0.43600  0.16330  0.69370  Biso   1.000  H
  C49      1.0000 0.54300  0.16900  0.78260  Biso   1.000  C
  H109     1.0000 0.54670  0.13330  0.79160  Biso   1.000  H
  H110     1.0000 0.40840  0.18360  0.79570  Biso   1.000  H
  C50      1.0000 0.94100  0.17030  0.79290  Biso   1.000  C
  H111     1.0000 0.06750  0.18790  0.81120  Biso   1.000  H
  H112     1.0000 0.94510  0.13550  0.80550  Biso   1.000  H
  C51      1.0000 0.94700  0.17320  0.72760  Biso   1.000  C
  H113     1.0000 0.07090  0.15300  0.71680  Biso   1.000  H
  H114     1.0000 0.97900  0.20790  0.71790  Biso   1.000  H
  C52      1.0000 0.18900  0.88850  0.44380  Biso   1.000  C
  H115     1.0000 0.05240  0.88730  0.41980  Biso   1.000  H
  H116     1.0000 0.31060  0.89440  0.41950  Biso   1.000  H
  C53      1.0000 0.71800  0.19940  0.87040  Biso   1.000  C
  H117     1.0000 0.84230  0.18220  0.89020  Biso   1.000  H
  H118     1.0000 0.58300  0.18310  0.88100  Biso   1.000  H
  C54      1.0000 0.31100  0.08160  0.35410  Biso   1.000  C
  H119     1.0000 0.21950  0.09040  0.38520  Biso   1.000  H
  H120     1.0000 0.24840  0.05160  0.33580  Biso   1.000  H
  N13      1.0000 0.19400  0.16010  0.19380  Biso   1.000  N
  H121     1.0000 0.17660  0.18840  0.17190  Biso   1.000  H
  N14      1.0000 0.30400  0.12450  0.31090  Biso   1.000  N
  H122     1.0000 0.32890  0.15410  0.32990  Biso   1.000  H
  N15      1.0000 0.28900  0.03490  0.52280  Biso   1.000  N
  H123     1.0000 0.37950  0.04350  0.49490  Biso   1.000  H
  N16      1.0000 0.17800  0.93110  0.48660  Biso   1.000  N
  H124     1.0000 0.08960  0.92190  0.51480  Biso   1.000  H
  N17      1.0000 0.76200  0.15840  0.69340  Biso   1.000  N
  H125     1.0000 0.75230  0.12440  0.69730  Biso   1.000  H
  N18      1.0000 0.73600  0.19410  0.80730  Biso   1.000  N
  H126     1.0000 0.73530  0.22580  0.79240  Biso   1.000  H
  La7      1.0000 0.25400  0.69459  0.44478  Biso   1.000  La
  La8      1.0000 0.24680  0.72497  0.05484  Biso   1.000  La
  P19      1.0000 0.38550  0.60110  0.12440  Biso   1.000  P
  P20      1.0000 0.76080  0.63970  0.52230  Biso   1.000  P
  P21      1.0000 0.28500  0.73302  0.60700  Biso   1.000  P
  P22      1.0000 0.73150  0.32760  0.48190  Biso   1.000  P
  P23      1.0000 0.21570  0.76374  0.89320  Biso   1.000  P
  P24      1.0000 0.10420  0.56750  0.38430  Biso   1.000  P
  O55      1.0000 0.26000  0.64890  0.11810  Biso   1.000  O
  O56      1.0000 0.41800  0.56610  0.07480  Biso   1.000  O
  O57      1.0000 0.27400  0.57210  0.17390  Biso   1.000  O
  O58      1.0000 0.53600  0.63670  0.48430  Biso   1.000  O
  O59      1.0000 0.77100  0.68120  0.56760  Biso   1.000  O
  O60      1.0000 0.97300  0.63800  0.48790  Biso   1.000  O
  O61      1.0000 0.07600  0.75940  0.62580  Biso   1.000  O
  O62      1.0000 0.49400  0.75720  0.63280  Biso   1.000  O
  O63      1.0000 0.28300  0.72570  0.54390  Biso   1.000  O
  O64      1.0000 0.95900  0.33060  0.51680  Biso   1.000  O
  O65      1.0000 0.53700  0.32830  0.51910  Biso   1.000  O
  O66      1.0000 0.72000  0.28860  0.43600  Biso   1.000  O
  O67      1.0000 0.41900  0.79120  0.87300  Biso   1.000  O
  O68      1.0000 0.99600  0.78850  0.86860  Biso   1.000  O
  O69      1.0000 0.21200  0.76260  0.96010  Biso   1.000  O
  O70      1.0000 0.20000  0.53260  0.34140  Biso   1.000  O
  O71      1.0000 0.07700  0.54000  0.43790  Biso   1.000  O
  O72      1.0000 0.22300  0.61600  0.38770  Biso   1.000  O
  C55      1.0000 0.67000  0.61430  0.15170  Biso   1.000  C
  H127     1.0000 0.72970  0.58450  0.17120  Biso   1.000  H
  H128     1.0000 0.75930  0.62080  0.11950  Biso   1.000  H
  C56      1.0000 0.92800  0.66160  0.22090  Biso   1.000  C
  H129     1.0000 0.95600  0.69410  0.23880  Biso   1.000  H
  H130     1.0000 0.03290  0.65730  0.19150  Biso   1.000  H
  C57      1.0000 0.96400  0.62020  0.26540  Biso   1.000  C
  H131     1.0000 0.94590  0.58760  0.24690  Biso   1.000  H
  H132     1.0000 0.11400  0.62220  0.28260  Biso   1.000  H
  C58      1.0000 0.57200  0.62430  0.28520  Biso   1.000  C
  H133     1.0000 0.47000  0.62990  0.31490  Biso   1.000  H
  H134     1.0000 0.53860  0.59150  0.26830  Biso   1.000  H
  C59      1.0000 0.53700  0.66490  0.23950  Biso   1.000  C
  H135     1.0000 0.38640  0.66280  0.22270  Biso   1.000  H
  H136     1.0000 0.55570  0.69780  0.25730  Biso   1.000  H
  C60      1.0000 0.77400  0.57920  0.56250  Biso   1.000  C
  H137     1.0000 0.64200  0.57590  0.58390  Biso   1.000  H
  H138     1.0000 0.90190  0.57950  0.58970  Biso   1.000  H
  C61      1.0000 0.88600  0.48900  0.55390  Biso   1.000  C
  H139     1.0000 0.03270  0.49720  0.57090  Biso   1.000  H
  H140     1.0000 0.79340  0.47970  0.58440  Biso   1.000  H
  C62      1.0000 0.90400  0.44430  0.51250  Biso   1.000  C
  H141     1.0000 0.96790  0.41540  0.53290  Biso   1.000  H
  H142     1.0000 0.00060  0.45320  0.48250  Biso   1.000  H
  C63      1.0000 0.57900  0.47790  0.45500  Biso   1.000  C
  H143     1.0000 0.43100  0.47010  0.43880  Biso   1.000  H
  H144     1.0000 0.66980  0.48690  0.42390  Biso   1.000  H
  C64      1.0000 0.56700  0.52180  0.49540  Biso   1.000  C
  H145     1.0000 0.46750  0.51360  0.52490  Biso   1.000  H
  H146     1.0000 0.50720  0.55090  0.47460  Biso   1.000  H
  C65      1.0000 0.27100  0.66800  0.63080  Biso   1.000  C
  H147     1.0000 0.39880  0.65030  0.61780  Biso   1.000  H
  H148     1.0000 0.14010  0.65280  0.61150  Biso   1.000  H
  C66      1.0000 0.06300  0.67850  0.71460  Biso   1.000  C
  H149     1.0000 0.05750  0.71450  0.70720  Biso   1.000  H
  H150     1.0000 0.93600  0.66330  0.69370  Biso   1.000  H
  C67      1.0000 0.04300  0.66900  0.78260  Biso   1.000  C
  H151     1.0000 0.04670  0.63330  0.79160  Biso   1.000  H
  H152     1.0000 0.90840  0.68360  0.79570  Biso   1.000  H
  C68      1.0000 0.44100  0.67030  0.79290  Biso   1.000  C
  H153     1.0000 0.56750  0.68790  0.81120  Biso   1.000  H
  H154     1.0000 0.44510  0.63550  0.80550  Biso   1.000  H
  C69      1.0000 0.44700  0.67320  0.72760  Biso   1.000  C
  H155     1.0000 0.57090  0.65300  0.71680  Biso   1.000  H
  H156     1.0000 0.47900  0.70790  0.71790  Biso   1.000  H
  C70      1.0000 0.68900  0.38850  0.44380  Biso   1.000  C
  H157     1.0000 0.55240  0.38730  0.41980  Biso   1.000  H
  H158     1.0000 0.81060  0.39440  0.41950  Biso   1.000  H
  C71      1.0000 0.21800  0.69940  0.87040  Biso   1.000  C
  H159     1.0000 0.34230  0.68220  0.89020  Biso   1.000  H
  H160     1.0000 0.08300  0.68310  0.88100  Biso   1.000  H
  C72      1.0000 0.81100  0.58160  0.35410  Biso   1.000  C
  H161     1.0000 0.71950  0.59040  0.38520  Biso   1.000  H
  H162     1.0000 0.74840  0.55160  0.33580  Biso   1.000  H
  N19      1.0000 0.69400  0.66010  0.19380  Biso   1.000  N
  H163     1.0000 0.67660  0.68840  0.17190  Biso   1.000  H
  N20      1.0000 0.80400  0.62450  0.31090  Biso   1.000  N
  H164     1.0000 0.82890  0.65410  0.32990  Biso   1.000  H
  N21      1.0000 0.78900  0.53490  0.52280  Biso   1.000  N
  H165     1.0000 0.87950  0.54350  0.49490  Biso   1.000  H
  N22      1.0000 0.67800  0.43110  0.48660  Biso   1.000  N
  H166     1.0000 0.58960  0.42190  0.51480  Biso   1.000  H
  N23      1.0000 0.26200  0.65840  0.69340  Biso   1.000  N
  H167     1.0000 0.25230  0.62440  0.69730  Biso   1.000  H
  N24      1.0000 0.23600  0.69410  0.80730  Biso   1.000  N
  H168     1.0000 0.23530  0.72580  0.79240  Biso   1.000  H
