data_image0
_cell_length_a       10.3912
_cell_length_b       11.8723
_cell_length_c       11.879
_cell_angle_alpha    82.379
_cell_angle_beta     87.725
_cell_angle_gamma    81.666

_symmetry_space_group_name_H-M    "P 1"
_symmetry_int_tables_number       1

loop_
  _symmetry_equiv_pos_as_xyz
  'x, y, z'

loop_
  _atom_site_label
  _atom_site_occupancy
  _atom_site_fract_x
  _atom_site_fract_y
  _atom_site_fract_z
  _atom_site_thermal_displace_type
  _atom_site_B_iso_or_equiv
  _atom_site_type_symbol
  Nd1      1.0000 0.98104  0.07738  0.23929  Biso   1.000  Nd
  P1       1.0000 0.70199  0.31665  0.27806  Biso   1.000  P
  P2       1.0000 0.11861  0.11678  0.50462  Biso   1.000  P
  P3       1.0000 0.84630  0.10744  0.96536  Biso   1.000  P
  O1       1.0000 0.79990  0.21570  0.25910  Biso   1.000  O
  O2       1.0000 0.56440  0.30120  0.24470  Biso   1.000  O
  H1       1.0000 0.55130  0.33030  0.17880  Biso   1.000  H
  O3       1.0000 0.73910  0.42950  0.22010  Biso   1.000  O
  O4       1.0000 0.82090  0.33060  0.46830  Biso   1.000  O
  H2       1.0000 0.81960  0.32890  0.53750  Biso   1.000  H
  O5       1.0000 0.08170  0.07310  0.62400  Biso   1.000  O
  O6       1.0000 0.01090  0.15360  0.42080  Biso   1.000  O
  O7       1.0000 0.19810  0.21940  0.51150  Biso   1.000  O
  H3       1.0000 0.20250  0.25640  0.44840  Biso   1.000  H
  O8       1.0000 0.20440  0.00980  0.33000  Biso   1.000  O
  H4       1.0000 0.24510  0.94660  0.31310  Biso   1.000  H
  O9       1.0000 0.89400  0.07030  0.85340  Biso   1.000  O
  O10      1.0000 0.94410  0.14110  0.03970  Biso   1.000  O
  O11      1.0000 0.73340  0.20940  0.94000  Biso   1.000  O
  H5       1.0000 0.75590  0.26840  0.95680  Biso   1.000  H
  O12      1.0000 0.79830  0.99000  0.16380  Biso   1.000  O
  H6       1.0000 0.75690  0.94850  0.21130  Biso   1.000  H
  C1       1.0000 0.69440  0.31990  0.43140  Biso   1.000  C
  H7       1.0000 0.67120  0.24630  0.46790  Biso   1.000  H
  C2       1.0000 0.59520  0.41420  0.46790  Biso   1.000  C
  C3       1.0000 0.47430  0.38880  0.50310  Biso   1.000  C
  H8       1.0000 0.45620  0.31410  0.50520  Biso   1.000  H
  C4       1.0000 0.62180  0.52670  0.46420  Biso   1.000  C
  H9       1.0000 0.70340  0.54500  0.44000  Biso   1.000  H
  C5       1.0000 0.22770  0.99990  0.44880  Biso   1.000  C
  H10      1.0000 0.20260  0.92680  0.48460  Biso   1.000  H
  C6       1.0000 0.36950  0.00040  0.47390  Biso   1.000  C
  C7       1.0000 0.41460  0.95830  0.58220  Biso   1.000  C
  H11      1.0000 0.35780  0.93020  0.63800  Biso   1.000  H
  C8       1.0000 0.45570  0.04210  0.39260  Biso   1.000  C
  H12      1.0000 0.42660  0.07090  0.32000  Biso   1.000  H
  C9       1.0000 0.77430  0.98740  0.04590  Biso   1.000  C
  H13      1.0000 0.82010  0.91540  0.02350  Biso   1.000  H
  C10      1.0000 0.63110  0.99290  0.02380  Biso   1.000  C
  C11      1.0000 0.53900  0.06320  0.07920  Biso   1.000  C
  H14      1.0000 0.56490  0.10570  0.13250  Biso   1.000  H
  C12      1.0000 0.59220  0.92930  0.94460  Biso   1.000  C
  H15      1.0000 0.65380  0.88160  0.90740  Biso   1.000  H
  Nd2      1.0000 0.01896  0.92262  0.76071  Biso   1.000  Nd
  P4       1.0000 0.29801  0.68335  0.72194  Biso   1.000  P
  P5       1.0000 0.88139  0.88322  0.49538  Biso   1.000  P
  P6       1.0000 0.15370  0.89256  0.03464  Biso   1.000  P
  O13      1.0000 0.20010  0.78430  0.74090  Biso   1.000  O
  O14      1.0000 0.43560  0.69880  0.75530  Biso   1.000  O
  H16      1.0000 0.44870  0.66970  0.82120  Biso   1.000  H
  O15      1.0000 0.26090  0.57050  0.77990  Biso   1.000  O
  O16      1.0000 0.17910  0.66940  0.53170  Biso   1.000  O
  H17      1.0000 0.18040  0.67110  0.46250  Biso   1.000  H
  O17      1.0000 0.91830  0.92690  0.37600  Biso   1.000  O
  O18      1.0000 0.98910  0.84640  0.57920  Biso   1.000  O
  O19      1.0000 0.80190  0.78060  0.48850  Biso   1.000  O
  H18      1.0000 0.79750  0.74360  0.55160  Biso   1.000  H
  O20      1.0000 0.79560  0.99020  0.67000  Biso   1.000  O
  H19      1.0000 0.75490  0.05340  0.68690  Biso   1.000  H
  O21      1.0000 0.10600  0.92970  0.14660  Biso   1.000  O
  O22      1.0000 0.05590  0.85890  0.96030  Biso   1.000  O
  O23      1.0000 0.26660  0.79060  0.06000  Biso   1.000  O
  H20      1.0000 0.24410  0.73160  0.04320  Biso   1.000  H
  O24      1.0000 0.20170  0.01000  0.83620  Biso   1.000  O
  H21      1.0000 0.24310  0.05150  0.78870  Biso   1.000  H
  C13      1.0000 0.30560  0.68010  0.56860  Biso   1.000  C
  H22      1.0000 0.32880  0.75370  0.53210  Biso   1.000  H
  C14      1.0000 0.40480  0.58580  0.53210  Biso   1.000  C
  C15      1.0000 0.52570  0.61120  0.49690  Biso   1.000  C
  H23      1.0000 0.54380  0.68590  0.49480  Biso   1.000  H
  C16      1.0000 0.37820  0.47330  0.53580  Biso   1.000  C
  H24      1.0000 0.29660  0.45500  0.56000  Biso   1.000  H
  C17      1.0000 0.77230  0.00010  0.55120  Biso   1.000  C
  H25      1.0000 0.79740  0.07320  0.51540  Biso   1.000  H
  C18      1.0000 0.63050  0.99960  0.52610  Biso   1.000  C
  C19      1.0000 0.58540  0.04170  0.41780  Biso   1.000  C
  H26      1.0000 0.64220  0.06980  0.36200  Biso   1.000  H
  C20      1.0000 0.54430  0.95790  0.60740  Biso   1.000  C
  H27      1.0000 0.57340  0.92910  0.68000  Biso   1.000  H
  C21      1.0000 0.22570  0.01260  0.95410  Biso   1.000  C
  H28      1.0000 0.17990  0.08460  0.97650  Biso   1.000  H
  C22      1.0000 0.36890  0.00710  0.97620  Biso   1.000  C
  C23      1.0000 0.46100  0.93680  0.92080  Biso   1.000  C
  H29      1.0000 0.43510  0.89430  0.86750  Biso   1.000  H
  C24      1.0000 0.40780  0.07070  0.05540  Biso   1.000  C
  H30      1.0000 0.34620  0.11840  0.09260  Biso   1.000  H
