data_image0
_cell_length_a       10.39
_cell_length_b       11.803
_cell_length_c       11.934
_cell_angle_alpha    82.967
_cell_angle_beta     81.366
_cell_angle_gamma    87.884

_symmetry_space_group_name_H-M    "P 1"
_symmetry_int_tables_number       1

loop_
  _symmetry_equiv_pos_as_xyz
  'x, y, z'

loop_
  _atom_site_label
  _atom_site_occupancy
  _atom_site_fract_x
  _atom_site_fract_y
  _atom_site_fract_z
  _atom_site_thermal_displace_type
  _atom_site_B_iso_or_equiv
  _atom_site_type_symbol
  Eu1      1.0000 0.98046  0.23992  0.07532  Biso   1.000  Eu
  P1       1.0000 0.70541  0.27650  0.31429  Biso   1.000  P
  P2       1.0000 0.11627  0.50548  0.11598  Biso   1.000  P
  P3       1.0000 0.84736  0.96613  0.10555  Biso   1.000  P
  O1       1.0000 0.80040  0.25870  0.21110  Biso   1.000  O
  O2       1.0000 0.56660  0.24220  0.29960  Biso   1.000  O
  H1       1.0000 0.55340  0.17630  0.32870  Biso   1.000  H
  O3       1.0000 0.74410  0.21900  0.42500  Biso   1.000  O
  O4       1.0000 0.81990  0.46970  0.32810  Biso   1.000  O
  H2       1.0000 0.81730  0.53940  0.32630  Biso   1.000  H
  O5       1.0000 0.07830  0.62480  0.07250  Biso   1.000  O
  O6       1.0000 0.00950  0.42010  0.15140  Biso   1.000  O
  O7       1.0000 0.19420  0.51370  0.21870  Biso   1.000  O
  H3       1.0000 0.19850  0.45050  0.25530  Biso   1.000  H
  O8       1.0000 0.20270  0.32980  0.00910  Biso   1.000  O
  H4       1.0000 0.24340  0.31290  0.94590  Biso   1.000  H
  O9       1.0000 0.89560  0.85230  0.07010  Biso   1.000  O
  O10      1.0000 0.94530  0.04210  0.13830  Biso   1.000  O
  O11      1.0000 0.73390  0.94200  0.20820  Biso   1.000  O
  H5       1.0000 0.75700  0.95900  0.26670  Biso   1.000  H
  O12      1.0000 0.80070  0.16430  0.98860  Biso   1.000  O
  H6       1.0000 0.75920  0.21170  0.94710  Biso   1.000  H
  C1       1.0000 0.69530  0.43060  0.31850  Biso   1.000  C
  H7       1.0000 0.67150  0.46630  0.24570  Biso   1.000  H
  C2       1.0000 0.59430  0.46700  0.41340  Biso   1.000  C
  C3       1.0000 0.47280  0.50300  0.39020  Biso   1.000  C
  H8       1.0000 0.45390  0.50520  0.31620  Biso   1.000  H
  C4       1.0000 0.62190  0.46400  0.52480  Biso   1.000  C
  H9       1.0000 0.70380  0.43990  0.54180  Biso   1.000  H
  C5       1.0000 0.22700  0.44830  0.00030  Biso   1.000  C
  H10      1.0000 0.20260  0.48390  0.92770  Biso   1.000  H
  C6       1.0000 0.36910  0.47350  0.00020  Biso   1.000  C
  C7       1.0000 0.41480  0.58250  0.95860  Biso   1.000  C
  H11      1.0000 0.35840  0.63870  0.93140  Biso   1.000  H
  C8       1.0000 0.45400  0.39270  0.04200  Biso   1.000  C
  H12      1.0000 0.42390  0.32030  0.07130  Biso   1.000  H
  C9       1.0000 0.77490  0.04580  0.98720  Biso   1.000  C
  H13      1.0000 0.82050  0.02220  0.91550  Biso   1.000  H
  C10      1.0000 0.63160  0.02370  0.99280  Biso   1.000  C
  C11      1.0000 0.53930  0.07920  0.06410  Biso   1.000  C
  H14      1.0000 0.56520  0.13250  0.10720  Biso   1.000  H
  C12      1.0000 0.59120  0.94440  0.92860  Biso   1.000  C
  H15      1.0000 0.65260  0.90700  0.88030  Biso   1.000  H
  Eu2      1.0000 0.01954  0.76008  0.92468  Biso   1.000  Eu
  P4       1.0000 0.29459  0.72350  0.68571  Biso   1.000  P
  P5       1.0000 0.88373  0.49452  0.88402  Biso   1.000  P
  P6       1.0000 0.15264  0.03387  0.89445  Biso   1.000  P
  O13      1.0000 0.19960  0.74130  0.78890  Biso   1.000  O
  O14      1.0000 0.43340  0.75780  0.70040  Biso   1.000  O
  H16      1.0000 0.44660  0.82370  0.67130  Biso   1.000  H
  O15      1.0000 0.25590  0.78100  0.57500  Biso   1.000  O
  O16      1.0000 0.18010  0.53030  0.67190  Biso   1.000  O
  H17      1.0000 0.18270  0.46060  0.67370  Biso   1.000  H
  O17      1.0000 0.92170  0.37520  0.92750  Biso   1.000  O
  O18      1.0000 0.99050  0.57990  0.84860  Biso   1.000  O
  O19      1.0000 0.80580  0.48630  0.78130  Biso   1.000  O
  H18      1.0000 0.80150  0.54950  0.74470  Biso   1.000  H
  O20      1.0000 0.79730  0.67020  0.99090  Biso   1.000  O
  H19      1.0000 0.75660  0.68710  0.05410  Biso   1.000  H
  O21      1.0000 0.10440  0.14770  0.92990  Biso   1.000  O
  O22      1.0000 0.05470  0.95790  0.86170  Biso   1.000  O
  O23      1.0000 0.26610  0.05800  0.79180  Biso   1.000  O
  H20      1.0000 0.24300  0.04100  0.73330  Biso   1.000  H
  O24      1.0000 0.19930  0.83570  0.01140  Biso   1.000  O
  H21      1.0000 0.24080  0.78830  0.05290  Biso   1.000  H
  C13      1.0000 0.30470  0.56940  0.68150  Biso   1.000  C
  H22      1.0000 0.32850  0.53370  0.75430  Biso   1.000  H
  C14      1.0000 0.40570  0.53300  0.58660  Biso   1.000  C
  C15      1.0000 0.52720  0.49700  0.60980  Biso   1.000  C
  H23      1.0000 0.54610  0.49480  0.68380  Biso   1.000  H
  C16      1.0000 0.37810  0.53600  0.47520  Biso   1.000  C
  H24      1.0000 0.29620  0.56010  0.45820  Biso   1.000  H
  C17      1.0000 0.77300  0.55170  0.99970  Biso   1.000  C
  H25      1.0000 0.79740  0.51610  0.07230  Biso   1.000  H
  C18      1.0000 0.63090  0.52650  0.99980  Biso   1.000  C
  C19      1.0000 0.58520  0.41750  0.04140  Biso   1.000  C
  H26      1.0000 0.64160  0.36130  0.06860  Biso   1.000  H
  C20      1.0000 0.54600  0.60730  0.95800  Biso   1.000  C
  H27      1.0000 0.57610  0.67970  0.92870  Biso   1.000  H
  C21      1.0000 0.22510  0.95420  0.01280  Biso   1.000  C
  H28      1.0000 0.17950  0.97780  0.08450  Biso   1.000  H
  C22      1.0000 0.36840  0.97630  0.00720  Biso   1.000  C
  C23      1.0000 0.46070  0.92080  0.93590  Biso   1.000  C
  H29      1.0000 0.43480  0.86750  0.89280  Biso   1.000  H
  C24      1.0000 0.40880  0.05560  0.07140  Biso   1.000  C
  H30      1.0000 0.34740  0.09300  0.11970  Biso   1.000  H
