data_image0
_cell_length_a       10.35
_cell_length_b       11.94
_cell_length_c       12.75
_cell_angle_alpha    104.97
_cell_angle_beta     90.47
_cell_angle_gamma    93.06

_symmetry_space_group_name_H-M    "P 1"
_symmetry_int_tables_number       1

loop_
  _symmetry_equiv_pos_as_xyz
  'x, y, z'

loop_
  _atom_site_label
  _atom_site_occupancy
  _atom_site_fract_x
  _atom_site_fract_y
  _atom_site_fract_z
  _atom_site_thermal_displace_type
  _atom_site_B_iso_or_equiv
  _atom_site_type_symbol
  La1      1.0000 0.99934  0.72733  0.92058  Biso   1.000  La
  P1       1.0000 0.19960  0.64110  0.66880  Biso   1.000  P
  P2       1.0000 0.13480  0.45160  0.89890  Biso   1.000  P
  P3       1.0000 0.85750  0.99080  0.89450  Biso   1.000  P
  O1       1.0000 0.14930  0.71760  0.77370  Biso   1.000  O
  O2       1.0000 0.15130  0.68430  0.57230  Biso   1.000  O
  H1       1.0000 0.11370  0.74420  0.59510  Biso   1.000  H
  O3       1.0000 0.17190  0.51210  0.64690  Biso   1.000  O
  O4       1.0000 0.40970  0.78280  0.67170  Biso   1.000  O
  H2       1.0000 0.48880  0.79240  0.67330  Biso   1.000  H
  O5       1.0000 0.22710  0.41440  0.80060  Biso   1.000  O
  O6       1.0000 0.02860  0.51540  0.86880  Biso   1.000  O
  O7       1.0000 0.09200  0.33220  0.93460  Biso   1.000  O
  H3       1.0000 0.03930  0.29880  0.88320  Biso   1.000  H
  O8       1.0000 0.21020  0.66620  0.99790  Biso   1.000  O
  H4       1.0000 0.22170  0.71080  0.06140  Biso   1.000  H
  O9       1.0000 0.75710  0.98510  0.79980  Biso   1.000  O
  O10      1.0000 0.95500  0.90260  0.85400  Biso   1.000  O
  O11      1.0000 0.90390  0.12130  0.93490  Biso   1.000  O
  H5       1.0000 0.94470  0.13210  0.99230  Biso   1.000  H
  O12      1.0000 0.78800  0.82730  0.98980  Biso   1.000  O
  H6       1.0000 0.77370  0.81410  0.05110  Biso   1.000  H
  C1       1.0000 0.37410  0.66630  0.67480  Biso   1.000  C
  H7       1.0000 0.40580  0.65560  0.74400  Biso   1.000  H
  C2       1.0000 0.43890  0.57640  0.58070  Biso   1.000  C
  C3       1.0000 0.49970  0.48760  0.60380  Biso   1.000  C
  H8       1.0000 0.50170  0.47960  0.67440  Biso   1.000  H
  C4       1.0000 0.44200  0.58990  0.47680  Biso   1.000  C
  H9       1.0000 0.40410  0.65290  0.46150  Biso   1.000  H
  C5       1.0000 0.22960  0.55260  0.00740  Biso   1.000  C
  H10      1.0000 0.19470  0.54590  0.07690  Biso   1.000  H
  C6       1.0000 0.37130  0.52770  0.00660  Biso   1.000  C
  C7       1.0000 0.41590  0.44610  0.05700  Biso   1.000  C
  H11      1.0000 0.35930  0.40950  0.09550  Biso   1.000  H
  C8       1.0000 0.45820  0.57970  0.95040  Biso   1.000  C
  H12      1.0000 0.42970  0.63420  0.91630  Biso   1.000  H
  C9       1.0000 0.77040  0.94850  0.00270  Biso   1.000  C
  H13      1.0000 0.81030  0.99200  0.07230  Biso   1.000  H
  C10      1.0000 0.62850  0.97480  0.00310  Biso   1.000  C
  C11      1.0000 0.53910  0.89420  0.94060  Biso   1.000  C
  H14      1.0000 0.56520  0.82270  0.90040  Biso   1.000  H
  C12      1.0000 0.59100  0.07910  0.06200  Biso   1.000  C
  H15      1.0000 0.65150  0.13290  0.10400  Biso   1.000  H
  La2      1.0000 0.00066  0.27267  0.07942  Biso   1.000  La
  P4       1.0000 0.80040  0.35890  0.33120  Biso   1.000  P
  P5       1.0000 0.86520  0.54840  0.10110  Biso   1.000  P
  P6       1.0000 0.14250  0.00920  0.10550  Biso   1.000  P
  O13      1.0000 0.85070  0.28240  0.22630  Biso   1.000  O
  O14      1.0000 0.84870  0.31570  0.42770  Biso   1.000  O
  H16      1.0000 0.88630  0.25580  0.40490  Biso   1.000  H
  O15      1.0000 0.82810  0.48790  0.35310  Biso   1.000  O
  O16      1.0000 0.59030  0.21720  0.32830  Biso   1.000  O
  H17      1.0000 0.51120  0.20760  0.32670  Biso   1.000  H
  O17      1.0000 0.77290  0.58560  0.19940  Biso   1.000  O
  O18      1.0000 0.97140  0.48460  0.13120  Biso   1.000  O
  O19      1.0000 0.90800  0.66780  0.06540  Biso   1.000  O
  H18      1.0000 0.96070  0.70120  0.11680  Biso   1.000  H
  O20      1.0000 0.78980  0.33380  0.00210  Biso   1.000  O
  H19      1.0000 0.77830  0.28920  0.93860  Biso   1.000  H
  O21      1.0000 0.24290  0.01490  0.20020  Biso   1.000  O
  O22      1.0000 0.04500  0.09740  0.14600  Biso   1.000  O
  O23      1.0000 0.09610  0.87870  0.06510  Biso   1.000  O
  H20      1.0000 0.05530  0.86790  0.00770  Biso   1.000  H
  O24      1.0000 0.21200  0.17270  0.01020  Biso   1.000  O
  H21      1.0000 0.22630  0.18590  0.94890  Biso   1.000  H
  C13      1.0000 0.62590  0.33370  0.32520  Biso   1.000  C
  H22      1.0000 0.59420  0.34440  0.25600  Biso   1.000  H
  C14      1.0000 0.56110  0.42360  0.41930  Biso   1.000  C
  C15      1.0000 0.50030  0.51240  0.39620  Biso   1.000  C
  H23      1.0000 0.49830  0.52040  0.32560  Biso   1.000  H
  C16      1.0000 0.55800  0.41010  0.52320  Biso   1.000  C
  H24      1.0000 0.59590  0.34710  0.53850  Biso   1.000  H
  C17      1.0000 0.77040  0.44740  0.99260  Biso   1.000  C
  H25      1.0000 0.80530  0.45410  0.92310  Biso   1.000  H
  C18      1.0000 0.62870  0.47230  0.99340  Biso   1.000  C
  C19      1.0000 0.58410  0.55390  0.94300  Biso   1.000  C
  H26      1.0000 0.64070  0.59050  0.90450  Biso   1.000  H
  C20      1.0000 0.54180  0.42030  0.04960  Biso   1.000  C
  H27      1.0000 0.57030  0.36580  0.08370  Biso   1.000  H
  C21      1.0000 0.22960  0.05150  0.99730  Biso   1.000  C
  H28      1.0000 0.18970  0.00800  0.92770  Biso   1.000  H
  C22      1.0000 0.37150  0.02520  0.99690  Biso   1.000  C
  C23      1.0000 0.46090  0.10580  0.05940  Biso   1.000  C
  H29      1.0000 0.43480  0.17730  0.09960  Biso   1.000  H
  C24      1.0000 0.40900  0.92090  0.93800  Biso   1.000  C
  H30      1.0000 0.34850  0.86710  0.89600  Biso   1.000  H
