data_image0
_cell_length_a       9.992
_cell_length_b       11.644
_cell_length_c       12.231
_cell_angle_alpha    90
_cell_angle_beta     90
_cell_angle_gamma    90

_symmetry_space_group_name_H-M    "P 1"
_symmetry_int_tables_number       1

loop_
  _symmetry_equiv_pos_as_xyz
  'x, y, z'

loop_
  _atom_site_label
  _atom_site_occupancy
  _atom_site_fract_x
  _atom_site_fract_y
  _atom_site_fract_z
  _atom_site_thermal_displace_type
  _atom_site_B_iso_or_equiv
  _atom_site_type_symbol
  O1       1.0000 0.03080  0.27510  0.15210  Biso   1.000  O
  O2       1.0000 0.88000  0.12200  0.22230  Biso   1.000  O
  O3       1.0000 0.23850  0.01950  0.10030  Biso   1.000  O
  O4       1.0000 0.61200  0.11230  0.24160  Biso   1.000  O
  O5       1.0000 0.96920  0.72490  0.15210  Biso   1.000  O
  O6       1.0000 0.12000  0.87800  0.22230  Biso   1.000  O
  O7       1.0000 0.76150  0.98050  0.10030  Biso   1.000  O
  O8       1.0000 0.38800  0.88770  0.24160  Biso   1.000  O
  O9       1.0000 0.96920  0.27510  0.34790  Biso   1.000  O
  O10      1.0000 0.12000  0.12200  0.27770  Biso   1.000  O
  O11      1.0000 0.76150  0.01950  0.39970  Biso   1.000  O
  O12      1.0000 0.38800  0.11230  0.25840  Biso   1.000  O
  O13      1.0000 0.03080  0.72490  0.34790  Biso   1.000  O
  O14      1.0000 0.88000  0.87800  0.27770  Biso   1.000  O
  O15      1.0000 0.23850  0.98050  0.39970  Biso   1.000  O
  O16      1.0000 0.61200  0.88770  0.25840  Biso   1.000  O
  O17      1.0000 0.96920  0.72490  0.84790  Biso   1.000  O
  O18      1.0000 0.12000  0.87800  0.77770  Biso   1.000  O
  O19      1.0000 0.76150  0.98050  0.89970  Biso   1.000  O
  O20      1.0000 0.38800  0.88770  0.75840  Biso   1.000  O
  O21      1.0000 0.03080  0.27510  0.84790  Biso   1.000  O
  O22      1.0000 0.88000  0.12200  0.77770  Biso   1.000  O
  O23      1.0000 0.23850  0.01950  0.89970  Biso   1.000  O
  O24      1.0000 0.61200  0.11230  0.75840  Biso   1.000  O
  O25      1.0000 0.03080  0.72490  0.65210  Biso   1.000  O
  O26      1.0000 0.88000  0.87800  0.72230  Biso   1.000  O
  O27      1.0000 0.23850  0.98050  0.60030  Biso   1.000  O
  O28      1.0000 0.61200  0.88770  0.74160  Biso   1.000  O
  O29      1.0000 0.96920  0.27510  0.65210  Biso   1.000  O
  O30      1.0000 0.12000  0.12200  0.72230  Biso   1.000  O
  O31      1.0000 0.76150  0.01950  0.60030  Biso   1.000  O
  O32      1.0000 0.38800  0.11230  0.74160  Biso   1.000  O
  Al1      1.0000 0.04530  0.27510  0.00000  Biso   1.000  Al
  P1       1.0000 0.27420  0.08810  0.00000  Biso   1.000  P
  O33      1.0000 0.21250  0.20680  0.00000  Biso   1.000  O
  O34      1.0000 0.14660  0.42160  0.00000  Biso   1.000  O
  O35      1.0000 0.88760  0.38630  0.00000  Biso   1.000  O
  O36      1.0000 0.43130  0.10930  0.00000  Biso   1.000  O
  C1       1.0000 0.07490  0.51020  0.00000  Biso   1.000  C
  Al2      1.0000 0.95470  0.72490  0.00000  Biso   1.000  Al
  P2       1.0000 0.72580  0.91190  0.00000  Biso   1.000  P
  O37      1.0000 0.78750  0.79320  0.00000  Biso   1.000  O
  O38      1.0000 0.85340  0.57840  0.00000  Biso   1.000  O
  O39      1.0000 0.11240  0.61370  0.00000  Biso   1.000  O
  O40      1.0000 0.56870  0.89070  0.00000  Biso   1.000  O
  C2       1.0000 0.92510  0.48980  0.00000  Biso   1.000  C
  Al3      1.0000 0.95470  0.27510  0.50000  Biso   1.000  Al
  P3       1.0000 0.72580  0.08810  0.50000  Biso   1.000  P
  O41      1.0000 0.78750  0.20680  0.50000  Biso   1.000  O
  O42      1.0000 0.85340  0.42160  0.50000  Biso   1.000  O
  O43      1.0000 0.11240  0.38630  0.50000  Biso   1.000  O
  O44      1.0000 0.56870  0.10930  0.50000  Biso   1.000  O
  C3       1.0000 0.92510  0.51020  0.50000  Biso   1.000  C
  Al4      1.0000 0.04530  0.72490  0.50000  Biso   1.000  Al
  P4       1.0000 0.27420  0.91190  0.50000  Biso   1.000  P
  O45      1.0000 0.21250  0.79320  0.50000  Biso   1.000  O
  O46      1.0000 0.14660  0.57840  0.50000  Biso   1.000  O
  O47      1.0000 0.88760  0.61370  0.50000  Biso   1.000  O
  O48      1.0000 0.43130  0.89070  0.50000  Biso   1.000  O
  C4       1.0000 0.07490  0.48980  0.50000  Biso   1.000  C
  Al5      1.0000 0.76910  0.00000  0.25000  Biso   1.000  Al
  Al6      1.0000 0.23090  0.00000  0.25000  Biso   1.000  Al
  Al7      1.0000 0.23090  0.00000  0.75000  Biso   1.000  Al
  Al8      1.0000 0.76910  0.00000  0.75000  Biso   1.000  Al
  P5       1.0000 0.00000  0.19770  0.25000  Biso   1.000  P
  P6       1.0000 0.00000  0.80230  0.25000  Biso   1.000  P
  P7       1.0000 0.00000  0.80230  0.75000  Biso   1.000  P
  P8       1.0000 0.00000  0.19770  0.75000  Biso   1.000  P
  C5       1.0000 0.50000  0.06590  0.25000  Biso   1.000  C
  C6       1.0000 0.50000  0.93410  0.25000  Biso   1.000  C
  C7       1.0000 0.50000  0.93410  0.75000  Biso   1.000  C
  C8       1.0000 0.50000  0.06590  0.75000  Biso   1.000  C
