data_image0
_cell_length_a       15.356
_cell_length_b       15.356
_cell_length_c       12.617
_cell_angle_alpha    90
_cell_angle_beta     90
_cell_angle_gamma    120

_symmetry_space_group_name_H-M    "P 1"
_symmetry_int_tables_number       1

loop_
  _symmetry_equiv_pos_as_xyz
  'x, y, z'

loop_
  _atom_site_label
  _atom_site_occupancy
  _atom_site_fract_x
  _atom_site_fract_y
  _atom_site_fract_z
  _atom_site_thermal_displace_type
  _atom_site_B_iso_or_equiv
  _atom_site_type_symbol
  Zn1      1.0000 0.64760  0.68280  0.99320  Biso   1.000  Zn
  Zn2      1.0000 0.77170  0.93160  0.19440  Biso   1.000  Zn
  P1       1.0000 0.56530  0.73940  0.18130  Biso   1.000  P
  P2       1.0000 0.84390  0.77410  0.12990  Biso   1.000  P
  O1       1.0000 0.79300  0.75200  0.02200  Biso   1.000  O
  O2       1.0000 0.78300  0.69000  0.20800  Biso   1.000  O
  O3       1.0000 0.54700  0.65500  0.10100  Biso   1.000  O
  O4       1.0000 0.60800  0.72600  0.28700  Biso   1.000  O
  O5       1.0000 0.64000  0.84000  0.13400  Biso   1.000  O
  O6       1.0000 0.94600  0.78500  0.10900  Biso   1.000  O
  O7       1.0000 0.86000  0.87100  0.17700  Biso   1.000  O
  O8       1.0000 0.47000  0.74100  0.20600  Biso   1.000  O
  Zn3      1.0000 0.31427  0.01613  0.32653  Biso   1.000  Zn
  Zn4      1.0000 0.43837  0.26493  0.52773  Biso   1.000  Zn
  P3       1.0000 0.23197  0.07273  0.51463  Biso   1.000  P
  P4       1.0000 0.51057  0.10743  0.46323  Biso   1.000  P
  O9       1.0000 0.45967  0.08533  0.35533  Biso   1.000  O
  O10      1.0000 0.44967  0.02333  0.54133  Biso   1.000  O
  O11      1.0000 0.21367  0.98833  0.43433  Biso   1.000  O
  O12      1.0000 0.27467  0.05933  0.62033  Biso   1.000  O
  O13      1.0000 0.30667  0.17333  0.46733  Biso   1.000  O
  O14      1.0000 0.61267  0.11833  0.44233  Biso   1.000  O
  O15      1.0000 0.52667  0.20433  0.51033  Biso   1.000  O
  O16      1.0000 0.13667  0.07433  0.53933  Biso   1.000  O
  Zn5      1.0000 0.98093  0.34947  0.65987  Biso   1.000  Zn
  Zn6      1.0000 0.10503  0.59827  0.86107  Biso   1.000  Zn
  P5       1.0000 0.89863  0.40607  0.84797  Biso   1.000  P
  P6       1.0000 0.17723  0.44077  0.79657  Biso   1.000  P
  O17      1.0000 0.12633  0.41867  0.68867  Biso   1.000  O
  O18      1.0000 0.11633  0.35667  0.87467  Biso   1.000  O
  O19      1.0000 0.88033  0.32167  0.76767  Biso   1.000  O
  O20      1.0000 0.94133  0.39267  0.95367  Biso   1.000  O
  O21      1.0000 0.97333  0.50667  0.80067  Biso   1.000  O
  O22      1.0000 0.27933  0.45167  0.77567  Biso   1.000  O
  O23      1.0000 0.19333  0.53767  0.84367  Biso   1.000  O
  O24      1.0000 0.80333  0.40767  0.87267  Biso   1.000  O
  Zn7      1.0000 0.31720  0.96480  0.99320  Biso   1.000  Zn
  Zn8      1.0000 0.06840  0.84010  0.19440  Biso   1.000  Zn
  P7       1.0000 0.26060  0.82590  0.18130  Biso   1.000  P
  P8       1.0000 0.22590  0.06980  0.12990  Biso   1.000  P
  O25      1.0000 0.24800  0.04100  0.02200  Biso   1.000  O
  O26      1.0000 0.31000  0.09300  0.20800  Biso   1.000  O
  O27      1.0000 0.34500  0.89200  0.10100  Biso   1.000  O
  O28      1.0000 0.27400  0.88200  0.28700  Biso   1.000  O
  O29      1.0000 0.16000  0.80000  0.13400  Biso   1.000  O
  O30      1.0000 0.21500  0.16100  0.10900  Biso   1.000  O
  O31      1.0000 0.12900  0.98900  0.17700  Biso   1.000  O
  O32      1.0000 0.25900  0.72900  0.20600  Biso   1.000  O
  Zn9      1.0000 0.98387  0.29813  0.32653  Biso   1.000  Zn
  Zn10     1.0000 0.73507  0.17343  0.52773  Biso   1.000  Zn
  P9       1.0000 0.92727  0.15923  0.51463  Biso   1.000  P
  P10      1.0000 0.89257  0.40313  0.46323  Biso   1.000  P
  O33      1.0000 0.91467  0.37433  0.35533  Biso   1.000  O
  O34      1.0000 0.97667  0.42633  0.54133  Biso   1.000  O
  O35      1.0000 0.01167  0.22533  0.43433  Biso   1.000  O
  O36      1.0000 0.94067  0.21533  0.62033  Biso   1.000  O
  O37      1.0000 0.82667  0.13333  0.46733  Biso   1.000  O
  O38      1.0000 0.88167  0.49433  0.44233  Biso   1.000  O
  O39      1.0000 0.79567  0.32233  0.51033  Biso   1.000  O
  O40      1.0000 0.92567  0.06233  0.53933  Biso   1.000  O
  Zn11     1.0000 0.65053  0.63147  0.65987  Biso   1.000  Zn
  Zn12     1.0000 0.40173  0.50677  0.86107  Biso   1.000  Zn
  P11      1.0000 0.59393  0.49257  0.84797  Biso   1.000  P
  P12      1.0000 0.55923  0.73647  0.79657  Biso   1.000  P
  O41      1.0000 0.58133  0.70767  0.68867  Biso   1.000  O
  O42      1.0000 0.64333  0.75967  0.87467  Biso   1.000  O
  O43      1.0000 0.67833  0.55867  0.76767  Biso   1.000  O
  O44      1.0000 0.60733  0.54867  0.95367  Biso   1.000  O
  O45      1.0000 0.49333  0.46667  0.80067  Biso   1.000  O
  O46      1.0000 0.54833  0.82767  0.77567  Biso   1.000  O
  O47      1.0000 0.46233  0.65567  0.84367  Biso   1.000  O
  O48      1.0000 0.59233  0.39567  0.87267  Biso   1.000  O
  Zn13     1.0000 0.03520  0.35240  0.99320  Biso   1.000  Zn
  Zn14     1.0000 0.15990  0.22830  0.19440  Biso   1.000  Zn
  P13      1.0000 0.17410  0.43470  0.18130  Biso   1.000  P
  P14      1.0000 0.93020  0.15610  0.12990  Biso   1.000  P
  O49      1.0000 0.95900  0.20700  0.02200  Biso   1.000  O
  O50      1.0000 0.90700  0.21700  0.20800  Biso   1.000  O
  O51      1.0000 0.10800  0.45300  0.10100  Biso   1.000  O
  O52      1.0000 0.11800  0.39200  0.28700  Biso   1.000  O
  O53      1.0000 0.20000  0.36000  0.13400  Biso   1.000  O
  O54      1.0000 0.83900  0.05400  0.10900  Biso   1.000  O
  O55      1.0000 0.01100  0.14000  0.17700  Biso   1.000  O
  O56      1.0000 0.27100  0.53000  0.20600  Biso   1.000  O
  Zn15     1.0000 0.70187  0.68573  0.32653  Biso   1.000  Zn
  Zn16     1.0000 0.82657  0.56163  0.52773  Biso   1.000  Zn
  P15      1.0000 0.84077  0.76803  0.51463  Biso   1.000  P
  P16      1.0000 0.59687  0.48943  0.46323  Biso   1.000  P
  O57      1.0000 0.62567  0.54033  0.35533  Biso   1.000  O
  O58      1.0000 0.57367  0.55033  0.54133  Biso   1.000  O
  O59      1.0000 0.77467  0.78633  0.43433  Biso   1.000  O
  O60      1.0000 0.78467  0.72533  0.62033  Biso   1.000  O
  O61      1.0000 0.86667  0.69333  0.46733  Biso   1.000  O
  O62      1.0000 0.50567  0.38733  0.44233  Biso   1.000  O
  O63      1.0000 0.67767  0.47333  0.51033  Biso   1.000  O
  O64      1.0000 0.93767  0.86333  0.53933  Biso   1.000  O
  Zn17     1.0000 0.36853  0.01907  0.65987  Biso   1.000  Zn
  Zn18     1.0000 0.49323  0.89497  0.86107  Biso   1.000  Zn
  P17      1.0000 0.50743  0.10137  0.84797  Biso   1.000  P
  P18      1.0000 0.26353  0.82277  0.79657  Biso   1.000  P
  O65      1.0000 0.29233  0.87367  0.68867  Biso   1.000  O
  O66      1.0000 0.24033  0.88367  0.87467  Biso   1.000  O
  O67      1.0000 0.44133  0.11967  0.76767  Biso   1.000  O
  O68      1.0000 0.45133  0.05867  0.95367  Biso   1.000  O
  O69      1.0000 0.53333  0.02667  0.80067  Biso   1.000  O
  O70      1.0000 0.17233  0.72067  0.77567  Biso   1.000  O
  O71      1.0000 0.34433  0.80667  0.84367  Biso   1.000  O
  O72      1.0000 0.60433  0.19667  0.87267  Biso   1.000  O
  Zn19     1.0000 0.33333  0.66667  0.15210  Biso   1.000  Zn
  Zn20     1.0000 0.00000  0.00000  0.48543  Biso   1.000  Zn
  Zn21     1.0000 0.66667  0.33333  0.81877  Biso   1.000  Zn
