data_RAQVEM_clean
_audit_creation_date              2014-07-02
_audit_creation_method            'Materials Studio'
_symmetry_space_group_name_H-M    'P1'
_symmetry_Int_Tables_number       1
_symmetry_cell_setting            triclinic
loop_
_symmetry_equiv_pos_as_xyz
  x,y,z
_cell_length_a                    9.8100
_cell_length_b                    18.5710
_cell_length_c                    20.2309
_cell_angle_alpha                 80.7648
_cell_angle_beta                  75.9687
_cell_angle_gamma                 74.6852
loop_
_atom_site_label
_atom_site_type_symbol
_atom_site_fract_x
_atom_site_fract_y
_atom_site_fract_z
_atom_site_U_iso_or_equiv
_atom_site_adp_type
_atom_site_occupancy
Zn1    Zn    0.66214   0.59989   0.82101   0.01267  Uiso   1.00
Zn2    Zn    0.08304   0.90011   0.67899   0.01267  Uiso   1.00
Zn3    Zn    0.33786   0.40011   0.17899   0.01267  Uiso   1.00
Zn4    Zn    0.91696   0.09989   0.32101   0.01267  Uiso   1.00
Zn5    Zn    0.00889   0.75000   0.25000   0.01267  Uiso   1.00
Zn6    Zn    0.99111   0.25000   0.75000   0.01267  Uiso   1.00
H1     H     0.16660   0.23700   0.88820   0.01267  Uiso   1.00
H2     H     0.90060   0.54910   0.19930   0.01267  Uiso   1.00
H3     H     0.89270   0.42160   0.20740   0.01267  Uiso   1.00
H4     H     0.74140   0.47280   0.23600   0.01267  Uiso   1.00
H5     H     0.78710   0.36370   0.31310   0.01267  Uiso   1.00
H6     H     0.92980   0.38230   0.32010   0.01267  Uiso   1.00
H7     H     0.74760   0.41900   0.41420   0.01267  Uiso   1.00
H8     H     0.64900   0.46970   0.36570   0.01267  Uiso   1.00
H9     H     0.90900   0.49630   0.38310   0.01267  Uiso   1.00
H10    H     0.75410   0.54680   0.40700   0.01267  Uiso   1.00
H11    H     0.73110   0.58320   0.29460   0.01267  Uiso   1.00
H12    H     0.42640   0.55840   0.93660   0.01267  Uiso   1.00
H13    H     0.28320   0.47550   0.96750   0.01267  Uiso   1.00
H14    H     0.48710   0.38110   0.79510   0.01267  Uiso   1.00
H15    H     0.62960   0.46430   0.77090   0.01267  Uiso   1.00
H16    H     0.01850   0.18340   0.97660   0.01267  Uiso   1.00
H17    H     0.84280   0.14690   0.06350   0.01267  Uiso   1.00
H18    H     0.78250   0.32460   0.15360   0.01267  Uiso   1.00
H19    H     0.95770   0.36720   0.07120   0.01267  Uiso   1.00
H20    H     0.13480   0.65170   0.14030   0.01267  Uiso   1.00
H21    H     0.30430   0.63930   0.04070   0.01267  Uiso   1.00
H22    H     0.43800   0.81180   0.07840   0.01267  Uiso   1.00
H23    H     0.25810   0.82210   0.17570   0.01267  Uiso   1.00
H24    H     0.76210   0.85190   0.90670   0.01267  Uiso   1.00
H25    H     0.91910   0.91010   0.82890   0.01267  Uiso   1.00
H26    H     0.99530   0.75750   0.70390   0.01267  Uiso   1.00
H27    H     0.83600   0.69630   0.77910   0.01267  Uiso   1.00
H28    H     0.29180   0.26300   0.61180   0.01267  Uiso   1.00
H29    H     0.64900   0.95090   0.30070   0.01267  Uiso   1.00
H30    H     0.52170   0.07840   0.29260   0.01267  Uiso   1.00
H31    H     0.45020   0.02720   0.26400   0.01267  Uiso   1.00
H32    H     0.46390   0.13630   0.18690   0.01267  Uiso   1.00
H33    H     0.63220   0.11770   0.17990   0.01267  Uiso   1.00
H34    H     0.58080   0.08100   0.08580   0.01267  Uiso   1.00
H35    H     0.48440   0.03030   0.13430   0.01267  Uiso   1.00
H36    H     0.78840   0.00370   0.11690   0.01267  Uiso   1.00
H37    H     0.70790   0.95320   0.09300   0.01267  Uiso   1.00
H38    H     0.60890   0.91680   0.20540   0.01267  Uiso   1.00
H39    H     0.92140   0.94160   0.56340   0.01267  Uiso   1.00
H40    H     0.72620   0.02450   0.53250   0.01267  Uiso   1.00
H41    H     0.66330   0.11890   0.70490   0.01267  Uiso   1.00
H42    H     0.86480   0.03570   0.72910   0.01267  Uiso   1.00
H43    H     0.17850   0.31660   0.52340   0.01267  Uiso   1.00
H44    H     0.05320   0.35310   0.43650   0.01267  Uiso   1.00
H45    H     0.26070   0.17540   0.34640   0.01267  Uiso   1.00
H46    H     0.39610   0.13280   0.42880   0.01267  Uiso   1.00
H47    H     0.92680   0.84830   0.35970   0.01267  Uiso   1.00
H48    H     0.98430   0.86070   0.45930   0.01267  Uiso   1.00
H49    H     0.32820   0.68820   0.42160   0.01267  Uiso   1.00
H50    H     0.25590   0.67790   0.32430   0.01267  Uiso   1.00
H51    H     0.52070   0.64810   0.59330   0.01267  Uiso   1.00
H52    H     0.65810   0.58990   0.67110   0.01267  Uiso   1.00
H53    H     0.45670   0.74250   0.79610   0.01267  Uiso   1.00
H54    H     0.31140   0.80370   0.72090   0.01267  Uiso   1.00
H55    H     0.83340   0.76300   0.11180   0.01267  Uiso   1.00
H56    H     0.09940   0.45090   0.80070   0.01267  Uiso   1.00
H57    H     0.10730   0.57840   0.79260   0.01267  Uiso   1.00
H58    H     0.25860   0.52720   0.76400   0.01267  Uiso   1.00
H59    H     0.21290   0.63630   0.68690   0.01267  Uiso   1.00
H60    H     0.07020   0.61770   0.67990   0.01267  Uiso   1.00
H61    H     0.25240   0.58100   0.58580   0.01267  Uiso   1.00
H62    H     0.35100   0.53030   0.63430   0.01267  Uiso   1.00
H63    H     0.09100   0.50370   0.61690   0.01267  Uiso   1.00
H64    H     0.24590   0.45320   0.59300   0.01267  Uiso   1.00
H65    H     0.26890   0.41680   0.70540   0.01267  Uiso   1.00
H66    H     0.57360   0.44160   0.06340   0.01267  Uiso   1.00
H67    H     0.71680   0.52450   0.03250   0.01267  Uiso   1.00
H68    H     0.51290   0.61890   0.20490   0.01267  Uiso   1.00
H69    H     0.37040   0.53570   0.22910   0.01267  Uiso   1.00
H70    H     0.98150   0.81660   0.02340   0.01267  Uiso   1.00
H71    H     0.15720   0.85310   0.93650   0.01267  Uiso   1.00
H72    H     0.21750   0.67540   0.84640   0.01267  Uiso   1.00
H73    H     0.04230   0.63280   0.92880   0.01267  Uiso   1.00
H74    H     0.86520   0.34830   0.85970   0.01267  Uiso   1.00
H75    H     0.69570   0.36070   0.95930   0.01267  Uiso   1.00
H76    H     0.56200   0.18820   0.92160   0.01267  Uiso   1.00
H77    H     0.74190   0.17790   0.82430   0.01267  Uiso   1.00
H78    H     0.23790   0.14810   0.09330   0.01267  Uiso   1.00
H79    H     0.08090   0.08990   0.17110   0.01267  Uiso   1.00
H80    H     0.00470   0.24250   0.29610   0.01267  Uiso   1.00
H81    H     0.16400   0.30370   0.22090   0.01267  Uiso   1.00
H82    H     0.70820   0.73700   0.38820   0.01267  Uiso   1.00
H83    H     0.35100   0.04910   0.69930   0.01267  Uiso   1.00
H84    H     0.47830   0.92160   0.70740   0.01267  Uiso   1.00
H85    H     0.54980   0.97280   0.73600   0.01267  Uiso   1.00
H86    H     0.53610   0.86370   0.81310   0.01267  Uiso   1.00
H87    H     0.36780   0.88230   0.82010   0.01267  Uiso   1.00
H88    H     0.41920   0.91900   0.91420   0.01267  Uiso   1.00
H89    H     0.51560   0.96970   0.86570   0.01267  Uiso   1.00
H90    H     0.21160   0.99630   0.88310   0.01267  Uiso   1.00
H91    H     0.29210   0.04680   0.90700   0.01267  Uiso   1.00
H92    H     0.39110   0.08320   0.79460   0.01267  Uiso   1.00
H93    H     0.07860   0.05840   0.43660   0.01267  Uiso   1.00
H94    H     0.27380   0.97550   0.46750   0.01267  Uiso   1.00
H95    H     0.33670   0.88110   0.29510   0.01267  Uiso   1.00
H96    H     0.13520   0.96430   0.27090   0.01267  Uiso   1.00
H97    H     0.82150   0.68340   0.47660   0.01267  Uiso   1.00
H98    H     0.94680   0.64690   0.56350   0.01267  Uiso   1.00
H99    H     0.73930   0.82460   0.65360   0.01267  Uiso   1.00
H100   H     0.60390   0.86720   0.57120   0.01267  Uiso   1.00
H101   H     0.07320   0.15170   0.64030   0.01267  Uiso   1.00
H102   H     0.01570   0.13930   0.54070   0.01267  Uiso   1.00
H103   H     0.67180   0.31180   0.57840   0.01267  Uiso   1.00
H104   H     0.74410   0.32210   0.67570   0.01267  Uiso   1.00
H105   H     0.47930   0.35190   0.40670   0.01267  Uiso   1.00
H106   H     0.34190   0.41010   0.32890   0.01267  Uiso   1.00
H107   H     0.54330   0.25750   0.20390   0.01267  Uiso   1.00
H108   H     0.68860   0.19630   0.27910   0.01267  Uiso   1.00
C1     C     0.06930   0.48690   0.24110   0.01267  Uiso   1.00
C2     C     0.91000   0.51660   0.24200   0.01267  Uiso   1.00
C3     C     0.83850   0.45260   0.24380   0.01267  Uiso   1.00
C4     C     0.83240   0.40420   0.31320   0.01267  Uiso   1.00
C5     C     0.74820   0.45050   0.37090   0.01267  Uiso   1.00
C6     C     0.81460   0.51560   0.37180   0.01267  Uiso   1.00
C7     C     0.83010   0.56390   0.30190   0.01267  Uiso   1.00
C8     C     0.88240   0.63150   0.30230   0.01267  Uiso   1.00
C9     C     0.43830   0.52200   0.90780   0.01267  Uiso   1.00
C10    C     0.35160   0.47240   0.92660   0.01267  Uiso   1.00
C11    C     0.36560   0.41740   0.88460   0.01267  Uiso   1.00
C12    C     0.47280   0.41660   0.82520   0.01267  Uiso   1.00
C13    C     0.55700   0.46720   0.81040   0.01267  Uiso   1.00
C14    C     0.27550   0.36410   0.90410   0.01267  Uiso   1.00
C15    C     0.12130   0.30690   0.96010   0.01267  Uiso   1.00
C16    C     0.00810   0.28020   0.01420   0.01267  Uiso   1.00
C17    C     0.97270   0.21300   0.01220   0.01267  Uiso   1.00
C18    C     0.86660   0.19180   0.06500   0.01267  Uiso   1.00
C19    C     0.83150   0.29550   0.11790   0.01267  Uiso   1.00
C20    C     0.93620   0.32220   0.06820   0.01267  Uiso   1.00
C21    C     0.19540   0.68480   0.12740   0.01267  Uiso   1.00
C22    C     0.29730   0.67690   0.06750   0.01267  Uiso   1.00
C23    C     0.38940   0.72500   0.04680   0.01267  Uiso   1.00
C24    C     0.37610   0.77940   0.08940   0.01267  Uiso   1.00
C25    C     0.26860   0.78440   0.14840   0.01267  Uiso   1.00
C26    C     0.50020   0.71850   0.98290   0.01267  Uiso   1.00
C27    C     0.66610   0.73480   0.89920   0.01267  Uiso   1.00
C28    C     0.77610   0.76810   0.85150   0.01267  Uiso   1.00
C29    C     0.80680   0.83210   0.86530   0.01267  Uiso   1.00
C30    C     0.90220   0.86670   0.81850   0.01267  Uiso   1.00
C31    C     0.94680   0.77730   0.74490   0.01267  Uiso   1.00
C32    C     0.85050   0.74010   0.79010   0.01267  Uiso   1.00
C33    C     0.79730   0.01310   0.25890   0.01267  Uiso   1.00
C34    C     0.66860   0.98340   0.25800   0.01267  Uiso   1.00
C35    C     0.53490   0.04740   0.25620   0.01267  Uiso   1.00
C36    C     0.54980   0.09580   0.18680   0.01267  Uiso   1.00
C37    C     0.56960   0.04950   0.12910   0.01267  Uiso   1.00
C38    C     0.70200   0.98440   0.12820   0.01267  Uiso   1.00
C39    C     0.69590   0.93610   0.19810   0.01267  Uiso   1.00
C40    C     0.81620   0.86850   0.19770   0.01267  Uiso   1.00
C41    C     0.86810   0.97800   0.59220   0.01267  Uiso   1.00
C42    C     0.75060   0.02760   0.57340   0.01267  Uiso   1.00
C43    C     0.66760   0.08260   0.61540   0.01267  Uiso   1.00
C44    C     0.71460   0.08340   0.67480   0.01267  Uiso   1.00
C45    C     0.83460   0.03280   0.68960   0.01267  Uiso   1.00
C46    C     0.54370   0.13590   0.59590   0.01267  Uiso   1.00
C47    C     0.38830   0.19310   0.53990   0.01267  Uiso   1.00
C48    C     0.30250   0.21980   0.48580   0.01267  Uiso   1.00
C49    C     0.19790   0.28700   0.48780   0.01267  Uiso   1.00
C50    C     0.12340   0.30820   0.43500   0.01267  Uiso   1.00
C51    C     0.24490   0.20450   0.38210   0.01267  Uiso   1.00
C52    C     0.32660   0.17780   0.43180   0.01267  Uiso   1.00
C53    C     0.00760   0.81520   0.37260   0.01267  Uiso   1.00
C54    C     0.04170   0.82310   0.43250   0.01267  Uiso   1.00
C55    C     0.16120   0.77500   0.45320   0.01267  Uiso   1.00
C56    C     0.24490   0.72060   0.41060   0.01267  Uiso   1.00
C57    C     0.20140   0.71560   0.35160   0.01267  Uiso   1.00
C58    C     0.20160   0.78150   0.51710   0.01267  Uiso   1.00
C59    C     0.30010   0.76520   0.60080   0.01267  Uiso   1.00
C60    C     0.39570   0.73190   0.64850   0.01267  Uiso   1.00
C61    C     0.50420   0.66790   0.63470   0.01267  Uiso   1.00
C62    C     0.58740   0.63330   0.68150   0.01267  Uiso   1.00
C63    C     0.46900   0.72270   0.75510   0.01267  Uiso   1.00
C64    C     0.38070   0.75990   0.70990   0.01267  Uiso   1.00
C65    C     0.93070   0.51310   0.75890   0.01267  Uiso   1.00
C66    C     0.09000   0.48340   0.75800   0.01267  Uiso   1.00
C67    C     0.16150   0.54740   0.75620   0.01267  Uiso   1.00
C68    C     0.16760   0.59580   0.68680   0.01267  Uiso   1.00
C69    C     0.25180   0.54950   0.62910   0.01267  Uiso   1.00
C70    C     0.18540   0.48440   0.62820   0.01267  Uiso   1.00
C71    C     0.16990   0.43610   0.69810   0.01267  Uiso   1.00
C72    C     0.11760   0.36850   0.69770   0.01267  Uiso   1.00
C73    C     0.56170   0.47800   0.09220   0.01267  Uiso   1.00
C74    C     0.64840   0.52760   0.07340   0.01267  Uiso   1.00
C75    C     0.63440   0.58260   0.11540   0.01267  Uiso   1.00
C76    C     0.52720   0.58340   0.17480   0.01267  Uiso   1.00
C77    C     0.44300   0.53280   0.18960   0.01267  Uiso   1.00
C78    C     0.72450   0.63590   0.09590   0.01267  Uiso   1.00
C79    C     0.87870   0.69310   0.03990   0.01267  Uiso   1.00
C80    C     0.99190   0.71980   0.98580   0.01267  Uiso   1.00
C81    C     0.02730   0.78700   0.98780   0.01267  Uiso   1.00
C82    C     0.13340   0.80820   0.93500   0.01267  Uiso   1.00
C83    C     0.16850   0.70450   0.88210   0.01267  Uiso   1.00
C84    C     0.06380   0.67780   0.93180   0.01267  Uiso   1.00
C85    C     0.80460   0.31520   0.87260   0.01267  Uiso   1.00
C86    C     0.70270   0.32310   0.93250   0.01267  Uiso   1.00
C87    C     0.61060   0.27500   0.95320   0.01267  Uiso   1.00
C88    C     0.62390   0.22060   0.91060   0.01267  Uiso   1.00
C89    C     0.73140   0.21560   0.85160   0.01267  Uiso   1.00
C90    C     0.49980   0.28150   0.01710   0.01267  Uiso   1.00
C91    C     0.33390   0.26520   0.10080   0.01267  Uiso   1.00
C92    C     0.22390   0.23190   0.14850   0.01267  Uiso   1.00
C93    C     0.19320   0.16790   0.13470   0.01267  Uiso   1.00
C94    C     0.09780   0.13330   0.18150   0.01267  Uiso   1.00
C95    C     0.05320   0.22270   0.25510   0.01267  Uiso   1.00
C96    C     0.14950   0.25990   0.20990   0.01267  Uiso   1.00
C97    C     0.20270   0.98690   0.74110   0.01267  Uiso   1.00
C98    C     0.33140   0.01660   0.74200   0.01267  Uiso   1.00
C99    C     0.46510   0.95260   0.74380   0.01267  Uiso   1.00
C100   C     0.45020   0.90420   0.81320   0.01267  Uiso   1.00
C101   C     0.43040   0.95050   0.87090   0.01267  Uiso   1.00
C102   C     0.29800   0.01560   0.87180   0.01267  Uiso   1.00
C103   C     0.30410   0.06390   0.80190   0.01267  Uiso   1.00
C104   C     0.18380   0.13150   0.80230   0.01267  Uiso   1.00
C105   C     0.13190   0.02200   0.40780   0.01267  Uiso   1.00
C106   C     0.24940   0.97240   0.42660   0.01267  Uiso   1.00
C107   C     0.33240   0.91740   0.38460   0.01267  Uiso   1.00
C108   C     0.28540   0.91660   0.32520   0.01267  Uiso   1.00
C109   C     0.16540   0.96720   0.31040   0.01267  Uiso   1.00
C110   C     0.45630   0.86410   0.40410   0.01267  Uiso   1.00
C111   C     0.61170   0.80690   0.46010   0.01267  Uiso   1.00
C112   C     0.69750   0.78020   0.51420   0.01267  Uiso   1.00
C113   C     0.80210   0.71300   0.51220   0.01267  Uiso   1.00
C114   C     0.87660   0.69180   0.56500   0.01267  Uiso   1.00
C115   C     0.75510   0.79550   0.61790   0.01267  Uiso   1.00
C116   C     0.67340   0.82220   0.56820   0.01267  Uiso   1.00
C117   C     0.99240   0.18480   0.62740   0.01267  Uiso   1.00
C118   C     0.95830   0.17690   0.56750   0.01267  Uiso   1.00
C119   C     0.83880   0.22500   0.54680   0.01267  Uiso   1.00
C120   C     0.75510   0.27940   0.58940   0.01267  Uiso   1.00
C121   C     0.79860   0.28440   0.64840   0.01267  Uiso   1.00
C122   C     0.79840   0.21850   0.48290   0.01267  Uiso   1.00
C123   C     0.69990   0.23480   0.39920   0.01267  Uiso   1.00
C124   C     0.60430   0.26810   0.35150   0.01267  Uiso   1.00
C125   C     0.49580   0.33210   0.36530   0.01267  Uiso   1.00
C126   C     0.41260   0.36670   0.31850   0.01267  Uiso   1.00
C127   C     0.53100   0.27730   0.24490   0.01267  Uiso   1.00
C128   C     0.61930   0.24010   0.29010   0.01267  Uiso   1.00
N1     N     0.53880   0.52080   0.85060   0.01267  Uiso   1.00
N2     N     0.17220   0.36510   0.96290   0.01267  Uiso   1.00
N3     N     0.18830   0.27370   0.90390   0.01267  Uiso   1.00
N4     N     0.28820   0.30980   0.86660   0.01267  Uiso   1.00
N5     N     0.79640   0.23100   0.11780   0.01267  Uiso   1.00
N6     N     0.17920   0.73810   0.16850   0.01267  Uiso   1.00
N7     N     0.59010   0.76440   0.95780   0.01267  Uiso   1.00
N8     N     0.51470   0.66270   0.94470   0.01267  Uiso   1.00
N9     N     0.62370   0.67440   0.88940   0.01267  Uiso   1.00
N10    N     0.97300   0.84010   0.75790   0.01267  Uiso   1.00
N11    N     0.91020   0.97920   0.64940   0.01267  Uiso   1.00
N12    N     0.50020   0.13490   0.53710   0.01267  Uiso   1.00
N13    N     0.36590   0.22630   0.59610   0.01267  Uiso   1.00
N14    N     0.46460   0.19020   0.63340   0.01267  Uiso   1.00
N15    N     0.14520   0.26900   0.38220   0.01267  Uiso   1.00
N16    N     0.08580   0.76190   0.33150   0.01267  Uiso   1.00
N17    N     0.31230   0.73560   0.54220   0.01267  Uiso   1.00
N18    N     0.12210   0.83730   0.55530   0.01267  Uiso   1.00
N19    N     0.18750   0.82560   0.61060   0.01267  Uiso   1.00
N20    N     0.57100   0.65990   0.74210   0.01267  Uiso   1.00
N21    N     0.46120   0.47920   0.14940   0.01267  Uiso   1.00
N22    N     0.82780   0.63490   0.03710   0.01267  Uiso   1.00
N23    N     0.81170   0.72630   0.09610   0.01267  Uiso   1.00
N24    N     0.71180   0.69020   0.13340   0.01267  Uiso   1.00
N25    N     0.20360   0.76900   0.88220   0.01267  Uiso   1.00
N26    N     0.82080   0.26190   0.83150   0.01267  Uiso   1.00
N27    N     0.40990   0.23560   0.04220   0.01267  Uiso   1.00
N28    N     0.48530   0.33730   0.05530   0.01267  Uiso   1.00
N29    N     0.37630   0.32560   0.11060   0.01267  Uiso   1.00
N30    N     0.02700   0.15990   0.24210   0.01267  Uiso   1.00
N31    N     0.08980   0.02080   0.35060   0.01267  Uiso   1.00
N32    N     0.49980   0.86510   0.46290   0.01267  Uiso   1.00
N33    N     0.63410   0.77370   0.40390   0.01267  Uiso   1.00
N34    N     0.53540   0.80980   0.36660   0.01267  Uiso   1.00
N35    N     0.85480   0.73100   0.61780   0.01267  Uiso   1.00
N36    N     0.91420   0.23810   0.66850   0.01267  Uiso   1.00
N37    N     0.68770   0.26440   0.45780   0.01267  Uiso   1.00
N38    N     0.87790   0.16270   0.44470   0.01267  Uiso   1.00
N39    N     0.81250   0.17440   0.38940   0.01267  Uiso   1.00
N40    N     0.42900   0.34010   0.25790   0.01267  Uiso   1.00
O1     O     0.13640   0.44780   0.19060   0.01267  Uiso   1.00
O2     O     0.13120   0.49730   0.28250   0.01267  Uiso   1.00
O3     O     0.95083   0.65884   0.24490   0.01267  Uiso   1.00
O4     O     0.85930   0.66230   0.35570   0.01267  Uiso   1.00
O5     O     0.77480   0.05220   0.30940   0.01267  Uiso   1.00
O6     O     0.91100   0.00270   0.21750   0.01267  Uiso   1.00
O7     O     0.85457   0.84116   0.25510   0.01267  Uiso   1.00
O8     O     0.87730   0.83770   0.14430   0.01267  Uiso   1.00
O9     O     0.86360   0.55220   0.80940   0.01267  Uiso   1.00
O10    O     0.86880   0.50270   0.71750   0.01267  Uiso   1.00
O11    O     0.04917   0.34116   0.75510   0.01267  Uiso   1.00
O12    O     0.14070   0.33770   0.64430   0.01267  Uiso   1.00
O13    O     0.22520   0.94780   0.69060   0.01267  Uiso   1.00
O14    O     0.08900   0.99730   0.78250   0.01267  Uiso   1.00
O15    O     0.14543   0.15884   0.74490   0.01267  Uiso   1.00
O16    O     0.12270   0.16230   0.85570   0.01267  Uiso   1.00
