data_image0
_cell_length_a       14.154
_cell_length_b       16.2511
_cell_length_c       19.1495
_cell_angle_alpha    90
_cell_angle_beta     90
_cell_angle_gamma    90

_symmetry_space_group_name_H-M    "P 1"
_symmetry_int_tables_number       1

loop_
  _symmetry_equiv_pos_as_xyz
  'x, y, z'

loop_
  _atom_site_label
  _atom_site_occupancy
  _atom_site_fract_x
  _atom_site_fract_y
  _atom_site_fract_z
  _atom_site_thermal_displace_type
  _atom_site_B_iso_or_equiv
  _atom_site_type_symbol
  Mg1      1.0000 0.52244  0.20883  0.45571  Biso   1.000  Mg
  Mg2      1.0000 0.31033  0.24077  0.56445  Biso   1.000  Mg
  O1       1.0000 0.41687  0.29808  0.47764  Biso   1.000  O
  O2       1.0000 0.37632  0.72795  0.48848  Biso   1.000  O
  O3       1.0000 0.55810  0.26133  0.36353  Biso   1.000  O
  O4       1.0000 0.48032  0.34735  0.04580  Biso   1.000  O
  O5       1.0000 0.24223  0.65897  0.49812  Biso   1.000  O
  O6       1.0000 0.30585  0.35986  0.53605  Biso   1.000  O
  O7       1.0000 0.41234  0.28004  0.13126  Biso   1.000  O
  O8       1.0000 0.71388  0.26567  0.36504  Biso   1.000  O
  C1       1.0000 0.32851  0.66432  0.48080  Biso   1.000  C
  C2       1.0000 0.37347  0.58916  0.45136  Biso   1.000  C
  C3       1.0000 0.34965  0.51289  0.47910  Biso   1.000  C
  H1       1.0000 0.30300  0.50950  0.51310  Biso   1.000  H
  C4       1.0000 0.39448  0.44202  0.45675  Biso   1.000  C
  C5       1.0000 0.46088  0.44701  0.40416  Biso   1.000  C
  H2       1.0000 0.49070  0.39950  0.38840  Biso   1.000  H
  C6       1.0000 0.48320  0.52204  0.37491  Biso   1.000  C
  H3       1.0000 0.52640  0.52480  0.33840  Biso   1.000  H
  C7       1.0000 0.44153  0.59321  0.39957  Biso   1.000  C
  H4       1.0000 0.45930  0.64400  0.38130  Biso   1.000  H
  C8       1.0000 0.63562  0.27793  0.33674  Biso   1.000  C
  C9       1.0000 0.55958  0.30679  0.22189  Biso   1.000  C
  H5       1.0000 0.50530  0.28110  0.23840  Biso   1.000  H
  C10      1.0000 0.63692  0.31429  0.26511  Biso   1.000  C
  C11      1.0000 0.71650  0.35400  0.24013  Biso   1.000  C
  H6       1.0000 0.76990  0.35780  0.26820  Biso   1.000  H
  C12      1.0000 0.47952  0.32084  0.10711  Biso   1.000  C
  C13      1.0000 0.56121  0.33673  0.15445  Biso   1.000  C
  C14      1.0000 0.64030  0.37860  0.13105  Biso   1.000  C
  H7       1.0000 0.64130  0.40050  0.08620  Biso   1.000  H
  C15      1.0000 0.37196  0.36227  0.49132  Biso   1.000  C
  C16      1.0000 0.71750  0.38780  0.17427  Biso   1.000  C
  H8       1.0000 0.77020  0.41680  0.15890  Biso   1.000  H
  Mg3      1.0000 0.97756  0.79117  0.95571  Biso   1.000  Mg
  Mg4      1.0000 0.18967  0.75923  0.06445  Biso   1.000  Mg
  O9       1.0000 0.08313  0.70192  0.97764  Biso   1.000  O
  O10      1.0000 0.12368  0.27205  0.98848  Biso   1.000  O
  O11      1.0000 0.94190  0.73867  0.86353  Biso   1.000  O
  O12      1.0000 0.01968  0.65265  0.54580  Biso   1.000  O
  O13      1.0000 0.25777  0.34103  0.99812  Biso   1.000  O
  O14      1.0000 0.19415  0.64014  0.03605  Biso   1.000  O
  O15      1.0000 0.08766  0.71996  0.63126  Biso   1.000  O
  O16      1.0000 0.78612  0.73433  0.86504  Biso   1.000  O
  C17      1.0000 0.17149  0.33568  0.98080  Biso   1.000  C
  C18      1.0000 0.12653  0.41084  0.95136  Biso   1.000  C
  C19      1.0000 0.15035  0.48711  0.97910  Biso   1.000  C
  H9       1.0000 0.19700  0.49050  0.01310  Biso   1.000  H
  C20      1.0000 0.10552  0.55798  0.95675  Biso   1.000  C
  C21      1.0000 0.03912  0.55299  0.90416  Biso   1.000  C
  H10      1.0000 0.00930  0.60050  0.88840  Biso   1.000  H
  C22      1.0000 0.01680  0.47796  0.87491  Biso   1.000  C
  H11      1.0000 0.97360  0.47520  0.83840  Biso   1.000  H
  C23      1.0000 0.05847  0.40679  0.89957  Biso   1.000  C
  H12      1.0000 0.04070  0.35600  0.88130  Biso   1.000  H
  C24      1.0000 0.86438  0.72207  0.83674  Biso   1.000  C
  C25      1.0000 0.94042  0.69321  0.72189  Biso   1.000  C
  H13      1.0000 0.99470  0.71890  0.73840  Biso   1.000  H
  C26      1.0000 0.86308  0.68571  0.76511  Biso   1.000  C
  C27      1.0000 0.78350  0.64600  0.74013  Biso   1.000  C
  H14      1.0000 0.73010  0.64220  0.76820  Biso   1.000  H
  C28      1.0000 0.02048  0.67916  0.60711  Biso   1.000  C
  C29      1.0000 0.93879  0.66327  0.65445  Biso   1.000  C
  C30      1.0000 0.85970  0.62140  0.63105  Biso   1.000  C
  H15      1.0000 0.85870  0.59950  0.58620  Biso   1.000  H
  C31      1.0000 0.12804  0.63773  0.99132  Biso   1.000  C
  C32      1.0000 0.78250  0.61220  0.67427  Biso   1.000  C
  H16      1.0000 0.72980  0.58320  0.65890  Biso   1.000  H
  Mg5      1.0000 0.47756  0.70883  0.04429  Biso   1.000  Mg
  Mg6      1.0000 0.68967  0.74077  0.93555  Biso   1.000  Mg
  O17      1.0000 0.58313  0.79808  0.02236  Biso   1.000  O
  O18      1.0000 0.62368  0.22795  0.01152  Biso   1.000  O
  O19      1.0000 0.44190  0.76133  0.13647  Biso   1.000  O
  O20      1.0000 0.51968  0.84735  0.45420  Biso   1.000  O
  O21      1.0000 0.75777  0.15897  0.00188  Biso   1.000  O
  O22      1.0000 0.69415  0.85986  0.96395  Biso   1.000  O
  O23      1.0000 0.58766  0.78004  0.36874  Biso   1.000  O
  O24      1.0000 0.28612  0.76567  0.13496  Biso   1.000  O
  C33      1.0000 0.67149  0.16432  0.01920  Biso   1.000  C
  C34      1.0000 0.62653  0.08916  0.04864  Biso   1.000  C
  C35      1.0000 0.65035  0.01289  0.02090  Biso   1.000  C
  H17      1.0000 0.69700  0.00950  0.98690  Biso   1.000  H
  C36      1.0000 0.60552  0.94202  0.04325  Biso   1.000  C
  C37      1.0000 0.53912  0.94701  0.09584  Biso   1.000  C
  H18      1.0000 0.50930  0.89950  0.11160  Biso   1.000  H
  C38      1.0000 0.51680  0.02204  0.12509  Biso   1.000  C
  H19      1.0000 0.47360  0.02480  0.16160  Biso   1.000  H
  C39      1.0000 0.55847  0.09321  0.10043  Biso   1.000  C
  H20      1.0000 0.54070  0.14400  0.11870  Biso   1.000  H
  C40      1.0000 0.36438  0.77793  0.16326  Biso   1.000  C
  C41      1.0000 0.44042  0.80679  0.27811  Biso   1.000  C
  H21      1.0000 0.49470  0.78110  0.26160  Biso   1.000  H
  C42      1.0000 0.36308  0.81429  0.23489  Biso   1.000  C
  C43      1.0000 0.28350  0.85400  0.25987  Biso   1.000  C
  H22      1.0000 0.23010  0.85780  0.23180  Biso   1.000  H
  C44      1.0000 0.52048  0.82084  0.39289  Biso   1.000  C
  C45      1.0000 0.43879  0.83673  0.34555  Biso   1.000  C
  C46      1.0000 0.35970  0.87860  0.36895  Biso   1.000  C
  H23      1.0000 0.35870  0.90050  0.41380  Biso   1.000  H
  C47      1.0000 0.62804  0.86227  0.00868  Biso   1.000  C
  C48      1.0000 0.28250  0.88780  0.32573  Biso   1.000  C
  H24      1.0000 0.22980  0.91680  0.34110  Biso   1.000  H
  Mg7      1.0000 0.02244  0.29117  0.54429  Biso   1.000  Mg
  Mg8      1.0000 0.81033  0.25923  0.43555  Biso   1.000  Mg
  O25      1.0000 0.91687  0.20192  0.52236  Biso   1.000  O
  O26      1.0000 0.87632  0.77205  0.51152  Biso   1.000  O
  O27      1.0000 0.05810  0.23867  0.63647  Biso   1.000  O
  O28      1.0000 0.98032  0.15265  0.95420  Biso   1.000  O
  O29      1.0000 0.74223  0.84103  0.50188  Biso   1.000  O
  O30      1.0000 0.80585  0.14014  0.46395  Biso   1.000  O
  O31      1.0000 0.91234  0.21996  0.86874  Biso   1.000  O
  O32      1.0000 0.21388  0.23433  0.63496  Biso   1.000  O
  C49      1.0000 0.82851  0.83568  0.51920  Biso   1.000  C
  C50      1.0000 0.87347  0.91084  0.54864  Biso   1.000  C
  C51      1.0000 0.84965  0.98711  0.52090  Biso   1.000  C
  H25      1.0000 0.80300  0.99050  0.48690  Biso   1.000  H
  C52      1.0000 0.89448  0.05798  0.54325  Biso   1.000  C
  C53      1.0000 0.96088  0.05299  0.59584  Biso   1.000  C
  H26      1.0000 0.99070  0.10050  0.61160  Biso   1.000  H
  C54      1.0000 0.98320  0.97796  0.62509  Biso   1.000  C
  H27      1.0000 0.02640  0.97520  0.66160  Biso   1.000  H
  C55      1.0000 0.94153  0.90679  0.60043  Biso   1.000  C
  H28      1.0000 0.95930  0.85600  0.61870  Biso   1.000  H
  C56      1.0000 0.13562  0.22207  0.66326  Biso   1.000  C
  C57      1.0000 0.05958  0.19321  0.77811  Biso   1.000  C
  H29      1.0000 0.00530  0.21890  0.76160  Biso   1.000  H
  C58      1.0000 0.13692  0.18571  0.73489  Biso   1.000  C
  C59      1.0000 0.21650  0.14600  0.75987  Biso   1.000  C
  H30      1.0000 0.26990  0.14220  0.73180  Biso   1.000  H
  C60      1.0000 0.97952  0.17916  0.89289  Biso   1.000  C
  C61      1.0000 0.06121  0.16327  0.84555  Biso   1.000  C
  C62      1.0000 0.14030  0.12140  0.86895  Biso   1.000  C
  H31      1.0000 0.14130  0.09950  0.91380  Biso   1.000  H
  C63      1.0000 0.87196  0.13773  0.50868  Biso   1.000  C
  C64      1.0000 0.21750  0.11220  0.82573  Biso   1.000  C
  H32      1.0000 0.27020  0.08320  0.84110  Biso   1.000  H
  Mg9      1.0000 0.47756  0.79117  0.54429  Biso   1.000  Mg
  Mg10     1.0000 0.68967  0.75923  0.43555  Biso   1.000  Mg
  O33      1.0000 0.58313  0.70192  0.52236  Biso   1.000  O
  O34      1.0000 0.62368  0.27205  0.51152  Biso   1.000  O
  O35      1.0000 0.44190  0.73867  0.63647  Biso   1.000  O
  O36      1.0000 0.51968  0.65265  0.95420  Biso   1.000  O
  O37      1.0000 0.75777  0.34103  0.50188  Biso   1.000  O
  O38      1.0000 0.69415  0.64014  0.46395  Biso   1.000  O
  O39      1.0000 0.58766  0.71996  0.86874  Biso   1.000  O
  O40      1.0000 0.28612  0.73433  0.63496  Biso   1.000  O
  C65      1.0000 0.67149  0.33568  0.51920  Biso   1.000  C
  C66      1.0000 0.62653  0.41084  0.54864  Biso   1.000  C
  C67      1.0000 0.65035  0.48711  0.52090  Biso   1.000  C
  H33      1.0000 0.69700  0.49050  0.48690  Biso   1.000  H
  C68      1.0000 0.60552  0.55798  0.54325  Biso   1.000  C
  C69      1.0000 0.53912  0.55299  0.59584  Biso   1.000  C
  H34      1.0000 0.50930  0.60050  0.61160  Biso   1.000  H
  C70      1.0000 0.51680  0.47796  0.62509  Biso   1.000  C
  H35      1.0000 0.47360  0.47520  0.66160  Biso   1.000  H
  C71      1.0000 0.55847  0.40679  0.60043  Biso   1.000  C
  H36      1.0000 0.54070  0.35600  0.61870  Biso   1.000  H
  C72      1.0000 0.36438  0.72207  0.66326  Biso   1.000  C
  C73      1.0000 0.44042  0.69321  0.77811  Biso   1.000  C
  H37      1.0000 0.49470  0.71890  0.76160  Biso   1.000  H
  C74      1.0000 0.36308  0.68571  0.73489  Biso   1.000  C
  C75      1.0000 0.28350  0.64600  0.75987  Biso   1.000  C
  H38      1.0000 0.23010  0.64220  0.73180  Biso   1.000  H
  C76      1.0000 0.52048  0.67916  0.89289  Biso   1.000  C
  C77      1.0000 0.43879  0.66327  0.84555  Biso   1.000  C
  C78      1.0000 0.35970  0.62140  0.86895  Biso   1.000  C
  H39      1.0000 0.35870  0.59950  0.91380  Biso   1.000  H
  C79      1.0000 0.62804  0.63773  0.50868  Biso   1.000  C
  C80      1.0000 0.28250  0.61220  0.82573  Biso   1.000  C
  H40      1.0000 0.22980  0.58320  0.84110  Biso   1.000  H
  Mg11     1.0000 0.02244  0.20883  0.04429  Biso   1.000  Mg
  Mg12     1.0000 0.81033  0.24077  0.93555  Biso   1.000  Mg
  O41      1.0000 0.91687  0.29808  0.02236  Biso   1.000  O
  O42      1.0000 0.87632  0.72795  0.01152  Biso   1.000  O
  O43      1.0000 0.05810  0.26133  0.13647  Biso   1.000  O
  O44      1.0000 0.98032  0.34735  0.45420  Biso   1.000  O
  O45      1.0000 0.74223  0.65897  0.00188  Biso   1.000  O
  O46      1.0000 0.80585  0.35986  0.96395  Biso   1.000  O
  O47      1.0000 0.91234  0.28004  0.36874  Biso   1.000  O
  O48      1.0000 0.21388  0.26567  0.13496  Biso   1.000  O
  C81      1.0000 0.82851  0.66432  0.01920  Biso   1.000  C
  C82      1.0000 0.87347  0.58916  0.04864  Biso   1.000  C
  C83      1.0000 0.84965  0.51289  0.02090  Biso   1.000  C
  H41      1.0000 0.80300  0.50950  0.98690  Biso   1.000  H
  C84      1.0000 0.89448  0.44202  0.04325  Biso   1.000  C
  C85      1.0000 0.96088  0.44701  0.09584  Biso   1.000  C
  H42      1.0000 0.99070  0.39950  0.11160  Biso   1.000  H
  C86      1.0000 0.98320  0.52204  0.12509  Biso   1.000  C
  H43      1.0000 0.02640  0.52480  0.16160  Biso   1.000  H
  C87      1.0000 0.94153  0.59321  0.10043  Biso   1.000  C
  H44      1.0000 0.95930  0.64400  0.11870  Biso   1.000  H
  C88      1.0000 0.13562  0.27793  0.16326  Biso   1.000  C
  C89      1.0000 0.05958  0.30679  0.27811  Biso   1.000  C
  H45      1.0000 0.00530  0.28110  0.26160  Biso   1.000  H
  C90      1.0000 0.13692  0.31429  0.23489  Biso   1.000  C
  C91      1.0000 0.21650  0.35400  0.25987  Biso   1.000  C
  H46      1.0000 0.26990  0.35780  0.23180  Biso   1.000  H
  C92      1.0000 0.97952  0.32084  0.39289  Biso   1.000  C
  C93      1.0000 0.06121  0.33673  0.34555  Biso   1.000  C
  C94      1.0000 0.14030  0.37860  0.36895  Biso   1.000  C
  H47      1.0000 0.14130  0.40050  0.41380  Biso   1.000  H
  C95      1.0000 0.87196  0.36227  0.00868  Biso   1.000  C
  C96      1.0000 0.21750  0.38780  0.32573  Biso   1.000  C
  H48      1.0000 0.27020  0.41680  0.34110  Biso   1.000  H
  Mg13     1.0000 0.52244  0.29117  0.95571  Biso   1.000  Mg
  Mg14     1.0000 0.31033  0.25923  0.06445  Biso   1.000  Mg
  O49      1.0000 0.41687  0.20192  0.97764  Biso   1.000  O
  O50      1.0000 0.37632  0.77205  0.98848  Biso   1.000  O
  O51      1.0000 0.55810  0.23867  0.86353  Biso   1.000  O
  O52      1.0000 0.48032  0.15265  0.54580  Biso   1.000  O
  O53      1.0000 0.24223  0.84103  0.99812  Biso   1.000  O
  O54      1.0000 0.30585  0.14014  0.03605  Biso   1.000  O
  O55      1.0000 0.41234  0.21996  0.63126  Biso   1.000  O
  O56      1.0000 0.71388  0.23433  0.86504  Biso   1.000  O
  C97      1.0000 0.32851  0.83568  0.98080  Biso   1.000  C
  C98      1.0000 0.37347  0.91084  0.95136  Biso   1.000  C
  C99      1.0000 0.34965  0.98711  0.97910  Biso   1.000  C
  H49      1.0000 0.30300  0.99050  0.01310  Biso   1.000  H
  C100     1.0000 0.39448  0.05798  0.95675  Biso   1.000  C
  C101     1.0000 0.46088  0.05299  0.90416  Biso   1.000  C
  H50      1.0000 0.49070  0.10050  0.88840  Biso   1.000  H
  C102     1.0000 0.48320  0.97796  0.87491  Biso   1.000  C
  H51      1.0000 0.52640  0.97520  0.83840  Biso   1.000  H
  C103     1.0000 0.44153  0.90679  0.89957  Biso   1.000  C
  H52      1.0000 0.45930  0.85600  0.88130  Biso   1.000  H
  C104     1.0000 0.63562  0.22207  0.83674  Biso   1.000  C
  C105     1.0000 0.55958  0.19321  0.72189  Biso   1.000  C
  H53      1.0000 0.50530  0.21890  0.73840  Biso   1.000  H
  C106     1.0000 0.63692  0.18571  0.76511  Biso   1.000  C
  C107     1.0000 0.71650  0.14600  0.74013  Biso   1.000  C
  H54      1.0000 0.76990  0.14220  0.76820  Biso   1.000  H
  C108     1.0000 0.47952  0.17916  0.60711  Biso   1.000  C
  C109     1.0000 0.56121  0.16327  0.65445  Biso   1.000  C
  C110     1.0000 0.64030  0.12140  0.63105  Biso   1.000  C
  H55      1.0000 0.64130  0.09950  0.58620  Biso   1.000  H
  C111     1.0000 0.37196  0.13773  0.99132  Biso   1.000  C
  C112     1.0000 0.71750  0.11220  0.67427  Biso   1.000  C
  H56      1.0000 0.77020  0.08320  0.65890  Biso   1.000  H
  Mg15     1.0000 0.97756  0.70883  0.45571  Biso   1.000  Mg
  Mg16     1.0000 0.18967  0.74077  0.56445  Biso   1.000  Mg
  O57      1.0000 0.08313  0.79808  0.47764  Biso   1.000  O
  O58      1.0000 0.12368  0.22795  0.48848  Biso   1.000  O
  O59      1.0000 0.94190  0.76133  0.36353  Biso   1.000  O
  O60      1.0000 0.01968  0.84735  0.04580  Biso   1.000  O
  O61      1.0000 0.25777  0.15897  0.49812  Biso   1.000  O
  O62      1.0000 0.19415  0.85986  0.53605  Biso   1.000  O
  O63      1.0000 0.08766  0.78004  0.13126  Biso   1.000  O
  O64      1.0000 0.78612  0.76567  0.36504  Biso   1.000  O
  C113     1.0000 0.17149  0.16432  0.48080  Biso   1.000  C
  C114     1.0000 0.12653  0.08916  0.45136  Biso   1.000  C
  C115     1.0000 0.15035  0.01289  0.47910  Biso   1.000  C
  H57      1.0000 0.19700  0.00950  0.51310  Biso   1.000  H
  C116     1.0000 0.10552  0.94202  0.45675  Biso   1.000  C
  C117     1.0000 0.03912  0.94701  0.40416  Biso   1.000  C
  H58      1.0000 0.00930  0.89950  0.38840  Biso   1.000  H
  C118     1.0000 0.01680  0.02204  0.37491  Biso   1.000  C
  H59      1.0000 0.97360  0.02480  0.33840  Biso   1.000  H
  C119     1.0000 0.05847  0.09321  0.39957  Biso   1.000  C
  H60      1.0000 0.04070  0.14400  0.38130  Biso   1.000  H
  C120     1.0000 0.86438  0.77793  0.33674  Biso   1.000  C
  C121     1.0000 0.94042  0.80679  0.22189  Biso   1.000  C
  H61      1.0000 0.99470  0.78110  0.23840  Biso   1.000  H
  C122     1.0000 0.86308  0.81429  0.26511  Biso   1.000  C
  C123     1.0000 0.78350  0.85400  0.24013  Biso   1.000  C
  H62      1.0000 0.73010  0.85780  0.26820  Biso   1.000  H
  C124     1.0000 0.02048  0.82084  0.10711  Biso   1.000  C
  C125     1.0000 0.93879  0.83673  0.15445  Biso   1.000  C
  C126     1.0000 0.85970  0.87860  0.13105  Biso   1.000  C
  H63      1.0000 0.85870  0.90050  0.08620  Biso   1.000  H
  C127     1.0000 0.12804  0.86227  0.49132  Biso   1.000  C
  C128     1.0000 0.78250  0.88780  0.17427  Biso   1.000  C
  H64      1.0000 0.72980  0.91680  0.15890  Biso   1.000  H
