data_image0
_cell_length_a       9.277
_cell_length_b       13.6193
_cell_length_c       14.7288
_cell_angle_alpha    90
_cell_angle_beta     90.274
_cell_angle_gamma    90

_symmetry_space_group_name_H-M    "P 1"
_symmetry_int_tables_number       1

loop_
  _symmetry_equiv_pos_as_xyz
  'x, y, z'

loop_
  _atom_site_label
  _atom_site_occupancy
  _atom_site_fract_x
  _atom_site_fract_y
  _atom_site_fract_z
  _atom_site_thermal_displace_type
  _atom_site_B_iso_or_equiv
  _atom_site_type_symbol
  Pr1      1.0000 0.25116  0.99685  0.09263  Biso   1.000  Pr
  C1       1.0000 0.49350  0.10470  0.33660  Biso   1.000  C
  C2       1.0000 0.46740  0.19760  0.37240  Biso   1.000  C
  H1       1.0000 0.39700  0.23910  0.34520  Biso   1.000  H
  C3       1.0000 0.54460  0.22950  0.44790  Biso   1.000  C
  C4       1.0000 0.64340  0.16630  0.49000  Biso   1.000  C
  H2       1.0000 0.69660  0.18820  0.54140  Biso   1.000  H
  C5       1.0000 0.66430  0.07220  0.45730  Biso   1.000  C
  C6       1.0000 0.59180  0.04340  0.37990  Biso   1.000  C
  H3       1.0000 0.60940  0.97990  0.35540  Biso   1.000  H
  C7       1.0000 0.75920  0.00310  0.50980  Biso   1.000  C
  H4       1.0000 0.69700  0.97100  0.54900  Biso   1.000  H
  H5       1.0000 0.82300  0.04000  0.54900  Biso   1.000  H
  C8       1.0000 0.84380  0.92960  0.45480  Biso   1.000  C
  C9       1.0000 0.91100  0.95480  0.37390  Biso   1.000  C
  H6       1.0000 0.89400  0.01790  0.34850  Biso   1.000  H
  C10      1.0000 0.00210  0.89020  0.32910  Biso   1.000  C
  C11      1.0000 0.02630  0.79670  0.36550  Biso   1.000  C
  H7       1.0000 0.09110  0.75280  0.33660  Biso   1.000  H
  C12      1.0000 0.95480  0.76800  0.44460  Biso   1.000  C
  C13      1.0000 0.86460  0.83490  0.48820  Biso   1.000  C
  H8       1.0000 0.81620  0.81540  0.54200  Biso   1.000  H
  C14      1.0000 0.41480  0.06740  0.25420  Biso   1.000  C
  C15      1.0000 0.52530  0.33190  0.48670  Biso   1.000  C
  C16      1.0000 0.08060  0.92490  0.24630  Biso   1.000  C
  C17      1.0000 0.97390  0.66750  0.48510  Biso   1.000  C
  O1       1.0000 0.47120  0.99750  0.20830  Biso   1.000  O
  O2       1.0000 0.29570  0.10490  0.23280  Biso   1.000  O
  O3       1.0000 0.41970  0.37990  0.46070  Biso   1.000  O
  O4       1.0000 0.61830  0.36150  0.54150  Biso   1.000  O
  O5       1.0000 0.02400  0.99110  0.19830  Biso   1.000  O
  O6       1.0000 0.20140  0.88710  0.22860  Biso   1.000  O
  O7       1.0000 0.06130  0.61020  0.44890  Biso   1.000  O
  O8       1.0000 0.90230  0.64600  0.55390  Biso   1.000  O
  Pr2      1.0000 0.24884  0.49685  0.40737  Biso   1.000  Pr
  C18      1.0000 0.00650  0.60470  0.16340  Biso   1.000  C
  C19      1.0000 0.03260  0.69760  0.12760  Biso   1.000  C
  H9       1.0000 0.10300  0.73910  0.15480  Biso   1.000  H
  C20      1.0000 0.95540  0.72950  0.05210  Biso   1.000  C
  C21      1.0000 0.85660  0.66630  0.01000  Biso   1.000  C
  H10      1.0000 0.80340  0.68820  0.95860  Biso   1.000  H
  C22      1.0000 0.83570  0.57220  0.04270  Biso   1.000  C
  C23      1.0000 0.90820  0.54340  0.12010  Biso   1.000  C
  H11      1.0000 0.89060  0.47990  0.14460  Biso   1.000  H
  C24      1.0000 0.74080  0.50310  0.99020  Biso   1.000  C
  H12      1.0000 0.80300  0.47100  0.95100  Biso   1.000  H
  H13      1.0000 0.67700  0.54000  0.95100  Biso   1.000  H
  C25      1.0000 0.65620  0.42960  0.04520  Biso   1.000  C
  C26      1.0000 0.58900  0.45480  0.12610  Biso   1.000  C
  H14      1.0000 0.60600  0.51790  0.15150  Biso   1.000  H
  C27      1.0000 0.49790  0.39020  0.17090  Biso   1.000  C
  C28      1.0000 0.47370  0.29670  0.13450  Biso   1.000  C
  H15      1.0000 0.40890  0.25280  0.16340  Biso   1.000  H
  C29      1.0000 0.54520  0.26800  0.05540  Biso   1.000  C
  C30      1.0000 0.63540  0.33490  0.01180  Biso   1.000  C
  H16      1.0000 0.68380  0.31540  0.95800  Biso   1.000  H
  C31      1.0000 0.08520  0.56740  0.24580  Biso   1.000  C
  C32      1.0000 0.97470  0.83190  0.01330  Biso   1.000  C
  C33      1.0000 0.41940  0.42490  0.25370  Biso   1.000  C
  C34      1.0000 0.52610  0.16750  0.01490  Biso   1.000  C
  O9       1.0000 0.02880  0.49750  0.29170  Biso   1.000  O
  O10      1.0000 0.20430  0.60490  0.26720  Biso   1.000  O
  O11      1.0000 0.08030  0.87990  0.03930  Biso   1.000  O
  O12      1.0000 0.88170  0.86150  0.95850  Biso   1.000  O
  O13      1.0000 0.47600  0.49110  0.30170  Biso   1.000  O
  O14      1.0000 0.29860  0.38710  0.27140  Biso   1.000  O
  O15      1.0000 0.43870  0.11020  0.05110  Biso   1.000  O
  O16      1.0000 0.59770  0.14600  0.94610  Biso   1.000  O
  Pr3      1.0000 0.74884  0.00315  0.90737  Biso   1.000  Pr
  C35      1.0000 0.50650  0.89530  0.66340  Biso   1.000  C
  C36      1.0000 0.53260  0.80240  0.62760  Biso   1.000  C
  H17      1.0000 0.60300  0.76090  0.65480  Biso   1.000  H
  C37      1.0000 0.45540  0.77050  0.55210  Biso   1.000  C
  C38      1.0000 0.35660  0.83370  0.51000  Biso   1.000  C
  H18      1.0000 0.30340  0.81180  0.45860  Biso   1.000  H
  C39      1.0000 0.33570  0.92780  0.54270  Biso   1.000  C
  C40      1.0000 0.40820  0.95660  0.62010  Biso   1.000  C
  H19      1.0000 0.39060  0.02010  0.64460  Biso   1.000  H
  C41      1.0000 0.24080  0.99690  0.49020  Biso   1.000  C
  H20      1.0000 0.30300  0.02900  0.45100  Biso   1.000  H
  H21      1.0000 0.17700  0.96000  0.45100  Biso   1.000  H
  C42      1.0000 0.15620  0.07040  0.54520  Biso   1.000  C
  C43      1.0000 0.08900  0.04520  0.62610  Biso   1.000  C
  H22      1.0000 0.10600  0.98210  0.65150  Biso   1.000  H
  C44      1.0000 0.99790  0.10980  0.67090  Biso   1.000  C
  C45      1.0000 0.97370  0.20330  0.63450  Biso   1.000  C
  H23      1.0000 0.90890  0.24720  0.66340  Biso   1.000  H
  C46      1.0000 0.04520  0.23200  0.55540  Biso   1.000  C
  C47      1.0000 0.13540  0.16510  0.51180  Biso   1.000  C
  H24      1.0000 0.18380  0.18460  0.45800  Biso   1.000  H
  C48      1.0000 0.58520  0.93260  0.74580  Biso   1.000  C
  C49      1.0000 0.47470  0.66810  0.51330  Biso   1.000  C
  C50      1.0000 0.91940  0.07510  0.75370  Biso   1.000  C
  C51      1.0000 0.02610  0.33250  0.51490  Biso   1.000  C
  O17      1.0000 0.52880  0.00250  0.79170  Biso   1.000  O
  O18      1.0000 0.70430  0.89510  0.76720  Biso   1.000  O
  O19      1.0000 0.58030  0.62010  0.53930  Biso   1.000  O
  O20      1.0000 0.38170  0.63850  0.45850  Biso   1.000  O
  O21      1.0000 0.97600  0.00890  0.80170  Biso   1.000  O
  O22      1.0000 0.79860  0.11290  0.77140  Biso   1.000  O
  O23      1.0000 0.93870  0.38980  0.55110  Biso   1.000  O
  O24      1.0000 0.09770  0.35400  0.44610  Biso   1.000  O
  Pr4      1.0000 0.75116  0.50315  0.59263  Biso   1.000  Pr
  C52      1.0000 0.99350  0.39530  0.83660  Biso   1.000  C
  C53      1.0000 0.96740  0.30240  0.87240  Biso   1.000  C
  H25      1.0000 0.89700  0.26090  0.84520  Biso   1.000  H
  C54      1.0000 0.04460  0.27050  0.94790  Biso   1.000  C
  C55      1.0000 0.14340  0.33370  0.99000  Biso   1.000  C
  H26      1.0000 0.19660  0.31180  0.04140  Biso   1.000  H
  C56      1.0000 0.16430  0.42780  0.95730  Biso   1.000  C
  C57      1.0000 0.09180  0.45660  0.87990  Biso   1.000  C
  H27      1.0000 0.10940  0.52010  0.85540  Biso   1.000  H
  C58      1.0000 0.25920  0.49690  0.00980  Biso   1.000  C
  H28      1.0000 0.19700  0.52900  0.04900  Biso   1.000  H
  H29      1.0000 0.32300  0.46000  0.04900  Biso   1.000  H
  C59      1.0000 0.34380  0.57040  0.95480  Biso   1.000  C
  C60      1.0000 0.41100  0.54520  0.87390  Biso   1.000  C
  H30      1.0000 0.39400  0.48210  0.84850  Biso   1.000  H
  C61      1.0000 0.50210  0.60980  0.82910  Biso   1.000  C
  C62      1.0000 0.52630  0.70330  0.86550  Biso   1.000  C
  H31      1.0000 0.59110  0.74720  0.83660  Biso   1.000  H
  C63      1.0000 0.45480  0.73200  0.94460  Biso   1.000  C
  C64      1.0000 0.36460  0.66510  0.98820  Biso   1.000  C
  H32      1.0000 0.31620  0.68460  0.04200  Biso   1.000  H
  C65      1.0000 0.91480  0.43260  0.75420  Biso   1.000  C
  C66      1.0000 0.02530  0.16810  0.98670  Biso   1.000  C
  C67      1.0000 0.58060  0.57510  0.74630  Biso   1.000  C
  C68      1.0000 0.47390  0.83250  0.98510  Biso   1.000  C
  O25      1.0000 0.97120  0.50250  0.70830  Biso   1.000  O
  O26      1.0000 0.79570  0.39510  0.73280  Biso   1.000  O
  O27      1.0000 0.91970  0.12010  0.96070  Biso   1.000  O
  O28      1.0000 0.11830  0.13850  0.04150  Biso   1.000  O
  O29      1.0000 0.52400  0.50890  0.69830  Biso   1.000  O
  O30      1.0000 0.70140  0.61290  0.72860  Biso   1.000  O
  O31      1.0000 0.56130  0.88980  0.94890  Biso   1.000  O
  O32      1.0000 0.40230  0.85400  0.05390  Biso   1.000  O
