data_image0
_cell_length_a       9.2307
_cell_length_b       13.6222
_cell_length_c       14.7072
_cell_angle_alpha    90
_cell_angle_beta     90.271
_cell_angle_gamma    90

_symmetry_space_group_name_H-M    "P 1"
_symmetry_int_tables_number       1

loop_
  _symmetry_equiv_pos_as_xyz
  'x, y, z'

loop_
  _atom_site_label
  _atom_site_occupancy
  _atom_site_fract_x
  _atom_site_fract_y
  _atom_site_fract_z
  _atom_site_thermal_displace_type
  _atom_site_B_iso_or_equiv
  _atom_site_type_symbol
  Nd1      1.0000 0.25085  0.50245  0.09312  Biso   1.000  Nd
  C1       1.0000 0.00240  0.61040  0.32950  Biso   1.000  C
  C2       1.0000 0.02660  0.70400  0.36580  Biso   1.000  C
  H1       1.0000 0.09160  0.74790  0.33670  Biso   1.000  H
  C3       1.0000 0.95460  0.73270  0.44510  Biso   1.000  C
  C4       1.0000 0.86430  0.66600  0.48830  Biso   1.000  C
  H2       1.0000 0.81500  0.68560  0.54180  Biso   1.000  H
  C5       1.0000 0.84390  0.57090  0.45510  Biso   1.000  C
  C6       1.0000 0.91090  0.54590  0.37420  Biso   1.000  C
  H3       1.0000 0.89380  0.48280  0.34870  Biso   1.000  H
  C7       1.0000 0.75840  0.49760  0.50970  Biso   1.000  C
  H4       1.0000 0.82750  0.45860  0.54660  Biso   1.000  H
  H5       1.0000 0.69620  0.53440  0.55250  Biso   1.000  H
  C8       1.0000 0.66420  0.42780  0.45720  Biso   1.000  C
  C9       1.0000 0.64340  0.33300  0.48960  Biso   1.000  C
  H6       1.0000 0.69690  0.31120  0.54110  Biso   1.000  H
  C10      1.0000 0.54510  0.26930  0.44760  Biso   1.000  C
  C11      1.0000 0.46800  0.30070  0.37160  Biso   1.000  C
  H7       1.0000 0.39830  0.25890  0.34390  Biso   1.000  H
  C12      1.0000 0.49370  0.39420  0.33630  Biso   1.000  C
  C13      1.0000 0.59080  0.45680  0.37930  Biso   1.000  C
  H8       1.0000 0.60720  0.52050  0.35510  Biso   1.000  H
  C14      1.0000 0.08090  0.57520  0.24610  Biso   1.000  C
  C15      1.0000 0.97390  0.83330  0.48500  Biso   1.000  C
  C16      1.0000 0.52570  0.16670  0.48670  Biso   1.000  C
  C17      1.0000 0.41420  0.43200  0.25340  Biso   1.000  C
  O1       1.0000 0.02490  0.50770  0.19940  Biso   1.000  O
  O2       1.0000 0.20270  0.61250  0.22810  Biso   1.000  O
  O3       1.0000 0.06120  0.89040  0.44870  Biso   1.000  O
  O4       1.0000 0.89960  0.85520  0.55380  Biso   1.000  O
  O5       1.0000 0.61780  0.13890  0.54380  Biso   1.000  O
  O6       1.0000 0.42220  0.11830  0.45940  Biso   1.000  O
  O7       1.0000 0.29490  0.39430  0.23240  Biso   1.000  O
  O8       1.0000 0.47130  0.50160  0.20770  Biso   1.000  O
  Nd2      1.0000 0.24915  0.00245  0.40687  Biso   1.000  Nd
  C18      1.0000 0.49760  0.11040  0.17050  Biso   1.000  C
  C19      1.0000 0.47340  0.20400  0.13420  Biso   1.000  C
  H9       1.0000 0.40840  0.24790  0.16330  Biso   1.000  H
  C20      1.0000 0.54540  0.23270  0.05490  Biso   1.000  C
  C21      1.0000 0.63570  0.16600  0.01170  Biso   1.000  C
  H10      1.0000 0.68500  0.18560  0.95820  Biso   1.000  H
  C22      1.0000 0.65610  0.07090  0.04490  Biso   1.000  C
  C23      1.0000 0.58910  0.04590  0.12580  Biso   1.000  C
  H11      1.0000 0.60620  0.98280  0.15130  Biso   1.000  H
  C24      1.0000 0.74160  0.99760  0.99030  Biso   1.000  C
  H12      1.0000 0.67250  0.95860  0.95340  Biso   1.000  H
  H13      1.0000 0.80380  0.03440  0.94750  Biso   1.000  H
  C25      1.0000 0.83580  0.92780  0.04280  Biso   1.000  C
  C26      1.0000 0.85660  0.83300  0.01040  Biso   1.000  C
  H14      1.0000 0.80310  0.81120  0.95890  Biso   1.000  H
  C27      1.0000 0.95490  0.76930  0.05240  Biso   1.000  C
  C28      1.0000 0.03200  0.80070  0.12840  Biso   1.000  C
  H15      1.0000 0.10170  0.75890  0.15610  Biso   1.000  H
  C29      1.0000 0.00630  0.89420  0.16370  Biso   1.000  C
  C30      1.0000 0.90920  0.95680  0.12070  Biso   1.000  C
  H16      1.0000 0.89280  0.02050  0.14490  Biso   1.000  H
  C31      1.0000 0.41910  0.07520  0.25390  Biso   1.000  C
  C32      1.0000 0.52610  0.33330  0.01500  Biso   1.000  C
  C33      1.0000 0.97430  0.66670  0.01330  Biso   1.000  C
  C34      1.0000 0.08580  0.93200  0.24660  Biso   1.000  C
  O9       1.0000 0.47510  0.00770  0.30060  Biso   1.000  O
  O10      1.0000 0.29730  0.11250  0.27190  Biso   1.000  O
  O11      1.0000 0.43880  0.39040  0.05130  Biso   1.000  O
  O12      1.0000 0.60040  0.35520  0.94620  Biso   1.000  O
  O13      1.0000 0.88220  0.63890  0.95620  Biso   1.000  O
  O14      1.0000 0.07780  0.61830  0.04060  Biso   1.000  O
  O15      1.0000 0.20510  0.89430  0.26760  Biso   1.000  O
  O16      1.0000 0.02870  0.00160  0.29230  Biso   1.000  O
  Nd3      1.0000 0.74915  0.49755  0.90687  Biso   1.000  Nd
  C35      1.0000 0.99760  0.38960  0.67050  Biso   1.000  C
  C36      1.0000 0.97340  0.29600  0.63420  Biso   1.000  C
  H17      1.0000 0.90840  0.25210  0.66330  Biso   1.000  H
  C37      1.0000 0.04540  0.26730  0.55490  Biso   1.000  C
  C38      1.0000 0.13570  0.33400  0.51170  Biso   1.000  C
  H18      1.0000 0.18500  0.31440  0.45820  Biso   1.000  H
  C39      1.0000 0.15610  0.42910  0.54490  Biso   1.000  C
  C40      1.0000 0.08910  0.45410  0.62580  Biso   1.000  C
  H19      1.0000 0.10620  0.51720  0.65130  Biso   1.000  H
  C41      1.0000 0.24160  0.50240  0.49030  Biso   1.000  C
  H20      1.0000 0.17250  0.54140  0.45340  Biso   1.000  H
  H21      1.0000 0.30380  0.46560  0.44750  Biso   1.000  H
  C42      1.0000 0.33580  0.57220  0.54280  Biso   1.000  C
  C43      1.0000 0.35660  0.66700  0.51040  Biso   1.000  C
  H22      1.0000 0.30310  0.68880  0.45890  Biso   1.000  H
  C44      1.0000 0.45490  0.73070  0.55240  Biso   1.000  C
  C45      1.0000 0.53200  0.69930  0.62840  Biso   1.000  C
  H23      1.0000 0.60170  0.74110  0.65610  Biso   1.000  H
  C46      1.0000 0.50630  0.60580  0.66370  Biso   1.000  C
  C47      1.0000 0.40920  0.54320  0.62070  Biso   1.000  C
  H24      1.0000 0.39280  0.47950  0.64490  Biso   1.000  H
  C48      1.0000 0.91910  0.42480  0.75390  Biso   1.000  C
  C49      1.0000 0.02610  0.16670  0.51500  Biso   1.000  C
  C50      1.0000 0.47430  0.83330  0.51330  Biso   1.000  C
  C51      1.0000 0.58580  0.56800  0.74660  Biso   1.000  C
  O17      1.0000 0.97510  0.49230  0.80060  Biso   1.000  O
  O18      1.0000 0.79730  0.38750  0.77190  Biso   1.000  O
  O19      1.0000 0.93880  0.10960  0.55130  Biso   1.000  O
  O20      1.0000 0.10040  0.14480  0.44620  Biso   1.000  O
  O21      1.0000 0.38220  0.86110  0.45620  Biso   1.000  O
  O22      1.0000 0.57780  0.88170  0.54060  Biso   1.000  O
  O23      1.0000 0.70510  0.60570  0.76760  Biso   1.000  O
  O24      1.0000 0.52870  0.49840  0.79230  Biso   1.000  O
  Nd4      1.0000 0.75085  0.99755  0.59312  Biso   1.000  Nd
  C52      1.0000 0.50240  0.88960  0.82950  Biso   1.000  C
  C53      1.0000 0.52660  0.79600  0.86580  Biso   1.000  C
  H25      1.0000 0.59160  0.75210  0.83670  Biso   1.000  H
  C54      1.0000 0.45460  0.76730  0.94510  Biso   1.000  C
  C55      1.0000 0.36430  0.83400  0.98830  Biso   1.000  C
  H26      1.0000 0.31500  0.81440  0.04180  Biso   1.000  H
  C56      1.0000 0.34390  0.92910  0.95510  Biso   1.000  C
  C57      1.0000 0.41090  0.95410  0.87420  Biso   1.000  C
  H27      1.0000 0.39380  0.01720  0.84870  Biso   1.000  H
  C58      1.0000 0.25840  0.00240  0.00970  Biso   1.000  C
  H28      1.0000 0.32750  0.04140  0.04660  Biso   1.000  H
  H29      1.0000 0.19620  0.96560  0.05250  Biso   1.000  H
  C59      1.0000 0.16420  0.07220  0.95720  Biso   1.000  C
  C60      1.0000 0.14340  0.16700  0.98960  Biso   1.000  C
  H30      1.0000 0.19690  0.18880  0.04110  Biso   1.000  H
  C61      1.0000 0.04510  0.23070  0.94760  Biso   1.000  C
  C62      1.0000 0.96800  0.19930  0.87160  Biso   1.000  C
  H31      1.0000 0.89830  0.24110  0.84390  Biso   1.000  H
  C63      1.0000 0.99370  0.10580  0.83630  Biso   1.000  C
  C64      1.0000 0.09080  0.04320  0.87930  Biso   1.000  C
  H32      1.0000 0.10720  0.97950  0.85510  Biso   1.000  H
  C65      1.0000 0.58090  0.92480  0.74610  Biso   1.000  C
  C66      1.0000 0.47390  0.66670  0.98500  Biso   1.000  C
  C67      1.0000 0.02570  0.33330  0.98670  Biso   1.000  C
  C68      1.0000 0.91420  0.06800  0.75340  Biso   1.000  C
  O25      1.0000 0.52490  0.99230  0.69940  Biso   1.000  O
  O26      1.0000 0.70270  0.88750  0.72810  Biso   1.000  O
  O27      1.0000 0.56120  0.60960  0.94870  Biso   1.000  O
  O28      1.0000 0.39960  0.64480  0.05380  Biso   1.000  O
  O29      1.0000 0.11780  0.36110  0.04380  Biso   1.000  O
  O30      1.0000 0.92220  0.38170  0.95940  Biso   1.000  O
  O31      1.0000 0.79490  0.10570  0.73240  Biso   1.000  O
  O32      1.0000 0.97130  0.99840  0.70770  Biso   1.000  O
