data_image0
_cell_length_a       9.2161
_cell_length_b       13.5618
_cell_length_c       14.6623
_cell_angle_alpha    90
_cell_angle_beta     90.209
_cell_angle_gamma    90

_symmetry_space_group_name_H-M    "P 1"
_symmetry_int_tables_number       1

loop_
  _symmetry_equiv_pos_as_xyz
  'x, y, z'

loop_
  _atom_site_label
  _atom_site_occupancy
  _atom_site_fract_x
  _atom_site_fract_y
  _atom_site_fract_z
  _atom_site_thermal_displace_type
  _atom_site_B_iso_or_equiv
  _atom_site_type_symbol
  Sm1      1.0000 0.75075  0.99773  0.59306  Biso   1.000  Sm
  C1       1.0000 0.50380  0.88910  0.82940  Biso   1.000  C
  C2       1.0000 0.52840  0.79580  0.86600  Biso   1.000  C
  H1       1.0000 0.59510  0.75220  0.83760  Biso   1.000  H
  C3       1.0000 0.45480  0.76640  0.94470  Biso   1.000  C
  C4       1.0000 0.36370  0.83340  0.98860  Biso   1.000  C
  H2       1.0000 0.31510  0.81370  0.04270  Biso   1.000  H
  C5       1.0000 0.34230  0.92860  0.95500  Biso   1.000  C
  C6       1.0000 0.41150  0.95490  0.87380  Biso   1.000  C
  H3       1.0000 0.39540  0.01850  0.84840  Biso   1.000  H
  C7       1.0000 0.25740  0.00240  0.01000  Biso   1.000  C
  H4       1.0000 0.19550  0.96570  0.05340  Biso   1.000  H
  H5       1.0000 0.32690  0.04190  0.04640  Biso   1.000  H
  C8       1.0000 0.16230  0.07240  0.95700  Biso   1.000  C
  C9       1.0000 0.14260  0.16710  0.98970  Biso   1.000  C
  H6       1.0000 0.19680  0.18870  0.04120  Biso   1.000  H
  C10      1.0000 0.04340  0.23190  0.94770  Biso   1.000  C
  C11      1.0000 0.96670  0.20000  0.87090  Biso   1.000  C
  H7       1.0000 0.89620  0.24160  0.84330  Biso   1.000  H
  C12      1.0000 0.99390  0.10670  0.83490  Biso   1.000  C
  C13      1.0000 0.09060  0.04310  0.87850  Biso   1.000  C
  H8       1.0000 0.10730  0.97920  0.85410  Biso   1.000  H
  C14      1.0000 0.58300  0.92540  0.74600  Biso   1.000  C
  C15      1.0000 0.47460  0.66540  0.98570  Biso   1.000  C
  C16      1.0000 0.02550  0.33470  0.98600  Biso   1.000  C
  C17      1.0000 0.91390  0.06840  0.75210  Biso   1.000  C
  O1       1.0000 0.52630  0.99280  0.69930  Biso   1.000  O
  O2       1.0000 0.70410  0.88820  0.72780  Biso   1.000  O
  O3       1.0000 0.56540  0.60870  0.95030  Biso   1.000  O
  O4       1.0000 0.39800  0.64290  0.05320  Biso   1.000  O
  O5       1.0000 0.11720  0.36290  0.04320  Biso   1.000  O
  O6       1.0000 0.92150  0.38370  0.95880  Biso   1.000  O
  O7       1.0000 0.79370  0.10600  0.73100  Biso   1.000  O
  O8       1.0000 0.97100  0.99940  0.70580  Biso   1.000  O
  Sm2      1.0000 0.74925  0.49773  0.90694  Biso   1.000  Sm
  C18      1.0000 0.99620  0.38910  0.67060  Biso   1.000  C
  C19      1.0000 0.97160  0.29580  0.63400  Biso   1.000  C
  H9       1.0000 0.90490  0.25220  0.66240  Biso   1.000  H
  C20      1.0000 0.04520  0.26640  0.55530  Biso   1.000  C
  C21      1.0000 0.13630  0.33340  0.51140  Biso   1.000  C
  H10      1.0000 0.18490  0.31370  0.45730  Biso   1.000  H
  C22      1.0000 0.15770  0.42860  0.54500  Biso   1.000  C
  C23      1.0000 0.08850  0.45490  0.62620  Biso   1.000  C
  H11      1.0000 0.10460  0.51850  0.65160  Biso   1.000  H
  C24      1.0000 0.24260  0.50240  0.49000  Biso   1.000  C
  H12      1.0000 0.30450  0.46570  0.44660  Biso   1.000  H
  H13      1.0000 0.17310  0.54190  0.45360  Biso   1.000  H
  C25      1.0000 0.33770  0.57240  0.54300  Biso   1.000  C
  C26      1.0000 0.35740  0.66710  0.51030  Biso   1.000  C
  H14      1.0000 0.30320  0.68870  0.45880  Biso   1.000  H
  C27      1.0000 0.45660  0.73190  0.55230  Biso   1.000  C
  C28      1.0000 0.53330  0.70000  0.62910  Biso   1.000  C
  H15      1.0000 0.60380  0.74160  0.65670  Biso   1.000  H
  C29      1.0000 0.50610  0.60670  0.66510  Biso   1.000  C
  C30      1.0000 0.40940  0.54310  0.62150  Biso   1.000  C
  H16      1.0000 0.39270  0.47920  0.64590  Biso   1.000  H
  C31      1.0000 0.91700  0.42540  0.75400  Biso   1.000  C
  C32      1.0000 0.02540  0.16540  0.51430  Biso   1.000  C
  C33      1.0000 0.47450  0.83470  0.51400  Biso   1.000  C
  C34      1.0000 0.58610  0.56840  0.74790  Biso   1.000  C
  O9       1.0000 0.97370  0.49280  0.80070  Biso   1.000  O
  O10      1.0000 0.79590  0.38820  0.77220  Biso   1.000  O
  O11      1.0000 0.93460  0.10870  0.54970  Biso   1.000  O
  O12      1.0000 0.10200  0.14290  0.44680  Biso   1.000  O
  O13      1.0000 0.38280  0.86290  0.45680  Biso   1.000  O
  O14      1.0000 0.57850  0.88370  0.54120  Biso   1.000  O
  O15      1.0000 0.70630  0.60600  0.76900  Biso   1.000  O
  O16      1.0000 0.52900  0.49940  0.79420  Biso   1.000  O
  Sm3      1.0000 0.24925  0.00227  0.40694  Biso   1.000  Sm
  C35      1.0000 0.49620  0.11090  0.17060  Biso   1.000  C
  C36      1.0000 0.47160  0.20420  0.13400  Biso   1.000  C
  H17      1.0000 0.40490  0.24780  0.16240  Biso   1.000  H
  C37      1.0000 0.54520  0.23360  0.05530  Biso   1.000  C
  C38      1.0000 0.63630  0.16660  0.01140  Biso   1.000  C
  H18      1.0000 0.68490  0.18630  0.95730  Biso   1.000  H
  C39      1.0000 0.65770  0.07140  0.04500  Biso   1.000  C
  C40      1.0000 0.58850  0.04510  0.12620  Biso   1.000  C
  H19      1.0000 0.60460  0.98150  0.15160  Biso   1.000  H
  C41      1.0000 0.74260  0.99760  0.99000  Biso   1.000  C
  H20      1.0000 0.80450  0.03430  0.94660  Biso   1.000  H
  H21      1.0000 0.67310  0.95810  0.95360  Biso   1.000  H
  C42      1.0000 0.83770  0.92760  0.04300  Biso   1.000  C
  C43      1.0000 0.85740  0.83290  0.01030  Biso   1.000  C
  H22      1.0000 0.80320  0.81130  0.95880  Biso   1.000  H
  C44      1.0000 0.95660  0.76810  0.05230  Biso   1.000  C
  C45      1.0000 0.03330  0.80000  0.12910  Biso   1.000  C
  H23      1.0000 0.10380  0.75840  0.15670  Biso   1.000  H
  C46      1.0000 0.00610  0.89330  0.16510  Biso   1.000  C
  C47      1.0000 0.90940  0.95690  0.12150  Biso   1.000  C
  H24      1.0000 0.89270  0.02080  0.14590  Biso   1.000  H
  C48      1.0000 0.41700  0.07460  0.25400  Biso   1.000  C
  C49      1.0000 0.52540  0.33460  0.01430  Biso   1.000  C
  C50      1.0000 0.97450  0.66530  0.01400  Biso   1.000  C
  C51      1.0000 0.08610  0.93160  0.24790  Biso   1.000  C
  O17      1.0000 0.47370  0.00720  0.30070  Biso   1.000  O
  O18      1.0000 0.29590  0.11180  0.27220  Biso   1.000  O
  O19      1.0000 0.43460  0.39130  0.04970  Biso   1.000  O
  O20      1.0000 0.60200  0.35710  0.94680  Biso   1.000  O
  O21      1.0000 0.88280  0.63710  0.95680  Biso   1.000  O
  O22      1.0000 0.07850  0.61630  0.04120  Biso   1.000  O
  O23      1.0000 0.20630  0.89400  0.26900  Biso   1.000  O
  O24      1.0000 0.02900  0.00060  0.29420  Biso   1.000  O
  Sm4      1.0000 0.25075  0.50227  0.09306  Biso   1.000  Sm
  C52      1.0000 0.00380  0.61090  0.32940  Biso   1.000  C
  C53      1.0000 0.02840  0.70420  0.36600  Biso   1.000  C
  H25      1.0000 0.09510  0.74780  0.33760  Biso   1.000  H
  C54      1.0000 0.95480  0.73360  0.44470  Biso   1.000  C
  C55      1.0000 0.86370  0.66660  0.48860  Biso   1.000  C
  H26      1.0000 0.81510  0.68630  0.54270  Biso   1.000  H
  C56      1.0000 0.84230  0.57140  0.45500  Biso   1.000  C
  C57      1.0000 0.91150  0.54510  0.37380  Biso   1.000  C
  H27      1.0000 0.89540  0.48150  0.34840  Biso   1.000  H
  C58      1.0000 0.75740  0.49760  0.51000  Biso   1.000  C
  H28      1.0000 0.69550  0.53430  0.55340  Biso   1.000  H
  H29      1.0000 0.82690  0.45810  0.54640  Biso   1.000  H
  C59      1.0000 0.66230  0.42760  0.45700  Biso   1.000  C
  C60      1.0000 0.64260  0.33290  0.48970  Biso   1.000  C
  H30      1.0000 0.69680  0.31130  0.54120  Biso   1.000  H
  C61      1.0000 0.54340  0.26810  0.44770  Biso   1.000  C
  C62      1.0000 0.46670  0.30000  0.37090  Biso   1.000  C
  H31      1.0000 0.39620  0.25840  0.34330  Biso   1.000  H
  C63      1.0000 0.49390  0.39330  0.33490  Biso   1.000  C
  C64      1.0000 0.59060  0.45690  0.37850  Biso   1.000  C
  H32      1.0000 0.60730  0.52080  0.35410  Biso   1.000  H
  C65      1.0000 0.08300  0.57460  0.24600  Biso   1.000  C
  C66      1.0000 0.97460  0.83460  0.48570  Biso   1.000  C
  C67      1.0000 0.52550  0.16530  0.48600  Biso   1.000  C
  C68      1.0000 0.41390  0.43160  0.25210  Biso   1.000  C
  O25      1.0000 0.02630  0.50720  0.19930  Biso   1.000  O
  O26      1.0000 0.20410  0.61180  0.22780  Biso   1.000  O
  O27      1.0000 0.06540  0.89130  0.45030  Biso   1.000  O
  O28      1.0000 0.89800  0.85710  0.55320  Biso   1.000  O
  O29      1.0000 0.61720  0.13710  0.54320  Biso   1.000  O
  O30      1.0000 0.42150  0.11630  0.45880  Biso   1.000  O
  O31      1.0000 0.29370  0.39400  0.23100  Biso   1.000  O
  O32      1.0000 0.47100  0.50060  0.20580  Biso   1.000  O
