data_image0
_cell_length_a       9.239
_cell_length_b       13.5278
_cell_length_c       14.6379
_cell_angle_alpha    90
_cell_angle_beta     90.354
_cell_angle_gamma    90

_symmetry_space_group_name_H-M    "P 1"
_symmetry_int_tables_number       1

loop_
  _symmetry_equiv_pos_as_xyz
  'x, y, z'

loop_
  _atom_site_label
  _atom_site_occupancy
  _atom_site_fract_x
  _atom_site_fract_y
  _atom_site_fract_z
  _atom_site_thermal_displace_type
  _atom_site_B_iso_or_equiv
  _atom_site_type_symbol
  Eu1      1.0000 0.75117  0.50310  0.59265  Biso   1.000  Eu
  C1       1.0000 0.99170  0.39460  0.83610  Biso   1.000  C
  C2       1.0000 0.96400  0.30060  0.87150  Biso   1.000  C
  H1       1.0000 0.89230  0.25940  0.84440  Biso   1.000  H
  C3       1.0000 0.04360  0.26780  0.94780  Biso   1.000  C
  C4       1.0000 0.14400  0.33210  0.98900  Biso   1.000  C
  H2       1.0000 0.19920  0.30960  0.03990  Biso   1.000  H
  C5       1.0000 0.16450  0.42770  0.95730  Biso   1.000  C
  C6       1.0000 0.09110  0.45680  0.87890  Biso   1.000  C
  H3       1.0000 0.10910  0.52040  0.85390  Biso   1.000  H
  C7       1.0000 0.26180  0.49680  0.00870  Biso   1.000  C
  C8       1.0000 0.34550  0.57140  0.95430  Biso   1.000  C
  C9       1.0000 0.36580  0.66650  0.98750  Biso   1.000  C
  H4       1.0000 0.31690  0.68610  0.04140  Biso   1.000  H
  C10      1.0000 0.45570  0.73380  0.94410  Biso   1.000  C
  C11      1.0000 0.52710  0.70470  0.86460  Biso   1.000  C
  H5       1.0000 0.59220  0.74890  0.83560  Biso   1.000  H
  C12      1.0000 0.50330  0.61090  0.82780  Biso   1.000  C
  C13      1.0000 0.41090  0.54560  0.87260  Biso   1.000  C
  H6       1.0000 0.39240  0.48240  0.84670  Biso   1.000  H
  C14      1.0000 0.91280  0.43250  0.75260  Biso   1.000  C
  C15      1.0000 0.02350  0.16530  0.98620  Biso   1.000  C
  C16      1.0000 0.47520  0.83460  0.98420  Biso   1.000  C
  C17      1.0000 0.58290  0.57480  0.74450  Biso   1.000  C
  O1       1.0000 0.97060  0.50240  0.70730  Biso   1.000  O
  O2       1.0000 0.79310  0.39560  0.73060  Biso   1.000  O
  O3       1.0000 0.91650  0.11710  0.96210  Biso   1.000  O
  O4       1.0000 0.11910  0.13480  0.04020  Biso   1.000  O
  O5       1.0000 0.40060  0.85710  0.05390  Biso   1.000  O
  O6       1.0000 0.56400  0.89230  0.94880  Biso   1.000  O
  O7       1.0000 0.70510  0.61270  0.72630  Biso   1.000  O
  O8       1.0000 0.52560  0.50800  0.69590  Biso   1.000  O
  H7       1.0000 0.21000  0.53300  0.05500  Biso   1.000  H
  H8       1.0000 0.32600  0.45600  0.04500  Biso   1.000  H
  Eu2      1.0000 0.74883  0.00310  0.90735  Biso   1.000  Eu
  C18      1.0000 0.50830  0.89460  0.66390  Biso   1.000  C
  C19      1.0000 0.53600  0.80060  0.62850  Biso   1.000  C
  H9       1.0000 0.60770  0.75940  0.65560  Biso   1.000  H
  C20      1.0000 0.45640  0.76780  0.55220  Biso   1.000  C
  C21      1.0000 0.35600  0.83210  0.51100  Biso   1.000  C
  H10      1.0000 0.30080  0.80960  0.46010  Biso   1.000  H
  C22      1.0000 0.33550  0.92770  0.54270  Biso   1.000  C
  C23      1.0000 0.40890  0.95680  0.62110  Biso   1.000  C
  H11      1.0000 0.39090  0.02040  0.64610  Biso   1.000  H
  C24      1.0000 0.23820  0.99680  0.49130  Biso   1.000  C
  C25      1.0000 0.15450  0.07140  0.54570  Biso   1.000  C
  C26      1.0000 0.13420  0.16650  0.51250  Biso   1.000  C
  H12      1.0000 0.18310  0.18610  0.45860  Biso   1.000  H
  C27      1.0000 0.04430  0.23380  0.55590  Biso   1.000  C
  C28      1.0000 0.97290  0.20470  0.63540  Biso   1.000  C
  H13      1.0000 0.90780  0.24890  0.66440  Biso   1.000  H
  C29      1.0000 0.99670  0.11090  0.67220  Biso   1.000  C
  C30      1.0000 0.08910  0.04560  0.62740  Biso   1.000  C
  H14      1.0000 0.10760  0.98240  0.65330  Biso   1.000  H
  C31      1.0000 0.58720  0.93250  0.74740  Biso   1.000  C
  C32      1.0000 0.47650  0.66530  0.51380  Biso   1.000  C
  C33      1.0000 0.02480  0.33460  0.51580  Biso   1.000  C
  C34      1.0000 0.91710  0.07480  0.75550  Biso   1.000  C
  O9       1.0000 0.52940  0.00240  0.79270  Biso   1.000  O
  O10      1.0000 0.70690  0.89560  0.76940  Biso   1.000  O
  O11      1.0000 0.58350  0.61710  0.53790  Biso   1.000  O
  O12      1.0000 0.38090  0.63480  0.45980  Biso   1.000  O
  O13      1.0000 0.09940  0.35710  0.44610  Biso   1.000  O
  O14      1.0000 0.93600  0.39230  0.55120  Biso   1.000  O
  O15      1.0000 0.79490  0.11270  0.77370  Biso   1.000  O
  O16      1.0000 0.97440  0.00800  0.80410  Biso   1.000  O
  H15      1.0000 0.29000  0.03300  0.44500  Biso   1.000  H
  H16      1.0000 0.17400  0.95600  0.45500  Biso   1.000  H
  Eu3      1.0000 0.24883  0.49690  0.40735  Biso   1.000  Eu
  C35      1.0000 0.00830  0.60540  0.16390  Biso   1.000  C
  C36      1.0000 0.03600  0.69940  0.12850  Biso   1.000  C
  H17      1.0000 0.10770  0.74060  0.15560  Biso   1.000  H
  C37      1.0000 0.95640  0.73220  0.05220  Biso   1.000  C
  C38      1.0000 0.85600  0.66790  0.01100  Biso   1.000  C
  H18      1.0000 0.80080  0.69040  0.96010  Biso   1.000  H
  C39      1.0000 0.83550  0.57230  0.04270  Biso   1.000  C
  C40      1.0000 0.90890  0.54320  0.12110  Biso   1.000  C
  H19      1.0000 0.89090  0.47960  0.14610  Biso   1.000  H
  C41      1.0000 0.73820  0.50320  0.99130  Biso   1.000  C
  C42      1.0000 0.65450  0.42860  0.04570  Biso   1.000  C
  C43      1.0000 0.63420  0.33350  0.01250  Biso   1.000  C
  H20      1.0000 0.68310  0.31390  0.95860  Biso   1.000  H
  C44      1.0000 0.54430  0.26620  0.05590  Biso   1.000  C
  C45      1.0000 0.47290  0.29530  0.13540  Biso   1.000  C
  H21      1.0000 0.40780  0.25110  0.16440  Biso   1.000  H
  C46      1.0000 0.49670  0.38910  0.17220  Biso   1.000  C
  C47      1.0000 0.58910  0.45440  0.12740  Biso   1.000  C
  H22      1.0000 0.60760  0.51760  0.15330  Biso   1.000  H
  C48      1.0000 0.08720  0.56750  0.24740  Biso   1.000  C
  C49      1.0000 0.97650  0.83470  0.01380  Biso   1.000  C
  C50      1.0000 0.52480  0.16540  0.01580  Biso   1.000  C
  C51      1.0000 0.41710  0.42520  0.25550  Biso   1.000  C
  O17      1.0000 0.02940  0.49760  0.29270  Biso   1.000  O
  O18      1.0000 0.20690  0.60440  0.26940  Biso   1.000  O
  O19      1.0000 0.08350  0.88290  0.03790  Biso   1.000  O
  O20      1.0000 0.88090  0.86520  0.95980  Biso   1.000  O
  O21      1.0000 0.59940  0.14290  0.94610  Biso   1.000  O
  O22      1.0000 0.43600  0.10770  0.05120  Biso   1.000  O
  O23      1.0000 0.29490  0.38730  0.27370  Biso   1.000  O
  O24      1.0000 0.47440  0.49200  0.30410  Biso   1.000  O
  H23      1.0000 0.79000  0.46700  0.94500  Biso   1.000  H
  H24      1.0000 0.67400  0.54400  0.95500  Biso   1.000  H
  Eu4      1.0000 0.25117  0.99690  0.09265  Biso   1.000  Eu
  C52      1.0000 0.49170  0.10540  0.33610  Biso   1.000  C
  C53      1.0000 0.46400  0.19940  0.37150  Biso   1.000  C
  H25      1.0000 0.39230  0.24060  0.34440  Biso   1.000  H
  C54      1.0000 0.54360  0.23220  0.44780  Biso   1.000  C
  C55      1.0000 0.64400  0.16790  0.48900  Biso   1.000  C
  H26      1.0000 0.69920  0.19040  0.53990  Biso   1.000  H
  C56      1.0000 0.66450  0.07230  0.45730  Biso   1.000  C
  C57      1.0000 0.59110  0.04320  0.37890  Biso   1.000  C
  H27      1.0000 0.60910  0.97960  0.35390  Biso   1.000  H
  C58      1.0000 0.76180  0.00320  0.50870  Biso   1.000  C
  C59      1.0000 0.84550  0.92860  0.45430  Biso   1.000  C
  C60      1.0000 0.86580  0.83350  0.48750  Biso   1.000  C
  H28      1.0000 0.81690  0.81390  0.54140  Biso   1.000  H
  C61      1.0000 0.95570  0.76620  0.44410  Biso   1.000  C
  C62      1.0000 0.02710  0.79530  0.36460  Biso   1.000  C
  H29      1.0000 0.09220  0.75110  0.33560  Biso   1.000  H
  C63      1.0000 0.00330  0.88910  0.32780  Biso   1.000  C
  C64      1.0000 0.91090  0.95440  0.37260  Biso   1.000  C
  H30      1.0000 0.89240  0.01760  0.34670  Biso   1.000  H
  C65      1.0000 0.41280  0.06750  0.25260  Biso   1.000  C
  C66      1.0000 0.52350  0.33470  0.48620  Biso   1.000  C
  C67      1.0000 0.97520  0.66540  0.48420  Biso   1.000  C
  C68      1.0000 0.08290  0.92520  0.24450  Biso   1.000  C
  O25      1.0000 0.47060  0.99760  0.20730  Biso   1.000  O
  O26      1.0000 0.29310  0.10440  0.23060  Biso   1.000  O
  O27      1.0000 0.41650  0.38290  0.46210  Biso   1.000  O
  O28      1.0000 0.61910  0.36520  0.54020  Biso   1.000  O
  O29      1.0000 0.90060  0.64290  0.55390  Biso   1.000  O
  O30      1.0000 0.06400  0.60770  0.44880  Biso   1.000  O
  O31      1.0000 0.20510  0.88730  0.22630  Biso   1.000  O
  O32      1.0000 0.02560  0.99200  0.19590  Biso   1.000  O
  H31      1.0000 0.71000  0.96700  0.55500  Biso   1.000  H
  H32      1.0000 0.82600  0.04400  0.54500  Biso   1.000  H
