data_image0
_cell_length_a       9.2275
_cell_length_b       13.5056
_cell_length_c       14.6122
_cell_angle_alpha    90
_cell_angle_beta     90.328
_cell_angle_gamma    90

_symmetry_space_group_name_H-M    "P 1"
_symmetry_int_tables_number       1

loop_
  _symmetry_equiv_pos_as_xyz
  'x, y, z'

loop_
  _atom_site_label
  _atom_site_occupancy
  _atom_site_fract_x
  _atom_site_fract_y
  _atom_site_fract_z
  _atom_site_thermal_displace_type
  _atom_site_B_iso_or_equiv
  _atom_site_type_symbol
  Gd1      1.0000 0.25108  0.00290  0.09275  Biso   1.000  Gd
  C1       1.0000 0.00370  0.11070  0.32830  Biso   1.000  C
  C2       1.0000 0.02880  0.20480  0.36490  Biso   1.000  C
  H1       1.0000 0.09480  0.24870  0.33610  Biso   1.000  H
  C3       1.0000 0.95590  0.23380  0.44430  Biso   1.000  C
  C4       1.0000 0.86530  0.16670  0.48800  Biso   1.000  C
  H2       1.0000 0.81640  0.18640  0.54200  Biso   1.000  H
  C5       1.0000 0.84460  0.07130  0.45440  Biso   1.000  C
  C6       1.0000 0.91210  0.04520  0.37240  Biso   1.000  C
  H3       1.0000 0.89490  0.98170  0.34670  Biso   1.000  H
  C7       1.0000 0.76020  0.99710  0.50970  Biso   1.000  C
  H4       1.0000 0.83000  0.95720  0.54580  Biso   1.000  H
  H5       1.0000 0.69940  0.03390  0.55380  Biso   1.000  H
  C8       1.0000 0.66400  0.92740  0.45710  Biso   1.000  C
  C9       1.0000 0.59020  0.95620  0.37870  Biso   1.000  C
  H6       1.0000 0.60770  0.02010  0.35390  Biso   1.000  H
  C10      1.0000 0.49160  0.89430  0.33580  Biso   1.000  C
  C11      1.0000 0.46520  0.80010  0.37130  Biso   1.000  C
  H7       1.0000 0.39460  0.75840  0.34370  Biso   1.000  H
  C12      1.0000 0.54300  0.76770  0.44770  Biso   1.000  C
  C13      1.0000 0.64250  0.83180  0.48890  Biso   1.000  C
  H8       1.0000 0.69700  0.80930  0.54020  Biso   1.000  H
  C14      1.0000 0.08310  0.07440  0.24490  Biso   1.000  C
  C15      1.0000 0.97610  0.33570  0.48500  Biso   1.000  C
  C16      1.0000 0.41210  0.93240  0.25220  Biso   1.000  C
  C17      1.0000 0.52450  0.66450  0.48630  Biso   1.000  C
  O1       1.0000 0.02680  0.00730  0.19680  Biso   1.000  O
  O2       1.0000 0.20530  0.11190  0.22601  Biso   1.000  O
  O3       1.0000 0.06600  0.39250  0.44940  Biso   1.000  O
  O4       1.0000 0.89880  0.35810  0.55322  Biso   1.000  O
  O5       1.0000 0.47020  0.00240  0.20628  Biso   1.000  O
  O6       1.0000 0.29240  0.89530  0.23014  Biso   1.000  O
  O7       1.0000 0.41710  0.61620  0.46150  Biso   1.000  O
  O8       1.0000 0.61980  0.63450  0.54180  Biso   1.000  O
  Gd2      1.0000 0.24892  0.50290  0.40725  Biso   1.000  Gd
  C18      1.0000 0.49630  0.61070  0.17170  Biso   1.000  C
  C19      1.0000 0.47120  0.70480  0.13510  Biso   1.000  C
  H9       1.0000 0.40520  0.74870  0.16390  Biso   1.000  H
  C20      1.0000 0.54410  0.73380  0.05570  Biso   1.000  C
  C21      1.0000 0.63470  0.66670  0.01200  Biso   1.000  C
  H10      1.0000 0.68360  0.68640  0.95800  Biso   1.000  H
  C22      1.0000 0.65540  0.57130  0.04560  Biso   1.000  C
  C23      1.0000 0.58790  0.54520  0.12760  Biso   1.000  C
  H11      1.0000 0.60510  0.48170  0.15330  Biso   1.000  H
  C24      1.0000 0.73980  0.49710  0.99030  Biso   1.000  C
  H12      1.0000 0.67000  0.45720  0.95420  Biso   1.000  H
  H13      1.0000 0.80060  0.53390  0.94620  Biso   1.000  H
  C25      1.0000 0.83600  0.42740  0.04290  Biso   1.000  C
  C26      1.0000 0.90980  0.45620  0.12130  Biso   1.000  C
  H14      1.0000 0.89230  0.52010  0.14610  Biso   1.000  H
  C27      1.0000 0.00840  0.39430  0.16420  Biso   1.000  C
  C28      1.0000 0.03480  0.30010  0.12870  Biso   1.000  C
  H15      1.0000 0.10540  0.25840  0.15630  Biso   1.000  H
  C29      1.0000 0.95700  0.26770  0.05230  Biso   1.000  C
  C30      1.0000 0.85750  0.33180  0.01110  Biso   1.000  C
  H16      1.0000 0.80300  0.30930  0.95980  Biso   1.000  H
  C31      1.0000 0.41690  0.57440  0.25510  Biso   1.000  C
  C32      1.0000 0.52390  0.83570  0.01500  Biso   1.000  C
  C33      1.0000 0.08790  0.43240  0.24780  Biso   1.000  C
  C34      1.0000 0.97550  0.16450  0.01370  Biso   1.000  C
  O9       1.0000 0.47320  0.50730  0.30320  Biso   1.000  O
  O10      1.0000 0.29470  0.61190  0.27399  Biso   1.000  O
  O11      1.0000 0.43400  0.89250  0.05060  Biso   1.000  O
  O12      1.0000 0.60120  0.85810  0.94678  Biso   1.000  O
  O13      1.0000 0.02980  0.50240  0.29372  Biso   1.000  O
  O14      1.0000 0.20760  0.39530  0.26986  Biso   1.000  O
  O15      1.0000 0.08290  0.11620  0.03850  Biso   1.000  O
  O16      1.0000 0.88020  0.13450  0.95820  Biso   1.000  O
  Gd3      1.0000 0.74892  0.99710  0.90725  Biso   1.000  Gd
  C35      1.0000 0.99630  0.88930  0.67170  Biso   1.000  C
  C36      1.0000 0.97120  0.79520  0.63510  Biso   1.000  C
  H17      1.0000 0.90520  0.75130  0.66390  Biso   1.000  H
  C37      1.0000 0.04410  0.76620  0.55570  Biso   1.000  C
  C38      1.0000 0.13470  0.83330  0.51200  Biso   1.000  C
  H18      1.0000 0.18360  0.81360  0.45800  Biso   1.000  H
  C39      1.0000 0.15540  0.92870  0.54560  Biso   1.000  C
  C40      1.0000 0.08790  0.95480  0.62760  Biso   1.000  C
  H19      1.0000 0.10510  0.01830  0.65330  Biso   1.000  H
  C41      1.0000 0.23980  0.00290  0.49030  Biso   1.000  C
  H20      1.0000 0.17000  0.04280  0.45420  Biso   1.000  H
  H21      1.0000 0.30060  0.96610  0.44620  Biso   1.000  H
  C42      1.0000 0.33600  0.07260  0.54290  Biso   1.000  C
  C43      1.0000 0.40980  0.04380  0.62130  Biso   1.000  C
  H22      1.0000 0.39230  0.97990  0.64610  Biso   1.000  H
  C44      1.0000 0.50840  0.10570  0.66420  Biso   1.000  C
  C45      1.0000 0.53480  0.19990  0.62870  Biso   1.000  C
  H23      1.0000 0.60540  0.24160  0.65630  Biso   1.000  H
  C46      1.0000 0.45700  0.23230  0.55230  Biso   1.000  C
  C47      1.0000 0.35750  0.16820  0.51110  Biso   1.000  C
  H24      1.0000 0.30300  0.19070  0.45980  Biso   1.000  H
  C48      1.0000 0.91690  0.92560  0.75510  Biso   1.000  C
  C49      1.0000 0.02390  0.66430  0.51500  Biso   1.000  C
  C50      1.0000 0.58790  0.06760  0.74780  Biso   1.000  C
  C51      1.0000 0.47550  0.33550  0.51370  Biso   1.000  C
  O17      1.0000 0.97320  0.99270  0.80320  Biso   1.000  O
  O18      1.0000 0.79470  0.88810  0.77399  Biso   1.000  O
  O19      1.0000 0.93400  0.60750  0.55060  Biso   1.000  O
  O20      1.0000 0.10120  0.64190  0.44678  Biso   1.000  O
  O21      1.0000 0.52980  0.99760  0.79372  Biso   1.000  O
  O22      1.0000 0.70760  0.10470  0.76986  Biso   1.000  O
  O23      1.0000 0.58290  0.38380  0.53850  Biso   1.000  O
  O24      1.0000 0.38020  0.36550  0.45820  Biso   1.000  O
  Gd4      1.0000 0.75108  0.49710  0.59275  Biso   1.000  Gd
  C52      1.0000 0.50370  0.38930  0.82830  Biso   1.000  C
  C53      1.0000 0.52880  0.29520  0.86490  Biso   1.000  C
  H25      1.0000 0.59480  0.25130  0.83610  Biso   1.000  H
  C54      1.0000 0.45590  0.26620  0.94430  Biso   1.000  C
  C55      1.0000 0.36530  0.33330  0.98800  Biso   1.000  C
  H26      1.0000 0.31640  0.31360  0.04200  Biso   1.000  H
  C56      1.0000 0.34460  0.42870  0.95440  Biso   1.000  C
  C57      1.0000 0.41210  0.45480  0.87240  Biso   1.000  C
  H27      1.0000 0.39490  0.51830  0.84670  Biso   1.000  H
  C58      1.0000 0.26020  0.50290  0.00970  Biso   1.000  C
  H28      1.0000 0.33000  0.54280  0.04580  Biso   1.000  H
  H29      1.0000 0.19940  0.46610  0.05380  Biso   1.000  H
  C59      1.0000 0.16400  0.57260  0.95710  Biso   1.000  C
  C60      1.0000 0.09020  0.54380  0.87870  Biso   1.000  C
  H30      1.0000 0.10770  0.47990  0.85390  Biso   1.000  H
  C61      1.0000 0.99160  0.60570  0.83580  Biso   1.000  C
  C62      1.0000 0.96520  0.69990  0.87130  Biso   1.000  C
  H31      1.0000 0.89460  0.74160  0.84370  Biso   1.000  H
  C63      1.0000 0.04300  0.73230  0.94770  Biso   1.000  C
  C64      1.0000 0.14250  0.66820  0.98890  Biso   1.000  C
  H32      1.0000 0.19700  0.69070  0.04020  Biso   1.000  H
  C65      1.0000 0.58310  0.42560  0.74490  Biso   1.000  C
  C66      1.0000 0.47610  0.16430  0.98500  Biso   1.000  C
  C67      1.0000 0.91210  0.56760  0.75220  Biso   1.000  C
  C68      1.0000 0.02450  0.83550  0.98630  Biso   1.000  C
  O25      1.0000 0.52680  0.49270  0.69680  Biso   1.000  O
  O26      1.0000 0.70530  0.38810  0.72601  Biso   1.000  O
  O27      1.0000 0.56600  0.10750  0.94940  Biso   1.000  O
  O28      1.0000 0.39880  0.14190  0.05322  Biso   1.000  O
  O29      1.0000 0.97020  0.49760  0.70628  Biso   1.000  O
  O30      1.0000 0.79240  0.60470  0.73014  Biso   1.000  O
  O31      1.0000 0.91710  0.88380  0.96150  Biso   1.000  O
  O32      1.0000 0.11980  0.86550  0.04180  Biso   1.000  O
