data_image0
_cell_length_a       9.2006
_cell_length_b       13.4378
_cell_length_c       14.5636
_cell_angle_alpha    90
_cell_angle_beta     90.356
_cell_angle_gamma    90

_symmetry_space_group_name_H-M    "P 1"
_symmetry_int_tables_number       1

loop_
  _symmetry_equiv_pos_as_xyz
  'x, y, z'

loop_
  _atom_site_label
  _atom_site_occupancy
  _atom_site_fract_x
  _atom_site_fract_y
  _atom_site_fract_z
  _atom_site_thermal_displace_type
  _atom_site_B_iso_or_equiv
  _atom_site_type_symbol
  Dy1      1.0000 0.25110  0.49698  0.59214  Biso   1.000  Dy
  C1       1.0000 0.00470  0.38890  0.82730  Biso   1.000  C
  C2       1.0000 0.02960  0.29440  0.86430  Biso   1.000  C
  H1       1.0000 0.09560  0.25020  0.83540  Biso   1.000  H
  C3       1.0000 0.95710  0.26520  0.94390  Biso   1.000  C
  C4       1.0000 0.86500  0.33280  0.98740  Biso   1.000  C
  H2       1.0000 0.81470  0.31290  0.04110  Biso   1.000  H
  C5       1.0000 0.84540  0.42880  0.95360  Biso   1.000  C
  C6       1.0000 0.91220  0.45410  0.87170  Biso   1.000  C
  H3       1.0000 0.89410  0.51770  0.84540  Biso   1.000  H
  C7       1.0000 0.76060  0.50300  0.00940  Biso   1.000  C
  H4       1.0000 0.69970  0.46580  0.05350  Biso   1.000  H
  H5       1.0000 0.83050  0.54320  0.04570  Biso   1.000  H
  C8       1.0000 0.66400  0.57300  0.95690  Biso   1.000  C
  C9       1.0000 0.58980  0.54350  0.87860  Biso   1.000  C
  H6       1.0000 0.60700  0.47910  0.85410  Biso   1.000  H
  C10      1.0000 0.49080  0.60590  0.83510  Biso   1.000  C
  C11      1.0000 0.46350  0.70010  0.87140  Biso   1.000  C
  H7       1.0000 0.39160  0.74160  0.84430  Biso   1.000  H
  C12      1.0000 0.54210  0.73300  0.94750  Biso   1.000  C
  C13      1.0000 0.64260  0.66870  0.98950  Biso   1.000  C
  H8       1.0000 0.69700  0.69120  0.04110  Biso   1.000  H
  C14      1.0000 0.08380  0.42530  0.74330  Biso   1.000  C
  C15      1.0000 0.97660  0.16280  0.98430  Biso   1.000  C
  C16      1.0000 0.41150  0.56740  0.75150  Biso   1.000  C
  C17      1.0000 0.52370  0.83660  0.98620  Biso   1.000  C
  O1       1.0000 0.02680  0.49260  0.69511  Biso   1.000  O
  O2       1.0000 0.20670  0.38850  0.72479  Biso   1.000  O
  O3       1.0000 0.06830  0.10680  0.94991  Biso   1.000  O
  O4       1.0000 0.89850  0.14030  0.05270  Biso   1.000  O
  O5       1.0000 0.47030  0.49760  0.70525  Biso   1.000  O
  O6       1.0000 0.29120  0.60430  0.72891  Biso   1.000  O
  O7       1.0000 0.41470  0.88490  0.96179  Biso   1.000  O
  O8       1.0000 0.61970  0.86730  0.04034  Biso   1.000  O
  Dy2      1.0000 0.24890  0.99698  0.90786  Biso   1.000  Dy
  C18      1.0000 0.49530  0.88890  0.67270  Biso   1.000  C
  C19      1.0000 0.47040  0.79440  0.63570  Biso   1.000  C
  H9       1.0000 0.40440  0.75020  0.66460  Biso   1.000  H
  C20      1.0000 0.54290  0.76520  0.55610  Biso   1.000  C
  C21      1.0000 0.63500  0.83280  0.51260  Biso   1.000  C
  H10      1.0000 0.68530  0.81290  0.45890  Biso   1.000  H
  C22      1.0000 0.65460  0.92880  0.54640  Biso   1.000  C
  C23      1.0000 0.58780  0.95410  0.62830  Biso   1.000  C
  H11      1.0000 0.60590  0.01770  0.65460  Biso   1.000  H
  C24      1.0000 0.73940  0.00300  0.49060  Biso   1.000  C
  H12      1.0000 0.80030  0.96580  0.44650  Biso   1.000  H
  H13      1.0000 0.66950  0.04320  0.45430  Biso   1.000  H
  C25      1.0000 0.83600  0.07300  0.54310  Biso   1.000  C
  C26      1.0000 0.91020  0.04350  0.62140  Biso   1.000  C
  H14      1.0000 0.89300  0.97910  0.64590  Biso   1.000  H
  C27      1.0000 0.00920  0.10590  0.66490  Biso   1.000  C
  C28      1.0000 0.03650  0.20010  0.62860  Biso   1.000  C
  H15      1.0000 0.10840  0.24160  0.65570  Biso   1.000  H
  C29      1.0000 0.95790  0.23300  0.55250  Biso   1.000  C
  C30      1.0000 0.85740  0.16870  0.51050  Biso   1.000  C
  H16      1.0000 0.80300  0.19120  0.45890  Biso   1.000  H
  C31      1.0000 0.41620  0.92530  0.75670  Biso   1.000  C
  C32      1.0000 0.52340  0.66280  0.51570  Biso   1.000  C
  C33      1.0000 0.08850  0.06740  0.74850  Biso   1.000  C
  C34      1.0000 0.97630  0.33660  0.51380  Biso   1.000  C
  O9       1.0000 0.47320  0.99260  0.80489  Biso   1.000  O
  O10      1.0000 0.29330  0.88850  0.77521  Biso   1.000  O
  O11      1.0000 0.43170  0.60680  0.55009  Biso   1.000  O
  O12      1.0000 0.60150  0.64030  0.44730  Biso   1.000  O
  O13      1.0000 0.02970  0.99760  0.79475  Biso   1.000  O
  O14      1.0000 0.20880  0.10430  0.77109  Biso   1.000  O
  O15      1.0000 0.08530  0.38490  0.53821  Biso   1.000  O
  O16      1.0000 0.88030  0.36730  0.45966  Biso   1.000  O
  Dy3      1.0000 0.74890  0.50302  0.40786  Biso   1.000  Dy
  C35      1.0000 0.99530  0.61110  0.17270  Biso   1.000  C
  C36      1.0000 0.97040  0.70560  0.13570  Biso   1.000  C
  H17      1.0000 0.90440  0.74980  0.16460  Biso   1.000  H
  C37      1.0000 0.04290  0.73480  0.05610  Biso   1.000  C
  C38      1.0000 0.13500  0.66720  0.01260  Biso   1.000  C
  H18      1.0000 0.18530  0.68710  0.95890  Biso   1.000  H
  C39      1.0000 0.15460  0.57120  0.04640  Biso   1.000  C
  C40      1.0000 0.08780  0.54590  0.12830  Biso   1.000  C
  H19      1.0000 0.10590  0.48230  0.15460  Biso   1.000  H
  C41      1.0000 0.23940  0.49700  0.99060  Biso   1.000  C
  H20      1.0000 0.30030  0.53420  0.94650  Biso   1.000  H
  H21      1.0000 0.16950  0.45680  0.95430  Biso   1.000  H
  C42      1.0000 0.33600  0.42700  0.04310  Biso   1.000  C
  C43      1.0000 0.41020  0.45650  0.12140  Biso   1.000  C
  H22      1.0000 0.39300  0.52090  0.14590  Biso   1.000  H
  C44      1.0000 0.50920  0.39410  0.16490  Biso   1.000  C
  C45      1.0000 0.53650  0.29990  0.12860  Biso   1.000  C
  H23      1.0000 0.60840  0.25840  0.15570  Biso   1.000  H
  C46      1.0000 0.45790  0.26700  0.05250  Biso   1.000  C
  C47      1.0000 0.35740  0.33130  0.01050  Biso   1.000  C
  H24      1.0000 0.30300  0.30880  0.95890  Biso   1.000  H
  C48      1.0000 0.91620  0.57470  0.25670  Biso   1.000  C
  C49      1.0000 0.02340  0.83720  0.01570  Biso   1.000  C
  C50      1.0000 0.58850  0.43260  0.24850  Biso   1.000  C
  C51      1.0000 0.47630  0.16340  0.01380  Biso   1.000  C
  O17      1.0000 0.97320  0.50740  0.30489  Biso   1.000  O
  O18      1.0000 0.79330  0.61150  0.27521  Biso   1.000  O
  O19      1.0000 0.93170  0.89320  0.05009  Biso   1.000  O
  O20      1.0000 0.10150  0.85970  0.94730  Biso   1.000  O
  O21      1.0000 0.52970  0.50240  0.29475  Biso   1.000  O
  O22      1.0000 0.70880  0.39570  0.27109  Biso   1.000  O
  O23      1.0000 0.58530  0.11510  0.03821  Biso   1.000  O
  O24      1.0000 0.38030  0.13270  0.95966  Biso   1.000  O
  Dy4      1.0000 0.75110  0.00302  0.09214  Biso   1.000  Dy
  C52      1.0000 0.50470  0.11110  0.32730  Biso   1.000  C
  C53      1.0000 0.52960  0.20560  0.36430  Biso   1.000  C
  H25      1.0000 0.59560  0.24980  0.33540  Biso   1.000  H
  C54      1.0000 0.45710  0.23480  0.44390  Biso   1.000  C
  C55      1.0000 0.36500  0.16720  0.48740  Biso   1.000  C
  H26      1.0000 0.31470  0.18710  0.54110  Biso   1.000  H
  C56      1.0000 0.34540  0.07120  0.45360  Biso   1.000  C
  C57      1.0000 0.41220  0.04590  0.37170  Biso   1.000  C
  H27      1.0000 0.39410  0.98230  0.34540  Biso   1.000  H
  C58      1.0000 0.26060  0.99700  0.50940  Biso   1.000  C
  H28      1.0000 0.19970  0.03420  0.55350  Biso   1.000  H
  H29      1.0000 0.33050  0.95680  0.54570  Biso   1.000  H
  C59      1.0000 0.16400  0.92700  0.45690  Biso   1.000  C
  C60      1.0000 0.08980  0.95650  0.37860  Biso   1.000  C
  H30      1.0000 0.10700  0.02090  0.35410  Biso   1.000  H
  C61      1.0000 0.99080  0.89410  0.33510  Biso   1.000  C
  C62      1.0000 0.96350  0.79990  0.37140  Biso   1.000  C
  H31      1.0000 0.89160  0.75840  0.34430  Biso   1.000  H
  C63      1.0000 0.04210  0.76700  0.44750  Biso   1.000  C
  C64      1.0000 0.14260  0.83130  0.48950  Biso   1.000  C
  H32      1.0000 0.19700  0.80880  0.54110  Biso   1.000  H
  C65      1.0000 0.58380  0.07470  0.24330  Biso   1.000  C
  C66      1.0000 0.47660  0.33720  0.48430  Biso   1.000  C
  C67      1.0000 0.91150  0.93260  0.25150  Biso   1.000  C
  C68      1.0000 0.02370  0.66340  0.48620  Biso   1.000  C
  O25      1.0000 0.52680  0.00740  0.19511  Biso   1.000  O
  O26      1.0000 0.70670  0.11150  0.22479  Biso   1.000  O
  O27      1.0000 0.56830  0.39320  0.44991  Biso   1.000  O
  O28      1.0000 0.39850  0.35970  0.55270  Biso   1.000  O
  O29      1.0000 0.97030  0.00240  0.20525  Biso   1.000  O
  O30      1.0000 0.79120  0.89570  0.22891  Biso   1.000  O
  O31      1.0000 0.91470  0.61510  0.46179  Biso   1.000  O
  O32      1.0000 0.11970  0.63270  0.54034  Biso   1.000  O
