data_image0
_cell_length_a       15.6958
_cell_length_b       10.6984
_cell_length_c       23.2644
_cell_angle_alpha    90
_cell_angle_beta     90
_cell_angle_gamma    90

_symmetry_space_group_name_H-M    "P 1"
_symmetry_int_tables_number       1

loop_
  _symmetry_equiv_pos_as_xyz
  'x, y, z'

loop_
  _atom_site_label
  _atom_site_occupancy
  _atom_site_fract_x
  _atom_site_fract_y
  _atom_site_fract_z
  _atom_site_thermal_displace_type
  _atom_site_B_iso_or_equiv
  _atom_site_type_symbol
  Tm1      1.0000 0.54784  0.03063  0.08413  Biso   1.000  Tm
  C1       1.0000 0.40597  0.25010  0.20308  Biso   1.000  C
  C2       1.0000 0.38275  0.20290  0.25600  Biso   1.000  C
  H1       1.0000 0.40030  0.12140  0.26700  Biso   1.000  H
  C3       1.0000 0.33362  0.27490  0.29325  Biso   1.000  C
  C4       1.0000 0.30754  0.39290  0.27620  Biso   1.000  C
  H2       1.0000 0.27150  0.44020  0.30080  Biso   1.000  H
  C5       1.0000 0.33299  0.44380  0.22371  Biso   1.000  C
  C6       1.0000 0.38220  0.37130  0.18731  Biso   1.000  C
  H3       1.0000 0.40000  0.40410  0.15130  Biso   1.000  H
  C7       1.0000 0.30960  0.57790  0.20910  Biso   1.000  C
  H4       1.0000 0.25340  0.59650  0.22650  Biso   1.000  H
  H5       1.0000 0.35180  0.63390  0.22740  Biso   1.000  H
  C8       1.0000 0.30529  0.60980  0.14590  Biso   1.000  C
  C9       1.0000 0.23550  0.57290  0.11281  Biso   1.000  C
  H6       1.0000 0.19080  0.52640  0.13020  Biso   1.000  H
  C10      1.0000 0.23047  0.60310  0.05457  Biso   1.000  C
  C11      1.0000 0.29650  0.67130  0.02919  Biso   1.000  C
  H7       1.0000 0.29450  0.68990  0.98930  Biso   1.000  H
  C12      1.0000 0.36495  0.71170  0.06201  Biso   1.000  C
  C13      1.0000 0.36922  0.68060  0.12003  Biso   1.000  C
  H8       1.0000 0.41640  0.70790  0.14230  Biso   1.000  H
  C14      1.0000 0.45715  0.17420  0.16140  Biso   1.000  C
  C15      1.0000 0.30770  0.22190  0.35073  Biso   1.000  C
  C16      1.0000 0.15502  0.56670  0.01886  Biso   1.000  C
  C17      1.0000 0.43058  0.79530  0.03476  Biso   1.000  C
  O1       1.0000 0.49112  0.22620  0.11940  Biso   1.000  O
  O2       1.0000 0.46495  0.05630  0.16900  Biso   1.000  O
  O3       1.0000 0.65783  0.12270  0.13257  Biso   1.000  O
  O4       1.0000 0.25138  0.27700  0.37920  Biso   1.000  O
  O5       1.0000 0.41593  0.05420  0.04274  Biso   1.000  O
  O6       1.0000 0.66683  0.94860  0.03448  Biso   1.000  O
  O7       1.0000 0.57971  0.17900  0.01735  Biso   1.000  O
  O8       1.0000 0.49058  0.83430  0.06598  Biso   1.000  O
  Tm2      1.0000 0.95216  0.46937  0.58413  Biso   1.000  Tm
  C18      1.0000 0.09403  0.24990  0.70308  Biso   1.000  C
  C19      1.0000 0.11725  0.29710  0.75600  Biso   1.000  C
  H9       1.0000 0.09970  0.37860  0.76700  Biso   1.000  H
  C20      1.0000 0.16638  0.22510  0.79325  Biso   1.000  C
  C21      1.0000 0.19246  0.10710  0.77620  Biso   1.000  C
  H10      1.0000 0.22850  0.05980  0.80080  Biso   1.000  H
  C22      1.0000 0.16701  0.05620  0.72371  Biso   1.000  C
  C23      1.0000 0.11780  0.12870  0.68731  Biso   1.000  C
  H11      1.0000 0.10000  0.09590  0.65130  Biso   1.000  H
  C24      1.0000 0.19040  0.92210  0.70910  Biso   1.000  C
  H12      1.0000 0.24660  0.90350  0.72650  Biso   1.000  H
  H13      1.0000 0.14820  0.86610  0.72740  Biso   1.000  H
  C25      1.0000 0.19471  0.89020  0.64590  Biso   1.000  C
  C26      1.0000 0.26450  0.92710  0.61281  Biso   1.000  C
  H14      1.0000 0.30920  0.97360  0.63020  Biso   1.000  H
  C27      1.0000 0.26953  0.89690  0.55457  Biso   1.000  C
  C28      1.0000 0.20350  0.82870  0.52919  Biso   1.000  C
  H15      1.0000 0.20550  0.81010  0.48930  Biso   1.000  H
  C29      1.0000 0.13505  0.78830  0.56201  Biso   1.000  C
  C30      1.0000 0.13078  0.81940  0.62003  Biso   1.000  C
  H16      1.0000 0.08360  0.79210  0.64230  Biso   1.000  H
  C31      1.0000 0.04285  0.32580  0.66140  Biso   1.000  C
  C32      1.0000 0.19230  0.27810  0.85073  Biso   1.000  C
  C33      1.0000 0.34498  0.93330  0.51886  Biso   1.000  C
  C34      1.0000 0.06942  0.70470  0.53476  Biso   1.000  C
  O9       1.0000 0.00888  0.27380  0.61940  Biso   1.000  O
  O10      1.0000 0.03505  0.44370  0.66900  Biso   1.000  O
  O11      1.0000 0.84217  0.37730  0.63257  Biso   1.000  O
  O12      1.0000 0.24862  0.22300  0.87920  Biso   1.000  O
  O13      1.0000 0.08407  0.44580  0.54274  Biso   1.000  O
  O14      1.0000 0.83317  0.55140  0.53448  Biso   1.000  O
  O15      1.0000 0.92029  0.32100  0.51735  Biso   1.000  O
  O16      1.0000 0.00942  0.66570  0.56598  Biso   1.000  O
  Tm3      1.0000 0.45216  0.03063  0.41587  Biso   1.000  Tm
  C35      1.0000 0.59403  0.25010  0.29692  Biso   1.000  C
  C36      1.0000 0.61725  0.20290  0.24400  Biso   1.000  C
  H17      1.0000 0.59970  0.12140  0.23300  Biso   1.000  H
  C37      1.0000 0.66638  0.27490  0.20675  Biso   1.000  C
  C38      1.0000 0.69246  0.39290  0.22380  Biso   1.000  C
  H18      1.0000 0.72850  0.44020  0.19920  Biso   1.000  H
  C39      1.0000 0.66701  0.44380  0.27629  Biso   1.000  C
  C40      1.0000 0.61780  0.37130  0.31269  Biso   1.000  C
  H19      1.0000 0.60000  0.40410  0.34870  Biso   1.000  H
  C41      1.0000 0.69040  0.57790  0.29090  Biso   1.000  C
  H20      1.0000 0.74660  0.59650  0.27350  Biso   1.000  H
  H21      1.0000 0.64820  0.63390  0.27260  Biso   1.000  H
  C42      1.0000 0.69471  0.60980  0.35410  Biso   1.000  C
  C43      1.0000 0.76450  0.57290  0.38719  Biso   1.000  C
  H22      1.0000 0.80920  0.52640  0.36980  Biso   1.000  H
  C44      1.0000 0.76953  0.60310  0.44543  Biso   1.000  C
  C45      1.0000 0.70350  0.67130  0.47081  Biso   1.000  C
  H23      1.0000 0.70550  0.68990  0.51070  Biso   1.000  H
  C46      1.0000 0.63505  0.71170  0.43799  Biso   1.000  C
  C47      1.0000 0.63078  0.68060  0.37997  Biso   1.000  C
  H24      1.0000 0.58360  0.70790  0.35770  Biso   1.000  H
  C48      1.0000 0.54285  0.17420  0.33860  Biso   1.000  C
  C49      1.0000 0.69230  0.22190  0.14927  Biso   1.000  C
  C50      1.0000 0.84498  0.56670  0.48114  Biso   1.000  C
  C51      1.0000 0.56942  0.79530  0.46524  Biso   1.000  C
  O17      1.0000 0.50888  0.22620  0.38060  Biso   1.000  O
  O18      1.0000 0.53505  0.05630  0.33100  Biso   1.000  O
  O19      1.0000 0.34217  0.12270  0.36743  Biso   1.000  O
  O20      1.0000 0.74862  0.27700  0.12080  Biso   1.000  O
  O21      1.0000 0.58407  0.05420  0.45726  Biso   1.000  O
  O22      1.0000 0.33317  0.94860  0.46552  Biso   1.000  O
  O23      1.0000 0.42029  0.17900  0.48265  Biso   1.000  O
  O24      1.0000 0.50942  0.83430  0.43402  Biso   1.000  O
  Tm4      1.0000 0.04784  0.46937  0.91587  Biso   1.000  Tm
  C52      1.0000 0.90597  0.24990  0.79692  Biso   1.000  C
  C53      1.0000 0.88275  0.29710  0.74400  Biso   1.000  C
  H25      1.0000 0.90030  0.37860  0.73300  Biso   1.000  H
  C54      1.0000 0.83362  0.22510  0.70675  Biso   1.000  C
  C55      1.0000 0.80754  0.10710  0.72380  Biso   1.000  C
  H26      1.0000 0.77150  0.05980  0.69920  Biso   1.000  H
  C56      1.0000 0.83299  0.05620  0.77629  Biso   1.000  C
  C57      1.0000 0.88220  0.12870  0.81269  Biso   1.000  C
  H27      1.0000 0.90000  0.09590  0.84870  Biso   1.000  H
  C58      1.0000 0.80960  0.92210  0.79090  Biso   1.000  C
  H28      1.0000 0.75340  0.90350  0.77350  Biso   1.000  H
  H29      1.0000 0.85180  0.86610  0.77260  Biso   1.000  H
  C59      1.0000 0.80529  0.89020  0.85410  Biso   1.000  C
  C60      1.0000 0.73550  0.92710  0.88719  Biso   1.000  C
  H30      1.0000 0.69080  0.97360  0.86980  Biso   1.000  H
  C61      1.0000 0.73047  0.89690  0.94543  Biso   1.000  C
  C62      1.0000 0.79650  0.82870  0.97081  Biso   1.000  C
  H31      1.0000 0.79450  0.81010  0.01070  Biso   1.000  H
  C63      1.0000 0.86495  0.78830  0.93799  Biso   1.000  C
  C64      1.0000 0.86922  0.81940  0.87997  Biso   1.000  C
  H32      1.0000 0.91640  0.79210  0.85770  Biso   1.000  H
  C65      1.0000 0.95715  0.32580  0.83860  Biso   1.000  C
  C66      1.0000 0.80770  0.27810  0.64927  Biso   1.000  C
  C67      1.0000 0.65502  0.93330  0.98114  Biso   1.000  C
  C68      1.0000 0.93058  0.70470  0.96524  Biso   1.000  C
  O25      1.0000 0.99112  0.27380  0.88060  Biso   1.000  O
  O26      1.0000 0.96495  0.44370  0.83100  Biso   1.000  O
  O27      1.0000 0.15783  0.37730  0.86743  Biso   1.000  O
  O28      1.0000 0.75138  0.22300  0.62080  Biso   1.000  O
  O29      1.0000 0.91593  0.44580  0.95726  Biso   1.000  O
  O30      1.0000 0.16683  0.55140  0.96552  Biso   1.000  O
  O31      1.0000 0.07971  0.32100  0.98265  Biso   1.000  O
  O32      1.0000 0.99058  0.66570  0.93402  Biso   1.000  O
  Tm5      1.0000 0.45216  0.96937  0.91587  Biso   1.000  Tm
  C69      1.0000 0.59403  0.74990  0.79692  Biso   1.000  C
  C70      1.0000 0.61725  0.79710  0.74400  Biso   1.000  C
  H33      1.0000 0.59970  0.87860  0.73300  Biso   1.000  H
  C71      1.0000 0.66638  0.72510  0.70675  Biso   1.000  C
  C72      1.0000 0.69246  0.60710  0.72380  Biso   1.000  C
  H34      1.0000 0.72850  0.55980  0.69920  Biso   1.000  H
  C73      1.0000 0.66701  0.55620  0.77629  Biso   1.000  C
  C74      1.0000 0.61780  0.62870  0.81269  Biso   1.000  C
  H35      1.0000 0.60000  0.59590  0.84870  Biso   1.000  H
  C75      1.0000 0.69040  0.42210  0.79090  Biso   1.000  C
  H36      1.0000 0.74660  0.40350  0.77350  Biso   1.000  H
  H37      1.0000 0.64820  0.36610  0.77260  Biso   1.000  H
  C76      1.0000 0.69471  0.39020  0.85410  Biso   1.000  C
  C77      1.0000 0.76450  0.42710  0.88719  Biso   1.000  C
  H38      1.0000 0.80920  0.47360  0.86980  Biso   1.000  H
  C78      1.0000 0.76953  0.39690  0.94543  Biso   1.000  C
  C79      1.0000 0.70350  0.32870  0.97081  Biso   1.000  C
  H39      1.0000 0.70550  0.31010  0.01070  Biso   1.000  H
  C80      1.0000 0.63505  0.28830  0.93799  Biso   1.000  C
  C81      1.0000 0.63078  0.31940  0.87997  Biso   1.000  C
  H40      1.0000 0.58360  0.29210  0.85770  Biso   1.000  H
  C82      1.0000 0.54285  0.82580  0.83860  Biso   1.000  C
  C83      1.0000 0.69230  0.77810  0.64927  Biso   1.000  C
  C84      1.0000 0.84498  0.43330  0.98114  Biso   1.000  C
  C85      1.0000 0.56942  0.20470  0.96524  Biso   1.000  C
  O33      1.0000 0.50888  0.77380  0.88060  Biso   1.000  O
  O34      1.0000 0.53505  0.94370  0.83100  Biso   1.000  O
  O35      1.0000 0.34217  0.87730  0.86743  Biso   1.000  O
  O36      1.0000 0.74862  0.72300  0.62080  Biso   1.000  O
  O37      1.0000 0.58407  0.94580  0.95726  Biso   1.000  O
  O38      1.0000 0.33317  0.05140  0.96552  Biso   1.000  O
  O39      1.0000 0.42029  0.82100  0.98265  Biso   1.000  O
  O40      1.0000 0.50942  0.16570  0.93402  Biso   1.000  O
  Tm6      1.0000 0.04784  0.53063  0.41587  Biso   1.000  Tm
  C86      1.0000 0.90597  0.75010  0.29692  Biso   1.000  C
  C87      1.0000 0.88275  0.70290  0.24400  Biso   1.000  C
  H41      1.0000 0.90030  0.62140  0.23300  Biso   1.000  H
  C88      1.0000 0.83362  0.77490  0.20675  Biso   1.000  C
  C89      1.0000 0.80754  0.89290  0.22380  Biso   1.000  C
  H42      1.0000 0.77150  0.94020  0.19920  Biso   1.000  H
  C90      1.0000 0.83299  0.94380  0.27629  Biso   1.000  C
  C91      1.0000 0.88220  0.87130  0.31269  Biso   1.000  C
  H43      1.0000 0.90000  0.90410  0.34870  Biso   1.000  H
  C92      1.0000 0.80960  0.07790  0.29090  Biso   1.000  C
  H44      1.0000 0.75340  0.09650  0.27350  Biso   1.000  H
  H45      1.0000 0.85180  0.13390  0.27260  Biso   1.000  H
  C93      1.0000 0.80529  0.10980  0.35410  Biso   1.000  C
  C94      1.0000 0.73550  0.07290  0.38719  Biso   1.000  C
  H46      1.0000 0.69080  0.02640  0.36980  Biso   1.000  H
  C95      1.0000 0.73047  0.10310  0.44543  Biso   1.000  C
  C96      1.0000 0.79650  0.17130  0.47081  Biso   1.000  C
  H47      1.0000 0.79450  0.18990  0.51070  Biso   1.000  H
  C97      1.0000 0.86495  0.21170  0.43799  Biso   1.000  C
  C98      1.0000 0.86922  0.18060  0.37997  Biso   1.000  C
  H48      1.0000 0.91640  0.20790  0.35770  Biso   1.000  H
  C99      1.0000 0.95715  0.67420  0.33860  Biso   1.000  C
  C100     1.0000 0.80770  0.72190  0.14927  Biso   1.000  C
  C101     1.0000 0.65502  0.06670  0.48114  Biso   1.000  C
  C102     1.0000 0.93058  0.29530  0.46524  Biso   1.000  C
  O41      1.0000 0.99112  0.72620  0.38060  Biso   1.000  O
  O42      1.0000 0.96495  0.55630  0.33100  Biso   1.000  O
  O43      1.0000 0.15783  0.62270  0.36743  Biso   1.000  O
  O44      1.0000 0.75138  0.77700  0.12080  Biso   1.000  O
  O45      1.0000 0.91593  0.55420  0.45726  Biso   1.000  O
  O46      1.0000 0.16683  0.44860  0.46552  Biso   1.000  O
  O47      1.0000 0.07971  0.67900  0.48265  Biso   1.000  O
  O48      1.0000 0.99058  0.33430  0.43402  Biso   1.000  O
  Tm7      1.0000 0.54784  0.96937  0.58413  Biso   1.000  Tm
  C103     1.0000 0.40597  0.74990  0.70308  Biso   1.000  C
  C104     1.0000 0.38275  0.79710  0.75600  Biso   1.000  C
  H49      1.0000 0.40030  0.87860  0.76700  Biso   1.000  H
  C105     1.0000 0.33362  0.72510  0.79325  Biso   1.000  C
  C106     1.0000 0.30754  0.60710  0.77620  Biso   1.000  C
  H50      1.0000 0.27150  0.55980  0.80080  Biso   1.000  H
  C107     1.0000 0.33299  0.55620  0.72371  Biso   1.000  C
  C108     1.0000 0.38220  0.62870  0.68731  Biso   1.000  C
  H51      1.0000 0.40000  0.59590  0.65130  Biso   1.000  H
  C109     1.0000 0.30960  0.42210  0.70910  Biso   1.000  C
  H52      1.0000 0.25340  0.40350  0.72650  Biso   1.000  H
  H53      1.0000 0.35180  0.36610  0.72740  Biso   1.000  H
  C110     1.0000 0.30529  0.39020  0.64590  Biso   1.000  C
  C111     1.0000 0.23550  0.42710  0.61281  Biso   1.000  C
  H54      1.0000 0.19080  0.47360  0.63020  Biso   1.000  H
  C112     1.0000 0.23047  0.39690  0.55457  Biso   1.000  C
  C113     1.0000 0.29650  0.32870  0.52919  Biso   1.000  C
  H55      1.0000 0.29450  0.31010  0.48930  Biso   1.000  H
  C114     1.0000 0.36495  0.28830  0.56201  Biso   1.000  C
  C115     1.0000 0.36922  0.31940  0.62003  Biso   1.000  C
  H56      1.0000 0.41640  0.29210  0.64230  Biso   1.000  H
  C116     1.0000 0.45715  0.82580  0.66140  Biso   1.000  C
  C117     1.0000 0.30770  0.77810  0.85073  Biso   1.000  C
  C118     1.0000 0.15502  0.43330  0.51886  Biso   1.000  C
  C119     1.0000 0.43058  0.20470  0.53476  Biso   1.000  C
  O49      1.0000 0.49112  0.77380  0.61940  Biso   1.000  O
  O50      1.0000 0.46495  0.94370  0.66900  Biso   1.000  O
  O51      1.0000 0.65783  0.87730  0.63257  Biso   1.000  O
  O52      1.0000 0.25138  0.72300  0.87920  Biso   1.000  O
  O53      1.0000 0.41593  0.94580  0.54274  Biso   1.000  O
  O54      1.0000 0.66683  0.05140  0.53448  Biso   1.000  O
  O55      1.0000 0.57971  0.82100  0.51735  Biso   1.000  O
  O56      1.0000 0.49058  0.16570  0.56598  Biso   1.000  O
  Tm8      1.0000 0.95216  0.53063  0.08413  Biso   1.000  Tm
  C120     1.0000 0.09403  0.75010  0.20308  Biso   1.000  C
  C121     1.0000 0.11725  0.70290  0.25600  Biso   1.000  C
  H57      1.0000 0.09970  0.62140  0.26700  Biso   1.000  H
  C122     1.0000 0.16638  0.77490  0.29325  Biso   1.000  C
  C123     1.0000 0.19246  0.89290  0.27620  Biso   1.000  C
  H58      1.0000 0.22850  0.94020  0.30080  Biso   1.000  H
  C124     1.0000 0.16701  0.94380  0.22371  Biso   1.000  C
  C125     1.0000 0.11780  0.87130  0.18731  Biso   1.000  C
  H59      1.0000 0.10000  0.90410  0.15130  Biso   1.000  H
  C126     1.0000 0.19040  0.07790  0.20910  Biso   1.000  C
  H60      1.0000 0.24660  0.09650  0.22650  Biso   1.000  H
  H61      1.0000 0.14820  0.13390  0.22740  Biso   1.000  H
  C127     1.0000 0.19471  0.10980  0.14590  Biso   1.000  C
  C128     1.0000 0.26450  0.07290  0.11281  Biso   1.000  C
  H62      1.0000 0.30920  0.02640  0.13020  Biso   1.000  H
  C129     1.0000 0.26953  0.10310  0.05457  Biso   1.000  C
  C130     1.0000 0.20350  0.17130  0.02919  Biso   1.000  C
  H63      1.0000 0.20550  0.18990  0.98930  Biso   1.000  H
  C131     1.0000 0.13505  0.21170  0.06201  Biso   1.000  C
  C132     1.0000 0.13078  0.18060  0.12003  Biso   1.000  C
  H64      1.0000 0.08360  0.20790  0.14230  Biso   1.000  H
  C133     1.0000 0.04285  0.67420  0.16140  Biso   1.000  C
  C134     1.0000 0.19230  0.72190  0.35073  Biso   1.000  C
  C135     1.0000 0.34498  0.06670  0.01886  Biso   1.000  C
  C136     1.0000 0.06942  0.29530  0.03476  Biso   1.000  C
  O57      1.0000 0.00888  0.72620  0.11940  Biso   1.000  O
  O58      1.0000 0.03505  0.55630  0.16900  Biso   1.000  O
  O59      1.0000 0.84217  0.62270  0.13257  Biso   1.000  O
  O60      1.0000 0.24862  0.77700  0.37920  Biso   1.000  O
  O61      1.0000 0.08407  0.55420  0.04274  Biso   1.000  O
  O62      1.0000 0.83317  0.44860  0.03448  Biso   1.000  O
  O63      1.0000 0.92029  0.67900  0.01735  Biso   1.000  O
  O64      1.0000 0.00942  0.33430  0.06598  Biso   1.000  O
