data_image0
_cell_length_a       15.6733
_cell_length_b       10.7028
_cell_length_c       23.2631
_cell_angle_alpha    90
_cell_angle_beta     90
_cell_angle_gamma    90

_symmetry_space_group_name_H-M    "P 1"
_symmetry_int_tables_number       1

loop_
  _symmetry_equiv_pos_as_xyz
  'x, y, z'

loop_
  _atom_site_label
  _atom_site_occupancy
  _atom_site_fract_x
  _atom_site_fract_y
  _atom_site_fract_z
  _atom_site_thermal_displace_type
  _atom_site_B_iso_or_equiv
  _atom_site_type_symbol
  Yb1      1.0000 0.95189  0.03048  0.08434  Biso   1.000  Yb
  C1       1.0000 0.09356  0.24980  0.20281  Biso   1.000  C
  C2       1.0000 0.11692  0.20220  0.25598  Biso   1.000  C
  H1       1.0000 0.09940  0.12060  0.26700  Biso   1.000  H
  C3       1.0000 0.16623  0.27440  0.29340  Biso   1.000  C
  C4       1.0000 0.19227  0.39370  0.27624  Biso   1.000  C
  H2       1.0000 0.22810  0.44130  0.30080  Biso   1.000  H
  C5       1.0000 0.16660  0.44400  0.22374  Biso   1.000  C
  C6       1.0000 0.11707  0.37130  0.18740  Biso   1.000  C
  H3       1.0000 0.09890  0.40440  0.15160  Biso   1.000  H
  C7       1.0000 0.18960  0.57810  0.20925  Biso   1.000  C
  H4       1.0000 0.14730  0.63380  0.22770  Biso   1.000  H
  H5       1.0000 0.24590  0.59690  0.22660  Biso   1.000  H
  C8       1.0000 0.19361  0.61000  0.14593  Biso   1.000  C
  C9       1.0000 0.26393  0.57320  0.11280  Biso   1.000  C
  H6       1.0000 0.30870  0.52690  0.13020  Biso   1.000  H
  C10      1.0000 0.26902  0.60330  0.05481  Biso   1.000  C
  C11      1.0000 0.20360  0.67130  0.02914  Biso   1.000  C
  H7       1.0000 0.20600  0.68980  0.98920  Biso   1.000  H
  C12      1.0000 0.13464  0.71240  0.06186  Biso   1.000  C
  C13      1.0000 0.13053  0.68090  0.11979  Biso   1.000  C
  H8       1.0000 0.08330  0.70860  0.14200  Biso   1.000  H
  C14      1.0000 0.04249  0.17410  0.16149  Biso   1.000  C
  C15      1.0000 0.19254  0.22170  0.35098  Biso   1.000  C
  C16      1.0000 0.34528  0.56750  0.01936  Biso   1.000  C
  C17      1.0000 0.06924  0.79630  0.03468  Biso   1.000  C
  O1       1.0000 0.00803  0.22655  0.11944  Biso   1.000  O
  O2       1.0000 0.03422  0.05608  0.16900  Biso   1.000  O
  O3       1.0000 0.15772  0.12210  0.36745  Biso   1.000  O
  O4       1.0000 0.24835  0.27710  0.37966  Biso   1.000  O
  O5       1.0000 0.41612  0.55481  0.04336  Biso   1.000  O
  O6       1.0000 0.33394  0.55204  0.96576  Biso   1.000  O
  O7       1.0000 0.08014  0.82205  0.98244  Biso   1.000  O
  O8       1.0000 0.00914  0.83522  0.06570  Biso   1.000  O
  Yb2      1.0000 0.54811  0.46952  0.58434  Biso   1.000  Yb
  C18      1.0000 0.40644  0.25020  0.70281  Biso   1.000  C
  C19      1.0000 0.38308  0.29780  0.75598  Biso   1.000  C
  H9       1.0000 0.40060  0.37940  0.76700  Biso   1.000  H
  C20      1.0000 0.33377  0.22560  0.79340  Biso   1.000  C
  C21      1.0000 0.30773  0.10630  0.77624  Biso   1.000  C
  H10      1.0000 0.27190  0.05870  0.80080  Biso   1.000  H
  C22      1.0000 0.33340  0.05600  0.72374  Biso   1.000  C
  C23      1.0000 0.38293  0.12870  0.68740  Biso   1.000  C
  H11      1.0000 0.40110  0.09560  0.65160  Biso   1.000  H
  C24      1.0000 0.31040  0.92190  0.70925  Biso   1.000  C
  H12      1.0000 0.35270  0.86620  0.72770  Biso   1.000  H
  H13      1.0000 0.25410  0.90310  0.72660  Biso   1.000  H
  C25      1.0000 0.30639  0.89000  0.64593  Biso   1.000  C
  C26      1.0000 0.23607  0.92680  0.61280  Biso   1.000  C
  H14      1.0000 0.19130  0.97310  0.63020  Biso   1.000  H
  C27      1.0000 0.23098  0.89670  0.55481  Biso   1.000  C
  C28      1.0000 0.29640  0.82870  0.52914  Biso   1.000  C
  H15      1.0000 0.29400  0.81020  0.48920  Biso   1.000  H
  C29      1.0000 0.36536  0.78760  0.56186  Biso   1.000  C
  C30      1.0000 0.36947  0.81910  0.61979  Biso   1.000  C
  H16      1.0000 0.41670  0.79140  0.64200  Biso   1.000  H
  C31      1.0000 0.45751  0.32590  0.66149  Biso   1.000  C
  C32      1.0000 0.30746  0.27830  0.85098  Biso   1.000  C
  C33      1.0000 0.15472  0.93250  0.51936  Biso   1.000  C
  C34      1.0000 0.43076  0.70370  0.53468  Biso   1.000  C
  O9       1.0000 0.49197  0.27345  0.61944  Biso   1.000  O
  O10      1.0000 0.46578  0.44392  0.66900  Biso   1.000  O
  O11      1.0000 0.34228  0.37790  0.86745  Biso   1.000  O
  O12      1.0000 0.25165  0.22290  0.87966  Biso   1.000  O
  O13      1.0000 0.08388  0.94519  0.54336  Biso   1.000  O
  O14      1.0000 0.16606  0.94796  0.46576  Biso   1.000  O
  O15      1.0000 0.41986  0.67795  0.48244  Biso   1.000  O
  O16      1.0000 0.49086  0.66478  0.56570  Biso   1.000  O
  Yb3      1.0000 0.04811  0.03048  0.41566  Biso   1.000  Yb
  C35      1.0000 0.90644  0.24980  0.29719  Biso   1.000  C
  C36      1.0000 0.88308  0.20220  0.24402  Biso   1.000  C
  H17      1.0000 0.90060  0.12060  0.23300  Biso   1.000  H
  C37      1.0000 0.83377  0.27440  0.20660  Biso   1.000  C
  C38      1.0000 0.80773  0.39370  0.22376  Biso   1.000  C
  H18      1.0000 0.77190  0.44130  0.19920  Biso   1.000  H
  C39      1.0000 0.83340  0.44400  0.27626  Biso   1.000  C
  C40      1.0000 0.88293  0.37130  0.31260  Biso   1.000  C
  H19      1.0000 0.90110  0.40440  0.34840  Biso   1.000  H
  C41      1.0000 0.81040  0.57810  0.29075  Biso   1.000  C
  H20      1.0000 0.85270  0.63380  0.27230  Biso   1.000  H
  H21      1.0000 0.75410  0.59690  0.27340  Biso   1.000  H
  C42      1.0000 0.80639  0.61000  0.35407  Biso   1.000  C
  C43      1.0000 0.73607  0.57320  0.38720  Biso   1.000  C
  H22      1.0000 0.69130  0.52690  0.36980  Biso   1.000  H
  C44      1.0000 0.73098  0.60330  0.44519  Biso   1.000  C
  C45      1.0000 0.79640  0.67130  0.47086  Biso   1.000  C
  H23      1.0000 0.79400  0.68980  0.51080  Biso   1.000  H
  C46      1.0000 0.86536  0.71240  0.43814  Biso   1.000  C
  C47      1.0000 0.86947  0.68090  0.38021  Biso   1.000  C
  H24      1.0000 0.91670  0.70860  0.35800  Biso   1.000  H
  C48      1.0000 0.95751  0.17410  0.33851  Biso   1.000  C
  C49      1.0000 0.80746  0.22170  0.14902  Biso   1.000  C
  C50      1.0000 0.65472  0.56750  0.48064  Biso   1.000  C
  C51      1.0000 0.93076  0.79630  0.46532  Biso   1.000  C
  O17      1.0000 0.99197  0.22655  0.38056  Biso   1.000  O
  O18      1.0000 0.96578  0.05608  0.33100  Biso   1.000  O
  O19      1.0000 0.84228  0.12210  0.13255  Biso   1.000  O
  O20      1.0000 0.75165  0.27710  0.12034  Biso   1.000  O
  O21      1.0000 0.58388  0.55481  0.45664  Biso   1.000  O
  O22      1.0000 0.66606  0.55204  0.53424  Biso   1.000  O
  O23      1.0000 0.91986  0.82205  0.51756  Biso   1.000  O
  O24      1.0000 0.99086  0.83522  0.43430  Biso   1.000  O
  Yb4      1.0000 0.45189  0.46952  0.91566  Biso   1.000  Yb
  C52      1.0000 0.59356  0.25020  0.79719  Biso   1.000  C
  C53      1.0000 0.61692  0.29780  0.74402  Biso   1.000  C
  H25      1.0000 0.59940  0.37940  0.73300  Biso   1.000  H
  C54      1.0000 0.66623  0.22560  0.70660  Biso   1.000  C
  C55      1.0000 0.69227  0.10630  0.72376  Biso   1.000  C
  H26      1.0000 0.72810  0.05870  0.69920  Biso   1.000  H
  C56      1.0000 0.66660  0.05600  0.77626  Biso   1.000  C
  C57      1.0000 0.61707  0.12870  0.81260  Biso   1.000  C
  H27      1.0000 0.59890  0.09560  0.84840  Biso   1.000  H
  C58      1.0000 0.68960  0.92190  0.79075  Biso   1.000  C
  H28      1.0000 0.64730  0.86620  0.77230  Biso   1.000  H
  H29      1.0000 0.74590  0.90310  0.77340  Biso   1.000  H
  C59      1.0000 0.69361  0.89000  0.85407  Biso   1.000  C
  C60      1.0000 0.76393  0.92680  0.88720  Biso   1.000  C
  H30      1.0000 0.80870  0.97310  0.86980  Biso   1.000  H
  C61      1.0000 0.76902  0.89670  0.94519  Biso   1.000  C
  C62      1.0000 0.70360  0.82870  0.97086  Biso   1.000  C
  H31      1.0000 0.70600  0.81020  0.01080  Biso   1.000  H
  C63      1.0000 0.63464  0.78760  0.93814  Biso   1.000  C
  C64      1.0000 0.63053  0.81910  0.88021  Biso   1.000  C
  H32      1.0000 0.58330  0.79140  0.85800  Biso   1.000  H
  C65      1.0000 0.54249  0.32590  0.83851  Biso   1.000  C
  C66      1.0000 0.69254  0.27830  0.64902  Biso   1.000  C
  C67      1.0000 0.84528  0.93250  0.98064  Biso   1.000  C
  C68      1.0000 0.56924  0.70370  0.96532  Biso   1.000  C
  O25      1.0000 0.50803  0.27345  0.88056  Biso   1.000  O
  O26      1.0000 0.53422  0.44392  0.83100  Biso   1.000  O
  O27      1.0000 0.65772  0.37790  0.63255  Biso   1.000  O
  O28      1.0000 0.74835  0.22290  0.62034  Biso   1.000  O
  O29      1.0000 0.91612  0.94519  0.95664  Biso   1.000  O
  O30      1.0000 0.83394  0.94796  0.03424  Biso   1.000  O
  O31      1.0000 0.58014  0.67795  0.01756  Biso   1.000  O
  O32      1.0000 0.50914  0.66478  0.93430  Biso   1.000  O
  Yb5      1.0000 0.04811  0.96952  0.91566  Biso   1.000  Yb
  C69      1.0000 0.90644  0.75020  0.79719  Biso   1.000  C
  C70      1.0000 0.88308  0.79780  0.74402  Biso   1.000  C
  H33      1.0000 0.90060  0.87940  0.73300  Biso   1.000  H
  C71      1.0000 0.83377  0.72560  0.70660  Biso   1.000  C
  C72      1.0000 0.80773  0.60630  0.72376  Biso   1.000  C
  H34      1.0000 0.77190  0.55870  0.69920  Biso   1.000  H
  C73      1.0000 0.83340  0.55600  0.77626  Biso   1.000  C
  C74      1.0000 0.88293  0.62870  0.81260  Biso   1.000  C
  H35      1.0000 0.90110  0.59560  0.84840  Biso   1.000  H
  C75      1.0000 0.81040  0.42190  0.79075  Biso   1.000  C
  H36      1.0000 0.85270  0.36620  0.77230  Biso   1.000  H
  H37      1.0000 0.75410  0.40310  0.77340  Biso   1.000  H
  C76      1.0000 0.80639  0.39000  0.85407  Biso   1.000  C
  C77      1.0000 0.73607  0.42680  0.88720  Biso   1.000  C
  H38      1.0000 0.69130  0.47310  0.86980  Biso   1.000  H
  C78      1.0000 0.73098  0.39670  0.94519  Biso   1.000  C
  C79      1.0000 0.79640  0.32870  0.97086  Biso   1.000  C
  H39      1.0000 0.79400  0.31020  0.01080  Biso   1.000  H
  C80      1.0000 0.86536  0.28760  0.93814  Biso   1.000  C
  C81      1.0000 0.86947  0.31910  0.88021  Biso   1.000  C
  H40      1.0000 0.91670  0.29140  0.85800  Biso   1.000  H
  C82      1.0000 0.95751  0.82590  0.83851  Biso   1.000  C
  C83      1.0000 0.80746  0.77830  0.64902  Biso   1.000  C
  C84      1.0000 0.65472  0.43250  0.98064  Biso   1.000  C
  C85      1.0000 0.93076  0.20370  0.96532  Biso   1.000  C
  O33      1.0000 0.99197  0.77345  0.88056  Biso   1.000  O
  O34      1.0000 0.96578  0.94392  0.83100  Biso   1.000  O
  O35      1.0000 0.84228  0.87790  0.63255  Biso   1.000  O
  O36      1.0000 0.75165  0.72290  0.62034  Biso   1.000  O
  O37      1.0000 0.58388  0.44519  0.95664  Biso   1.000  O
  O38      1.0000 0.66606  0.44796  0.03424  Biso   1.000  O
  O39      1.0000 0.91986  0.17795  0.01756  Biso   1.000  O
  O40      1.0000 0.99086  0.16478  0.93430  Biso   1.000  O
  Yb6      1.0000 0.45189  0.53048  0.41566  Biso   1.000  Yb
  C86      1.0000 0.59356  0.74980  0.29719  Biso   1.000  C
  C87      1.0000 0.61692  0.70220  0.24402  Biso   1.000  C
  H41      1.0000 0.59940  0.62060  0.23300  Biso   1.000  H
  C88      1.0000 0.66623  0.77440  0.20660  Biso   1.000  C
  C89      1.0000 0.69227  0.89370  0.22376  Biso   1.000  C
  H42      1.0000 0.72810  0.94130  0.19920  Biso   1.000  H
  C90      1.0000 0.66660  0.94400  0.27626  Biso   1.000  C
  C91      1.0000 0.61707  0.87130  0.31260  Biso   1.000  C
  H43      1.0000 0.59890  0.90440  0.34840  Biso   1.000  H
  C92      1.0000 0.68960  0.07810  0.29075  Biso   1.000  C
  H44      1.0000 0.64730  0.13380  0.27230  Biso   1.000  H
  H45      1.0000 0.74590  0.09690  0.27340  Biso   1.000  H
  C93      1.0000 0.69361  0.11000  0.35407  Biso   1.000  C
  C94      1.0000 0.76393  0.07320  0.38720  Biso   1.000  C
  H46      1.0000 0.80870  0.02690  0.36980  Biso   1.000  H
  C95      1.0000 0.76902  0.10330  0.44519  Biso   1.000  C
  C96      1.0000 0.70360  0.17130  0.47086  Biso   1.000  C
  H47      1.0000 0.70600  0.18980  0.51080  Biso   1.000  H
  C97      1.0000 0.63464  0.21240  0.43814  Biso   1.000  C
  C98      1.0000 0.63053  0.18090  0.38021  Biso   1.000  C
  H48      1.0000 0.58330  0.20860  0.35800  Biso   1.000  H
  C99      1.0000 0.54249  0.67410  0.33851  Biso   1.000  C
  C100     1.0000 0.69254  0.72170  0.14902  Biso   1.000  C
  C101     1.0000 0.84528  0.06750  0.48064  Biso   1.000  C
  C102     1.0000 0.56924  0.29630  0.46532  Biso   1.000  C
  O41      1.0000 0.50803  0.72655  0.38056  Biso   1.000  O
  O42      1.0000 0.53422  0.55608  0.33100  Biso   1.000  O
  O43      1.0000 0.65772  0.62210  0.13255  Biso   1.000  O
  O44      1.0000 0.74835  0.77710  0.12034  Biso   1.000  O
  O45      1.0000 0.91612  0.05481  0.45664  Biso   1.000  O
  O46      1.0000 0.83394  0.05204  0.53424  Biso   1.000  O
  O47      1.0000 0.58014  0.32205  0.51756  Biso   1.000  O
  O48      1.0000 0.50914  0.33522  0.43430  Biso   1.000  O
  Yb7      1.0000 0.95189  0.96952  0.58434  Biso   1.000  Yb
  C103     1.0000 0.09356  0.75020  0.70281  Biso   1.000  C
  C104     1.0000 0.11692  0.79780  0.75598  Biso   1.000  C
  H49      1.0000 0.09940  0.87940  0.76700  Biso   1.000  H
  C105     1.0000 0.16623  0.72560  0.79340  Biso   1.000  C
  C106     1.0000 0.19227  0.60630  0.77624  Biso   1.000  C
  H50      1.0000 0.22810  0.55870  0.80080  Biso   1.000  H
  C107     1.0000 0.16660  0.55600  0.72374  Biso   1.000  C
  C108     1.0000 0.11707  0.62870  0.68740  Biso   1.000  C
  H51      1.0000 0.09890  0.59560  0.65160  Biso   1.000  H
  C109     1.0000 0.18960  0.42190  0.70925  Biso   1.000  C
  H52      1.0000 0.14730  0.36620  0.72770  Biso   1.000  H
  H53      1.0000 0.24590  0.40310  0.72660  Biso   1.000  H
  C110     1.0000 0.19361  0.39000  0.64593  Biso   1.000  C
  C111     1.0000 0.26393  0.42680  0.61280  Biso   1.000  C
  H54      1.0000 0.30870  0.47310  0.63020  Biso   1.000  H
  C112     1.0000 0.26902  0.39670  0.55481  Biso   1.000  C
  C113     1.0000 0.20360  0.32870  0.52914  Biso   1.000  C
  H55      1.0000 0.20600  0.31020  0.48920  Biso   1.000  H
  C114     1.0000 0.13464  0.28760  0.56186  Biso   1.000  C
  C115     1.0000 0.13053  0.31910  0.61979  Biso   1.000  C
  H56      1.0000 0.08330  0.29140  0.64200  Biso   1.000  H
  C116     1.0000 0.04249  0.82590  0.66149  Biso   1.000  C
  C117     1.0000 0.19254  0.77830  0.85098  Biso   1.000  C
  C118     1.0000 0.34528  0.43250  0.51936  Biso   1.000  C
  C119     1.0000 0.06924  0.20370  0.53468  Biso   1.000  C
  O49      1.0000 0.00803  0.77345  0.61944  Biso   1.000  O
  O50      1.0000 0.03422  0.94392  0.66900  Biso   1.000  O
  O51      1.0000 0.15772  0.87790  0.86745  Biso   1.000  O
  O52      1.0000 0.24835  0.72290  0.87966  Biso   1.000  O
  O53      1.0000 0.41612  0.44519  0.54336  Biso   1.000  O
  O54      1.0000 0.33394  0.44796  0.46576  Biso   1.000  O
  O55      1.0000 0.08014  0.17795  0.48244  Biso   1.000  O
  O56      1.0000 0.00914  0.16478  0.56570  Biso   1.000  O
  Yb8      1.0000 0.54811  0.53048  0.08434  Biso   1.000  Yb
  C120     1.0000 0.40644  0.74980  0.20281  Biso   1.000  C
  C121     1.0000 0.38308  0.70220  0.25598  Biso   1.000  C
  H57      1.0000 0.40060  0.62060  0.26700  Biso   1.000  H
  C122     1.0000 0.33377  0.77440  0.29340  Biso   1.000  C
  C123     1.0000 0.30773  0.89370  0.27624  Biso   1.000  C
  H58      1.0000 0.27190  0.94130  0.30080  Biso   1.000  H
  C124     1.0000 0.33340  0.94400  0.22374  Biso   1.000  C
  C125     1.0000 0.38293  0.87130  0.18740  Biso   1.000  C
  H59      1.0000 0.40110  0.90440  0.15160  Biso   1.000  H
  C126     1.0000 0.31040  0.07810  0.20925  Biso   1.000  C
  H60      1.0000 0.35270  0.13380  0.22770  Biso   1.000  H
  H61      1.0000 0.25410  0.09690  0.22660  Biso   1.000  H
  C127     1.0000 0.30639  0.11000  0.14593  Biso   1.000  C
  C128     1.0000 0.23607  0.07320  0.11280  Biso   1.000  C
  H62      1.0000 0.19130  0.02690  0.13020  Biso   1.000  H
  C129     1.0000 0.23098  0.10330  0.05481  Biso   1.000  C
  C130     1.0000 0.29640  0.17130  0.02914  Biso   1.000  C
  H63      1.0000 0.29400  0.18980  0.98920  Biso   1.000  H
  C131     1.0000 0.36536  0.21240  0.06186  Biso   1.000  C
  C132     1.0000 0.36947  0.18090  0.11979  Biso   1.000  C
  H64      1.0000 0.41670  0.20860  0.14200  Biso   1.000  H
  C133     1.0000 0.45751  0.67410  0.16149  Biso   1.000  C
  C134     1.0000 0.30746  0.72170  0.35098  Biso   1.000  C
  C135     1.0000 0.15472  0.06750  0.01936  Biso   1.000  C
  C136     1.0000 0.43076  0.29630  0.03468  Biso   1.000  C
  O57      1.0000 0.49197  0.72655  0.11944  Biso   1.000  O
  O58      1.0000 0.46578  0.55608  0.16900  Biso   1.000  O
  O59      1.0000 0.34228  0.62210  0.36745  Biso   1.000  O
  O60      1.0000 0.25165  0.77710  0.37966  Biso   1.000  O
  O61      1.0000 0.08388  0.05481  0.04336  Biso   1.000  O
  O62      1.0000 0.16606  0.05204  0.96576  Biso   1.000  O
  O63      1.0000 0.41986  0.32205  0.98244  Biso   1.000  O
  O64      1.0000 0.49086  0.33522  0.06570  Biso   1.000  O
