data_image0
_cell_length_a       15.734
_cell_length_b       10.6914
_cell_length_c       23.326
_cell_angle_alpha    90
_cell_angle_beta     90
_cell_angle_gamma    90

_symmetry_space_group_name_H-M    "P 1"
_symmetry_int_tables_number       1

loop_
  _symmetry_equiv_pos_as_xyz
  'x, y, z'

loop_
  _atom_site_label
  _atom_site_occupancy
  _atom_site_fract_x
  _atom_site_fract_y
  _atom_site_fract_z
  _atom_site_thermal_displace_type
  _atom_site_B_iso_or_equiv
  _atom_site_type_symbol
  Er1      1.0000 0.54764  0.96912  0.91594  Biso   1.000  Er
  O1       1.0000 0.46542  0.94220  0.83083  Biso   1.000  O
  O2       1.0000 0.49034  0.77240  0.88062  Biso   1.000  O
  O3       1.0000 0.34284  0.87630  0.63298  Biso   1.000  O
  O4       1.0000 0.25310  0.72170  0.62069  Biso   1.000  O
  O5       1.0000 0.16739  0.44870  0.03481  Biso   1.000  O
  O6       1.0000 0.08431  0.44620  0.95825  Biso   1.000  O
  O7       1.0000 0.42042  0.18070  0.01734  Biso   1.000  O
  O8       1.0000 0.49010  0.16660  0.93376  Biso   1.000  O
  C1       1.0000 0.40580  0.74920  0.79719  Biso   1.000  C
  C2       1.0000 0.38150  0.62830  0.81268  Biso   1.000  C
  H1       1.0000 0.39900  0.59550  0.84870  Biso   1.000  H
  C3       1.0000 0.33240  0.55520  0.77658  Biso   1.000  C
  C4       1.0000 0.30730  0.60510  0.72410  Biso   1.000  C
  H2       1.0000 0.27150  0.55760  0.69960  Biso   1.000  H
  C5       1.0000 0.33400  0.72380  0.70685  Biso   1.000  C
  C6       1.0000 0.38350  0.79640  0.74392  Biso   1.000  C
  H3       1.0000 0.40170  0.87750  0.73270  Biso   1.000  H
  C7       1.0000 0.30780  0.42190  0.79125  Biso   1.000  C
  H4       1.0000 0.25130  0.40460  0.77430  Biso   1.000  H
  H5       1.0000 0.34910  0.36480  0.77270  Biso   1.000  H
  C8       1.0000 0.30410  0.39040  0.85427  Biso   1.000  C
  C9       1.0000 0.23450  0.42680  0.88757  Biso   1.000  C
  H6       1.0000 0.18930  0.47230  0.87030  Biso   1.000  H
  C10      1.0000 0.23030  0.39750  0.94548  Biso   1.000  C
  C11      1.0000 0.29640  0.32930  0.97091  Biso   1.000  C
  H7       1.0000 0.29460  0.31090  0.01070  Biso   1.000  H
  C12      1.0000 0.36430  0.28870  0.93789  Biso   1.000  C
  C13      1.0000 0.36810  0.32000  0.88024  Biso   1.000  C
  H8       1.0000 0.41520  0.29300  0.85800  Biso   1.000  H
  C14      1.0000 0.45680  0.82500  0.83885  Biso   1.000  C
  C15      1.0000 0.30860  0.77680  0.64952  Biso   1.000  C
  C16      1.0000 0.15540  0.43330  0.98145  Biso   1.000  C
  C17      1.0000 0.43050  0.20590  0.96519  Biso   1.000  C
  Er2      1.0000 0.95236  0.53088  0.41594  Biso   1.000  Er
  O9       1.0000 0.03458  0.55780  0.33083  Biso   1.000  O
  O10      1.0000 0.00966  0.72760  0.38062  Biso   1.000  O
  O11      1.0000 0.15716  0.62370  0.13298  Biso   1.000  O
  O12      1.0000 0.24690  0.77830  0.12069  Biso   1.000  O
  O13      1.0000 0.33261  0.05130  0.53481  Biso   1.000  O
  O14      1.0000 0.41569  0.05380  0.45825  Biso   1.000  O
  O15      1.0000 0.07958  0.31930  0.51734  Biso   1.000  O
  O16      1.0000 0.00990  0.33340  0.43376  Biso   1.000  O
  C18      1.0000 0.09420  0.75080  0.29719  Biso   1.000  C
  C19      1.0000 0.11850  0.87170  0.31268  Biso   1.000  C
  H9       1.0000 0.10100  0.90450  0.34870  Biso   1.000  H
  C20      1.0000 0.16760  0.94480  0.27658  Biso   1.000  C
  C21      1.0000 0.19270  0.89490  0.22410  Biso   1.000  C
  H10      1.0000 0.22850  0.94240  0.19960  Biso   1.000  H
  C22      1.0000 0.16600  0.77620  0.20685  Biso   1.000  C
  C23      1.0000 0.11650  0.70360  0.24392  Biso   1.000  C
  H11      1.0000 0.09830  0.62250  0.23270  Biso   1.000  H
  C24      1.0000 0.19220  0.07810  0.29125  Biso   1.000  C
  H12      1.0000 0.24870  0.09540  0.27430  Biso   1.000  H
  H13      1.0000 0.15090  0.13520  0.27270  Biso   1.000  H
  C25      1.0000 0.19590  0.10960  0.35427  Biso   1.000  C
  C26      1.0000 0.26550  0.07320  0.38757  Biso   1.000  C
  H14      1.0000 0.31070  0.02770  0.37030  Biso   1.000  H
  C27      1.0000 0.26970  0.10250  0.44548  Biso   1.000  C
  C28      1.0000 0.20360  0.17070  0.47091  Biso   1.000  C
  H15      1.0000 0.20540  0.18910  0.51070  Biso   1.000  H
  C29      1.0000 0.13570  0.21130  0.43789  Biso   1.000  C
  C30      1.0000 0.13190  0.18000  0.38024  Biso   1.000  C
  H16      1.0000 0.08480  0.20700  0.35800  Biso   1.000  H
  C31      1.0000 0.04320  0.67500  0.33885  Biso   1.000  C
  C32      1.0000 0.19140  0.72320  0.14952  Biso   1.000  C
  C33      1.0000 0.34460  0.06670  0.48145  Biso   1.000  C
  C34      1.0000 0.06950  0.29410  0.46519  Biso   1.000  C
  Er3      1.0000 0.45236  0.96912  0.58406  Biso   1.000  Er
  O17      1.0000 0.53458  0.94220  0.66917  Biso   1.000  O
  O18      1.0000 0.50966  0.77240  0.61938  Biso   1.000  O
  O19      1.0000 0.65716  0.87630  0.86702  Biso   1.000  O
  O20      1.0000 0.74690  0.72170  0.87931  Biso   1.000  O
  O21      1.0000 0.83261  0.44870  0.46519  Biso   1.000  O
  O22      1.0000 0.91569  0.44620  0.54175  Biso   1.000  O
  O23      1.0000 0.57958  0.18070  0.48266  Biso   1.000  O
  O24      1.0000 0.50990  0.16660  0.56624  Biso   1.000  O
  C35      1.0000 0.59420  0.74920  0.70281  Biso   1.000  C
  C36      1.0000 0.61850  0.62830  0.68732  Biso   1.000  C
  H17      1.0000 0.60100  0.59550  0.65130  Biso   1.000  H
  C37      1.0000 0.66760  0.55520  0.72342  Biso   1.000  C
  C38      1.0000 0.69270  0.60510  0.77590  Biso   1.000  C
  H18      1.0000 0.72850  0.55760  0.80040  Biso   1.000  H
  C39      1.0000 0.66600  0.72380  0.79315  Biso   1.000  C
  C40      1.0000 0.61650  0.79640  0.75608  Biso   1.000  C
  H19      1.0000 0.59830  0.87750  0.76730  Biso   1.000  H
  C41      1.0000 0.69220  0.42190  0.70875  Biso   1.000  C
  H20      1.0000 0.74870  0.40460  0.72570  Biso   1.000  H
  H21      1.0000 0.65090  0.36480  0.72730  Biso   1.000  H
  C42      1.0000 0.69590  0.39040  0.64573  Biso   1.000  C
  C43      1.0000 0.76550  0.42680  0.61243  Biso   1.000  C
  H22      1.0000 0.81070  0.47230  0.62970  Biso   1.000  H
  C44      1.0000 0.76970  0.39750  0.55452  Biso   1.000  C
  C45      1.0000 0.70360  0.32930  0.52909  Biso   1.000  C
  H23      1.0000 0.70540  0.31090  0.48930  Biso   1.000  H
  C46      1.0000 0.63570  0.28870  0.56211  Biso   1.000  C
  C47      1.0000 0.63190  0.32000  0.61976  Biso   1.000  C
  H24      1.0000 0.58480  0.29300  0.64200  Biso   1.000  H
  C48      1.0000 0.54320  0.82500  0.66115  Biso   1.000  C
  C49      1.0000 0.69140  0.77680  0.85048  Biso   1.000  C
  C50      1.0000 0.84460  0.43330  0.51855  Biso   1.000  C
  C51      1.0000 0.56950  0.20590  0.53481  Biso   1.000  C
  Er4      1.0000 0.04764  0.53088  0.08406  Biso   1.000  Er
  O25      1.0000 0.96542  0.55780  0.16917  Biso   1.000  O
  O26      1.0000 0.99034  0.72760  0.11938  Biso   1.000  O
  O27      1.0000 0.84284  0.62370  0.36702  Biso   1.000  O
  O28      1.0000 0.75310  0.77830  0.37931  Biso   1.000  O
  O29      1.0000 0.66739  0.05130  0.96519  Biso   1.000  O
  O30      1.0000 0.58431  0.05380  0.04175  Biso   1.000  O
  O31      1.0000 0.92042  0.31930  0.98266  Biso   1.000  O
  O32      1.0000 0.99010  0.33340  0.06624  Biso   1.000  O
  C52      1.0000 0.90580  0.75080  0.20281  Biso   1.000  C
  C53      1.0000 0.88150  0.87170  0.18732  Biso   1.000  C
  H25      1.0000 0.89900  0.90450  0.15130  Biso   1.000  H
  C54      1.0000 0.83240  0.94480  0.22342  Biso   1.000  C
  C55      1.0000 0.80730  0.89490  0.27590  Biso   1.000  C
  H26      1.0000 0.77150  0.94240  0.30040  Biso   1.000  H
  C56      1.0000 0.83400  0.77620  0.29315  Biso   1.000  C
  C57      1.0000 0.88350  0.70360  0.25608  Biso   1.000  C
  H27      1.0000 0.90170  0.62250  0.26730  Biso   1.000  H
  C58      1.0000 0.80780  0.07810  0.20875  Biso   1.000  C
  H28      1.0000 0.75130  0.09540  0.22570  Biso   1.000  H
  H29      1.0000 0.84910  0.13520  0.22730  Biso   1.000  H
  C59      1.0000 0.80410  0.10960  0.14573  Biso   1.000  C
  C60      1.0000 0.73450  0.07320  0.11243  Biso   1.000  C
  H30      1.0000 0.68930  0.02770  0.12970  Biso   1.000  H
  C61      1.0000 0.73030  0.10250  0.05452  Biso   1.000  C
  C62      1.0000 0.79640  0.17070  0.02909  Biso   1.000  C
  H31      1.0000 0.79460  0.18910  0.98930  Biso   1.000  H
  C63      1.0000 0.86430  0.21130  0.06211  Biso   1.000  C
  C64      1.0000 0.86810  0.18000  0.11976  Biso   1.000  C
  H32      1.0000 0.91520  0.20700  0.14200  Biso   1.000  H
  C65      1.0000 0.95680  0.67500  0.16115  Biso   1.000  C
  C66      1.0000 0.80860  0.72320  0.35048  Biso   1.000  C
  C67      1.0000 0.65540  0.06670  0.01855  Biso   1.000  C
  C68      1.0000 0.93050  0.29410  0.03481  Biso   1.000  C
  Er5      1.0000 0.45236  0.03088  0.08406  Biso   1.000  Er
  O33      1.0000 0.53458  0.05780  0.16917  Biso   1.000  O
  O34      1.0000 0.50966  0.22760  0.11938  Biso   1.000  O
  O35      1.0000 0.65716  0.12370  0.36702  Biso   1.000  O
  O36      1.0000 0.74690  0.27830  0.37931  Biso   1.000  O
  O37      1.0000 0.83261  0.55130  0.96519  Biso   1.000  O
  O38      1.0000 0.91569  0.55380  0.04175  Biso   1.000  O
  O39      1.0000 0.57958  0.81930  0.98266  Biso   1.000  O
  O40      1.0000 0.50990  0.83340  0.06624  Biso   1.000  O
  C69      1.0000 0.59420  0.25080  0.20281  Biso   1.000  C
  C70      1.0000 0.61850  0.37170  0.18732  Biso   1.000  C
  H33      1.0000 0.60100  0.40450  0.15130  Biso   1.000  H
  C71      1.0000 0.66760  0.44480  0.22342  Biso   1.000  C
  C72      1.0000 0.69270  0.39490  0.27590  Biso   1.000  C
  H34      1.0000 0.72850  0.44240  0.30040  Biso   1.000  H
  C73      1.0000 0.66600  0.27620  0.29315  Biso   1.000  C
  C74      1.0000 0.61650  0.20360  0.25608  Biso   1.000  C
  H35      1.0000 0.59830  0.12250  0.26730  Biso   1.000  H
  C75      1.0000 0.69220  0.57810  0.20875  Biso   1.000  C
  H36      1.0000 0.74870  0.59540  0.22570  Biso   1.000  H
  H37      1.0000 0.65090  0.63520  0.22730  Biso   1.000  H
  C76      1.0000 0.69590  0.60960  0.14573  Biso   1.000  C
  C77      1.0000 0.76550  0.57320  0.11243  Biso   1.000  C
  H38      1.0000 0.81070  0.52770  0.12970  Biso   1.000  H
  C78      1.0000 0.76970  0.60250  0.05452  Biso   1.000  C
  C79      1.0000 0.70360  0.67070  0.02909  Biso   1.000  C
  H39      1.0000 0.70540  0.68910  0.98930  Biso   1.000  H
  C80      1.0000 0.63570  0.71130  0.06211  Biso   1.000  C
  C81      1.0000 0.63190  0.68000  0.11976  Biso   1.000  C
  H40      1.0000 0.58480  0.70700  0.14200  Biso   1.000  H
  C82      1.0000 0.54320  0.17500  0.16115  Biso   1.000  C
  C83      1.0000 0.69140  0.22320  0.35048  Biso   1.000  C
  C84      1.0000 0.84460  0.56670  0.01855  Biso   1.000  C
  C85      1.0000 0.56950  0.79410  0.03481  Biso   1.000  C
  Er6      1.0000 0.04764  0.46912  0.58406  Biso   1.000  Er
  O41      1.0000 0.96542  0.44220  0.66917  Biso   1.000  O
  O42      1.0000 0.99034  0.27240  0.61938  Biso   1.000  O
  O43      1.0000 0.84284  0.37630  0.86702  Biso   1.000  O
  O44      1.0000 0.75310  0.22170  0.87931  Biso   1.000  O
  O45      1.0000 0.66739  0.94870  0.46519  Biso   1.000  O
  O46      1.0000 0.58431  0.94620  0.54175  Biso   1.000  O
  O47      1.0000 0.92042  0.68070  0.48266  Biso   1.000  O
  O48      1.0000 0.99010  0.66660  0.56624  Biso   1.000  O
  C86      1.0000 0.90580  0.24920  0.70281  Biso   1.000  C
  C87      1.0000 0.88150  0.12830  0.68732  Biso   1.000  C
  H41      1.0000 0.89900  0.09550  0.65130  Biso   1.000  H
  C88      1.0000 0.83240  0.05520  0.72342  Biso   1.000  C
  C89      1.0000 0.80730  0.10510  0.77590  Biso   1.000  C
  H42      1.0000 0.77150  0.05760  0.80040  Biso   1.000  H
  C90      1.0000 0.83400  0.22380  0.79315  Biso   1.000  C
  C91      1.0000 0.88350  0.29640  0.75608  Biso   1.000  C
  H43      1.0000 0.90170  0.37750  0.76730  Biso   1.000  H
  C92      1.0000 0.80780  0.92190  0.70875  Biso   1.000  C
  H44      1.0000 0.75130  0.90460  0.72570  Biso   1.000  H
  H45      1.0000 0.84910  0.86480  0.72730  Biso   1.000  H
  C93      1.0000 0.80410  0.89040  0.64573  Biso   1.000  C
  C94      1.0000 0.73450  0.92680  0.61243  Biso   1.000  C
  H46      1.0000 0.68930  0.97230  0.62970  Biso   1.000  H
  C95      1.0000 0.73030  0.89750  0.55452  Biso   1.000  C
  C96      1.0000 0.79640  0.82930  0.52909  Biso   1.000  C
  H47      1.0000 0.79460  0.81090  0.48930  Biso   1.000  H
  C97      1.0000 0.86430  0.78870  0.56211  Biso   1.000  C
  C98      1.0000 0.86810  0.82000  0.61976  Biso   1.000  C
  H48      1.0000 0.91520  0.79300  0.64200  Biso   1.000  H
  C99      1.0000 0.95680  0.32500  0.66115  Biso   1.000  C
  C100     1.0000 0.80860  0.27680  0.85048  Biso   1.000  C
  C101     1.0000 0.65540  0.93330  0.51855  Biso   1.000  C
  C102     1.0000 0.93050  0.70590  0.53481  Biso   1.000  C
  Er7      1.0000 0.54764  0.03088  0.41594  Biso   1.000  Er
  O49      1.0000 0.46542  0.05780  0.33083  Biso   1.000  O
  O50      1.0000 0.49034  0.22760  0.38062  Biso   1.000  O
  O51      1.0000 0.34284  0.12370  0.13298  Biso   1.000  O
  O52      1.0000 0.25310  0.27830  0.12069  Biso   1.000  O
  O53      1.0000 0.16739  0.55130  0.53481  Biso   1.000  O
  O54      1.0000 0.08431  0.55380  0.45825  Biso   1.000  O
  O55      1.0000 0.42042  0.81930  0.51734  Biso   1.000  O
  O56      1.0000 0.49010  0.83340  0.43376  Biso   1.000  O
  C103     1.0000 0.40580  0.25080  0.29719  Biso   1.000  C
  C104     1.0000 0.38150  0.37170  0.31268  Biso   1.000  C
  H49      1.0000 0.39900  0.40450  0.34870  Biso   1.000  H
  C105     1.0000 0.33240  0.44480  0.27658  Biso   1.000  C
  C106     1.0000 0.30730  0.39490  0.22410  Biso   1.000  C
  H50      1.0000 0.27150  0.44240  0.19960  Biso   1.000  H
  C107     1.0000 0.33400  0.27620  0.20685  Biso   1.000  C
  C108     1.0000 0.38350  0.20360  0.24392  Biso   1.000  C
  H51      1.0000 0.40170  0.12250  0.23270  Biso   1.000  H
  C109     1.0000 0.30780  0.57810  0.29125  Biso   1.000  C
  H52      1.0000 0.25130  0.59540  0.27430  Biso   1.000  H
  H53      1.0000 0.34910  0.63520  0.27270  Biso   1.000  H
  C110     1.0000 0.30410  0.60960  0.35427  Biso   1.000  C
  C111     1.0000 0.23450  0.57320  0.38757  Biso   1.000  C
  H54      1.0000 0.18930  0.52770  0.37030  Biso   1.000  H
  C112     1.0000 0.23030  0.60250  0.44548  Biso   1.000  C
  C113     1.0000 0.29640  0.67070  0.47091  Biso   1.000  C
  H55      1.0000 0.29460  0.68910  0.51070  Biso   1.000  H
  C114     1.0000 0.36430  0.71130  0.43789  Biso   1.000  C
  C115     1.0000 0.36810  0.68000  0.38024  Biso   1.000  C
  H56      1.0000 0.41520  0.70700  0.35800  Biso   1.000  H
  C116     1.0000 0.45680  0.17500  0.33885  Biso   1.000  C
  C117     1.0000 0.30860  0.22320  0.14952  Biso   1.000  C
  C118     1.0000 0.15540  0.56670  0.48145  Biso   1.000  C
  C119     1.0000 0.43050  0.79410  0.46519  Biso   1.000  C
  Er8      1.0000 0.95236  0.46912  0.91594  Biso   1.000  Er
  O57      1.0000 0.03458  0.44220  0.83083  Biso   1.000  O
  O58      1.0000 0.00966  0.27240  0.88062  Biso   1.000  O
  O59      1.0000 0.15716  0.37630  0.63298  Biso   1.000  O
  O60      1.0000 0.24690  0.22170  0.62069  Biso   1.000  O
  O61      1.0000 0.33261  0.94870  0.03481  Biso   1.000  O
  O62      1.0000 0.41569  0.94620  0.95825  Biso   1.000  O
  O63      1.0000 0.07958  0.68070  0.01734  Biso   1.000  O
  O64      1.0000 0.00990  0.66660  0.93376  Biso   1.000  O
  C120     1.0000 0.09420  0.24920  0.79719  Biso   1.000  C
  C121     1.0000 0.11850  0.12830  0.81268  Biso   1.000  C
  H57      1.0000 0.10100  0.09550  0.84870  Biso   1.000  H
  C122     1.0000 0.16760  0.05520  0.77658  Biso   1.000  C
  C123     1.0000 0.19270  0.10510  0.72410  Biso   1.000  C
  H58      1.0000 0.22850  0.05760  0.69960  Biso   1.000  H
  C124     1.0000 0.16600  0.22380  0.70685  Biso   1.000  C
  C125     1.0000 0.11650  0.29640  0.74392  Biso   1.000  C
  H59      1.0000 0.09830  0.37750  0.73270  Biso   1.000  H
  C126     1.0000 0.19220  0.92190  0.79125  Biso   1.000  C
  H60      1.0000 0.24870  0.90460  0.77430  Biso   1.000  H
  H61      1.0000 0.15090  0.86480  0.77270  Biso   1.000  H
  C127     1.0000 0.19590  0.89040  0.85427  Biso   1.000  C
  C128     1.0000 0.26550  0.92680  0.88757  Biso   1.000  C
  H62      1.0000 0.31070  0.97230  0.87030  Biso   1.000  H
  C129     1.0000 0.26970  0.89750  0.94548  Biso   1.000  C
  C130     1.0000 0.20360  0.82930  0.97091  Biso   1.000  C
  H63      1.0000 0.20540  0.81090  0.01070  Biso   1.000  H
  C131     1.0000 0.13570  0.78870  0.93789  Biso   1.000  C
  C132     1.0000 0.13190  0.82000  0.88024  Biso   1.000  C
  H64      1.0000 0.08480  0.79300  0.85800  Biso   1.000  H
  C133     1.0000 0.04320  0.32500  0.83885  Biso   1.000  C
  C134     1.0000 0.19140  0.27680  0.64952  Biso   1.000  C
  C135     1.0000 0.34460  0.93330  0.98145  Biso   1.000  C
  C136     1.0000 0.06950  0.70590  0.96519  Biso   1.000  C
