data_RAVVUH_clean
_audit_creation_date              2014-07-02
_audit_creation_method            'Materials Studio'
_symmetry_space_group_name_H-M    'P1'
_symmetry_Int_Tables_number       1
_symmetry_cell_setting            triclinic
loop_
_symmetry_equiv_pos_as_xyz
  x,y,z
_cell_length_a                    6.8483
_cell_length_b                    21.0561
_cell_length_c                    21.0561
_cell_angle_alpha                 61.1597
_cell_angle_beta                  83.7762
_cell_angle_gamma                 96.2238
loop_
_atom_site_label
_atom_site_type_symbol
_atom_site_fract_x
_atom_site_fract_y
_atom_site_fract_z
_atom_site_U_iso_or_equiv
_atom_site_adp_type
_atom_site_occupancy
Mg1    Mg    0.17828   0.69636   0.61869   0.01267  Uiso   1.00
Mg2    Mg    0.79697   0.61869   0.68495   0.01267  Uiso   1.00
Mg3    Mg    0.48192   0.68495   0.69636   0.01267  Uiso   1.00
Mg4    Mg    0.82172   0.30364   0.38131   0.01267  Uiso   1.00
Mg5    Mg    0.20303   0.38131   0.31505   0.01267  Uiso   1.00
Mg6    Mg    0.51808   0.31505   0.30364   0.01267  Uiso   1.00
H1     H     0.26748   0.88574   0.57638   0.01267  Uiso   1.00
H2     H     0.98857   0.90780   0.49824   0.01267  Uiso   1.00
H3     H     0.84701   0.01672   0.44717   0.01267  Uiso   1.00
H4     H     0.84386   0.57638   0.53788   0.01267  Uiso   1.00
H5     H     0.48681   0.49824   0.59396   0.01267  Uiso   1.00
H6     H     0.29418   0.44717   0.53611   0.01267  Uiso   1.00
H7     H     0.38174   0.53788   0.88574   0.01267  Uiso   1.00
H8     H     0.08077   0.59396   0.90780   0.01267  Uiso   1.00
H9     H     0.83029   0.53611   0.01672   0.01267  Uiso   1.00
H10    H     0.73252   0.11426   0.42362   0.01267  Uiso   1.00
H11    H     0.01143   0.09220   0.50176   0.01267  Uiso   1.00
H12    H     0.15299   0.98328   0.55283   0.01267  Uiso   1.00
H13    H     0.15614   0.42362   0.46212   0.01267  Uiso   1.00
H14    H     0.51319   0.50176   0.40604   0.01267  Uiso   1.00
H15    H     0.70582   0.55283   0.46389   0.01267  Uiso   1.00
H16    H     0.61826   0.46212   0.11426   0.01267  Uiso   1.00
H17    H     0.91923   0.40604   0.09220   0.01267  Uiso   1.00
H18    H     0.16971   0.46389   0.98328   0.01267  Uiso   1.00
C1     C     0.81412   0.75851   0.60929   0.01267  Uiso   1.00
C2     C     0.71237   0.82360   0.57898   0.01267  Uiso   1.00
C3     C     0.50196   0.81878   0.59693   0.01267  Uiso   1.00
C4     C     0.42582   0.89309   0.55853   0.01267  Uiso   1.00
C5     C     0.54282   0.96441   0.50976   0.01267  Uiso   1.00
C6     C     0.74653   0.96622   0.48778   0.01267  Uiso   1.00
C7     C     0.83005   0.90236   0.51734   0.01267  Uiso   1.00
C8     C     0.42341   0.60929   0.63220   0.01267  Uiso   1.00
C9     C     0.29135   0.57898   0.59742   0.01267  Uiso   1.00
C10    C     0.09889   0.59693   0.58429   0.01267  Uiso   1.00
C11    C     0.98435   0.55853   0.54838   0.01267  Uiso   1.00
C12    C     0.05258   0.50976   0.52583   0.01267  Uiso   1.00
C13    C     0.23431   0.48778   0.54600   0.01267  Uiso   1.00
C14    C     0.34739   0.51734   0.58030   0.01267  Uiso   1.00
C15    C     0.05561   0.63220   0.75851   0.01267  Uiso   1.00
C16    C     0.88877   0.59742   0.82360   0.01267  Uiso   1.00
C17    C     0.68318   0.58429   0.81878   0.01267  Uiso   1.00
C18    C     0.53273   0.54838   0.89309   0.01267  Uiso   1.00
C19    C     0.57841   0.52583   0.96441   0.01267  Uiso   1.00
C20    C     0.78031   0.54600   0.96622   0.01267  Uiso   1.00
C21    C     0.92769   0.58030   0.90236   0.01267  Uiso   1.00
C22    C     0.18588   0.24149   0.39071   0.01267  Uiso   1.00
C23    C     0.28763   0.17640   0.42102   0.01267  Uiso   1.00
C24    C     0.49804   0.18122   0.40307   0.01267  Uiso   1.00
C25    C     0.57418   0.10691   0.44147   0.01267  Uiso   1.00
C26    C     0.45718   0.03559   0.49024   0.01267  Uiso   1.00
C27    C     0.25347   0.03378   0.51222   0.01267  Uiso   1.00
C28    C     0.16995   0.09764   0.48266   0.01267  Uiso   1.00
C29    C     0.57659   0.39071   0.36780   0.01267  Uiso   1.00
C30    C     0.70865   0.42102   0.40258   0.01267  Uiso   1.00
C31    C     0.90111   0.40307   0.41571   0.01267  Uiso   1.00
C32    C     0.01565   0.44147   0.45162   0.01267  Uiso   1.00
C33    C     0.94742   0.49024   0.47417   0.01267  Uiso   1.00
C34    C     0.76569   0.51222   0.45400   0.01267  Uiso   1.00
C35    C     0.65261   0.48266   0.41970   0.01267  Uiso   1.00
C36    C     0.94439   0.36780   0.24149   0.01267  Uiso   1.00
C37    C     0.11123   0.40258   0.17640   0.01267  Uiso   1.00
C38    C     0.31682   0.41571   0.18122   0.01267  Uiso   1.00
C39    C     0.46727   0.45162   0.10691   0.01267  Uiso   1.00
C40    C     0.42159   0.47417   0.03559   0.01267  Uiso   1.00
C41    C     0.21969   0.45400   0.03378   0.01267  Uiso   1.00
C42    C     0.07231   0.41970   0.09764   0.01267  Uiso   1.00
O1     O     0.00576   0.76905   0.58929   0.01267  Uiso   1.00
O2     O     0.71634   0.69405   0.65283   0.01267  Uiso   1.00
O3     O     0.36743   0.75296   0.64787   0.01267  Uiso   1.00
O4     O     0.59505   0.58929   0.64166   0.01267  Uiso   1.00
O5     O     0.36917   0.65283   0.65312   0.01267  Uiso   1.00
O6     O     0.01530   0.64787   0.59917   0.01267  Uiso   1.00
O7     O     0.23671   0.64166   0.76905   0.01267  Uiso   1.00
O8     O     0.02229   0.65312   0.69405   0.01267  Uiso   1.00
O9     O     0.61447   0.59917   0.75296   0.01267  Uiso   1.00
O10    O     0.99424   0.23095   0.41071   0.01267  Uiso   1.00
O11    O     0.28366   0.30595   0.34717   0.01267  Uiso   1.00
O12    O     0.63257   0.24704   0.35213   0.01267  Uiso   1.00
O13    O     0.40495   0.41071   0.35834   0.01267  Uiso   1.00
O14    O     0.63083   0.34717   0.34688   0.01267  Uiso   1.00
O15    O     0.98470   0.35213   0.40083   0.01267  Uiso   1.00
O16    O     0.76329   0.35834   0.23095   0.01267  Uiso   1.00
O17    O     0.97771   0.34688   0.30595   0.01267  Uiso   1.00
O18    O     0.38553   0.40083   0.24704   0.01267  Uiso   1.00
