data_RAVWUI_clean
_audit_creation_date              2014-07-02
_audit_creation_method            'Materials Studio'
_symmetry_space_group_name_H-M    'P1'
_symmetry_Int_Tables_number       1
_symmetry_cell_setting            triclinic
loop_
_symmetry_equiv_pos_as_xyz
  x,y,z
_cell_length_a                    6.8152
_cell_length_b                    45.4615
_cell_length_c                    45.4615
_cell_angle_alpha                 60.2475
_cell_angle_beta                  87.1357
_cell_angle_gamma                 92.8643
loop_
_atom_site_label
_atom_site_type_symbol
_atom_site_fract_x
_atom_site_fract_y
_atom_site_fract_z
_atom_site_U_iso_or_equiv
_atom_site_adp_type
_atom_site_occupancy
Zn1    Zn    0.05571   0.36019   0.32532   0.01267  Uiso   1.00
Zn2    Zn    0.98906   0.64156   0.66900   0.01267  Uiso   1.00
Zn3    Zn    0.38103   0.32532   0.31449   0.01267  Uiso   1.00
Zn4    Zn    0.65806   0.66900   0.68944   0.01267  Uiso   1.00
Zn5    Zn    0.69552   0.31449   0.36019   0.01267  Uiso   1.00
Zn6    Zn    0.34750   0.68944   0.64156   0.01267  Uiso   1.00
H1     H     0.94364   0.50567   0.50029   0.01267  Uiso   1.00
H2     H     0.13760   0.50019   0.52661   0.01267  Uiso   1.00
H3     H     0.11715   0.54054   0.49028   0.01267  Uiso   1.00
H4     H     0.59270   0.45284   0.42751   0.01267  Uiso   1.00
H5     H     0.55767   0.49254   0.39104   0.01267  Uiso   1.00
H6     H     0.75946   0.48898   0.41562   0.01267  Uiso   1.00
H7     H     0.16615   0.38322   0.49247   0.01267  Uiso   1.00
H8     H     0.20353   0.41995   0.49569   0.01267  Uiso   1.00
H9     H     0.95676   0.40164   0.50018   0.01267  Uiso   1.00
H10    H     0.87132   0.48537   0.33812   0.01267  Uiso   1.00
H11    H     0.11375   0.50602   0.33099   0.01267  Uiso   1.00
H12    H     0.08517   0.46679   0.33187   0.01267  Uiso   1.00
H13    H     0.71065   0.51342   0.44855   0.01267  Uiso   1.00
H14    H     0.94437   0.57915   0.48299   0.01267  Uiso   1.00
H15    H     0.21824   0.50283   0.37994   0.01267  Uiso   1.00
H16    H     0.90849   0.38730   0.44999   0.01267  Uiso   1.00
H17    H     0.49799   0.59272   0.57879   0.01267  Uiso   1.00
H18    H     0.70022   0.61041   0.60917   0.01267  Uiso   1.00
H19    H     0.00598   0.63684   0.59780   0.01267  Uiso   1.00
H20    H     0.04551   0.38102   0.38782   0.01267  Uiso   1.00
H21    H     0.36874   0.41432   0.36211   0.01267  Uiso   1.00
H22    H     0.58069   0.44202   0.38285   0.01267  Uiso   1.00
H23    H     0.17084   0.63282   0.53369   0.01267  Uiso   1.00
H24    H     0.73894   0.52819   0.59175   0.01267  Uiso   1.00
H25    H     0.99599   0.47829   0.47009   0.01267  Uiso   1.00
H26    H     0.33148   0.50636   0.53299   0.01267  Uiso   1.00
H27    H     0.82856   0.56496   0.64184   0.01267  Uiso   1.00
H28    H     0.73978   0.52765   0.64254   0.01267  Uiso   1.00
H29    H     0.98825   0.53201   0.65047   0.01267  Uiso   1.00
H30    H     0.06331   0.61472   0.47659   0.01267  Uiso   1.00
H31    H     0.81965   0.62635   0.48063   0.01267  Uiso   1.00
H32    H     0.02846   0.64967   0.48241   0.01267  Uiso   1.00
H33    H     0.29131   0.53267   0.56911   0.01267  Uiso   1.00
H34    H     0.47109   0.50333   0.59092   0.01267  Uiso   1.00
H35    H     0.50671   0.54645   0.58058   0.01267  Uiso   1.00
H36    H     0.84883   0.53996   0.44035   0.01267  Uiso   1.00
H37    H     0.67559   0.57191   0.42259   0.01267  Uiso   1.00
H38    H     0.91406   0.58159   0.43170   0.01267  Uiso   1.00
H39    H     0.44393   0.50029   0.99404   0.01267  Uiso   1.00
H40    H     0.66421   0.52661   0.97320   0.01267  Uiso   1.00
H41    H     0.60743   0.49028   0.96918   0.01267  Uiso   1.00
H42    H     0.02021   0.42751   0.11965   0.01267  Uiso   1.00
H43    H     0.94871   0.39104   0.11642   0.01267  Uiso   1.00
H44    H     0.17508   0.41562   0.09540   0.01267  Uiso   1.00
H45    H     0.65862   0.49247   0.12431   0.01267  Uiso   1.00
H46    H     0.69922   0.49569   0.08436   0.01267  Uiso   1.00
H47    H     0.45694   0.50018   0.09818   0.01267  Uiso   1.00
H48    H     0.20944   0.33812   0.17651   0.01267  Uiso   1.00
H49    H     0.44474   0.33099   0.16299   0.01267  Uiso   1.00
H50    H     0.41704   0.33187   0.20134   0.01267  Uiso   1.00
H51    H     0.15920   0.44855   0.03803   0.01267  Uiso   1.00
H52    H     0.42736   0.48299   0.93786   0.01267  Uiso   1.00
H53    H     0.59818   0.37994   0.11723   0.01267  Uiso   1.00
H54    H     0.35848   0.44999   0.16271   0.01267  Uiso   1.00
H55    H     0.07678   0.57879   0.82849   0.01267  Uiso   1.00
H56    H     0.30939   0.60917   0.78042   0.01267  Uiso   1.00
H57    H     0.60378   0.59780   0.76536   0.01267  Uiso   1.00
H58    H     0.43333   0.38782   0.23116   0.01267  Uiso   1.00
H59    H     0.73085   0.36211   0.22357   0.01267  Uiso   1.00
H60    H     0.96354   0.38285   0.17513   0.01267  Uiso   1.00
H61    H     0.70453   0.53369   0.83349   0.01267  Uiso   1.00
H62    H     0.33069   0.59175   0.88006   0.01267  Uiso   1.00
H63    H     0.46608   0.47009   0.05162   0.01267  Uiso   1.00
H64    H     0.86447   0.53299   0.96065   0.01267  Uiso   1.00
H65    H     0.47040   0.64184   0.79320   0.01267  Uiso   1.00
H66    H     0.38232   0.64254   0.82981   0.01267  Uiso   1.00
H67    H     0.63872   0.65047   0.81752   0.01267  Uiso   1.00
H68    H     0.53990   0.47659   0.90869   0.01267  Uiso   1.00
H69    H     0.30028   0.48063   0.89302   0.01267  Uiso   1.00
H70    H     0.51087   0.48241   0.86792   0.01267  Uiso   1.00
H71    H     0.86042   0.56911   0.89822   0.01267  Uiso   1.00
H72    H     0.06201   0.59092   0.90575   0.01267  Uiso   1.00
H73    H     0.08729   0.58058   0.87297   0.01267  Uiso   1.00
H74    H     0.28918   0.44035   0.01969   0.01267  Uiso   1.00
H75    H     0.09818   0.42259   0.00550   0.01267  Uiso   1.00
H76    H     0.34576   0.43170   0.98671   0.01267  Uiso   1.00
H77    H     0.43797   0.99404   0.50567   0.01267  Uiso   1.00
H78    H     0.63741   0.97320   0.50019   0.01267  Uiso   1.00
H79    H     0.57661   0.96918   0.54054   0.01267  Uiso   1.00
H80    H     0.13986   0.11965   0.45284   0.01267  Uiso   1.00
H81    H     0.06513   0.11642   0.49254   0.01267  Uiso   1.00
H82    H     0.27048   0.09540   0.48898   0.01267  Uiso   1.00
H83    H     0.78293   0.12431   0.38322   0.01267  Uiso   1.00
H84    H     0.78358   0.08436   0.41995   0.01267  Uiso   1.00
H85    H     0.55512   0.09818   0.40164   0.01267  Uiso   1.00
H86    H     0.38595   0.17651   0.48537   0.01267  Uiso   1.00
H87    H     0.60773   0.16299   0.50602   0.01267  Uiso   1.00
H88    H     0.61838   0.20134   0.46679   0.01267  Uiso   1.00
H89    H     0.19723   0.03803   0.51342   0.01267  Uiso   1.00
H90    H     0.36522   0.93786   0.57915   0.01267  Uiso   1.00
H91    H     0.71541   0.11723   0.50283   0.01267  Uiso   1.00
H92    H     0.52119   0.16271   0.38730   0.01267  Uiso   1.00
H93    H     0.90527   0.82849   0.59272   0.01267  Uiso   1.00
H94    H     0.08981   0.78042   0.61041   0.01267  Uiso   1.00
H95    H     0.36914   0.76536   0.63684   0.01267  Uiso   1.00
H96    H     0.66449   0.23116   0.38102   0.01267  Uiso   1.00
H97    H     0.95442   0.22357   0.41432   0.01267  Uiso   1.00
H98    H     0.13867   0.17513   0.44202   0.01267  Uiso   1.00
H99    H     0.53802   0.83349   0.63282   0.01267  Uiso   1.00
H100   H     0.21075   0.88006   0.52819   0.01267  Uiso   1.00
H101   H     0.51770   0.05162   0.47829   0.01267  Uiso   1.00
H102   H     0.82512   0.96065   0.50636   0.01267  Uiso   1.00
H103   H     0.26360   0.79320   0.56496   0.01267  Uiso   1.00
H104   H     0.21213   0.82981   0.52765   0.01267  Uiso   1.00
H105   H     0.45624   0.81752   0.53201   0.01267  Uiso   1.00
H106   H     0.44859   0.90869   0.61472   0.01267  Uiso   1.00
H107   H     0.19330   0.89302   0.62635   0.01267  Uiso   1.00
H108   H     0.37879   0.86792   0.64967   0.01267  Uiso   1.00
H109   H     0.75864   0.89822   0.53267   0.01267  Uiso   1.00
H110   H     0.96776   0.90575   0.50333   0.01267  Uiso   1.00
H111   H     0.96026   0.87297   0.54645   0.01267  Uiso   1.00
H112   H     0.30887   0.01969   0.53996   0.01267  Uiso   1.00
H113   H     0.10368   0.00550   0.57191   0.01267  Uiso   1.00
H114   H     0.33247   0.98671   0.58159   0.01267  Uiso   1.00
C1     C     0.10067   0.51316   0.50034   0.01267  Uiso   1.00
C2     C     0.60296   0.48031   0.41685   0.01267  Uiso   1.00
C3     C     0.10457   0.40714   0.48651   0.01267  Uiso   1.00
C4     C     0.02799   0.48127   0.34320   0.01267  Uiso   1.00
C5     C     0.55414   0.50616   0.45284   0.01267  Uiso   1.00
C6     C     0.43785   0.51406   0.47337   0.01267  Uiso   1.00
C7     C     0.23338   0.50429   0.47944   0.01267  Uiso   1.00
C8     C     0.80516   0.56471   0.49324   0.01267  Uiso   1.00
C9     C     0.47165   0.48881   0.43813   0.01267  Uiso   1.00
C10    C     0.26795   0.47885   0.44437   0.01267  Uiso   1.00
C11    C     0.04505   0.46239   0.38027   0.01267  Uiso   1.00
C12    C     0.15271   0.47743   0.39510   0.01267  Uiso   1.00
C13    C     0.17159   0.46046   0.42958   0.01267  Uiso   1.00
C14    C     0.08573   0.42736   0.44952   0.01267  Uiso   1.00
C15    C     0.97759   0.41246   0.43465   0.01267  Uiso   1.00
C16    C     0.95386   0.42981   0.40040   0.01267  Uiso   1.00
C17    C     0.54951   0.61687   0.60705   0.01267  Uiso   1.00
C18    C     0.43197   0.60581   0.59017   0.01267  Uiso   1.00
C19    C     0.23209   0.61127   0.58819   0.01267  Uiso   1.00
C20    C     0.15657   0.63055   0.60102   0.01267  Uiso   1.00
C21    C     0.78020   0.37226   0.36901   0.01267  Uiso   1.00
C22    C     0.58229   0.38077   0.36222   0.01267  Uiso   1.00
C23    C     0.44312   0.36595   0.34812   0.01267  Uiso   1.00
C24    C     0.60832   0.64346   0.64144   0.01267  Uiso   1.00
C25    C     0.47418   0.63508   0.62148   0.01267  Uiso   1.00
C26    C     0.27281   0.64237   0.61770   0.01267  Uiso   1.00
C27    C     0.89845   0.38846   0.38149   0.01267  Uiso   1.00
C28    C     0.82872   0.41361   0.38648   0.01267  Uiso   1.00
C29    C     0.63719   0.42254   0.37924   0.01267  Uiso   1.00
C30    C     0.51578   0.40634   0.36745   0.01267  Uiso   1.00
C31    C     0.05866   0.59145   0.58175   0.01267  Uiso   1.00
C32    C     0.07364   0.61026   0.54641   0.01267  Uiso   1.00
C33    C     0.96278   0.60076   0.52719   0.01267  Uiso   1.00
C34    C     0.84343   0.57034   0.54366   0.01267  Uiso   1.00
C35    C     0.83100   0.55137   0.57899   0.01267  Uiso   1.00
C36    C     0.92601   0.56270   0.59815   0.01267  Uiso   1.00
C37    C     0.72826   0.55787   0.52486   0.01267  Uiso   1.00
C38    C     0.55079   0.53740   0.53877   0.01267  Uiso   1.00
C39    C     0.15142   0.48653   0.46504   0.01267  Uiso   1.00
C40    C     0.70878   0.55218   0.47513   0.01267  Uiso   1.00
C41    C     0.53642   0.53076   0.48971   0.01267  Uiso   1.00
C42    C     0.46142   0.52337   0.52147   0.01267  Uiso   1.00
C43    C     0.86834   0.54584   0.63529   0.01267  Uiso   1.00
C44    C     0.96885   0.62407   0.48960   0.01267  Uiso   1.00
C45    C     0.45084   0.52963   0.57174   0.01267  Uiso   1.00
C46    C     0.79155   0.56191   0.44052   0.01267  Uiso   1.00
C47    C     0.60101   0.50034   0.98650   0.01267  Uiso   1.00
C48    C     0.01981   0.41685   0.10284   0.01267  Uiso   1.00
C49    C     0.59108   0.48651   0.10635   0.01267  Uiso   1.00
C50    C     0.37119   0.34320   0.17553   0.01267  Uiso   1.00
C51    C     0.00698   0.45284   0.04100   0.01267  Uiso   1.00
C52    C     0.91122   0.47337   0.01257   0.01267  Uiso   1.00
C53    C     0.71282   0.47944   0.01627   0.01267  Uiso   1.00
C54    C     0.29840   0.49324   0.94205   0.01267  Uiso   1.00
C55    C     0.90978   0.43813   0.07306   0.01267  Uiso   1.00
C56    C     0.71232   0.44437   0.07678   0.01267  Uiso   1.00
C57    C     0.42532   0.38027   0.15734   0.01267  Uiso   1.00
C58    C     0.54781   0.39510   0.12747   0.01267  Uiso   1.00
C59    C     0.60117   0.42958   0.10996   0.01267  Uiso   1.00
C60    C     0.53525   0.44952   0.12312   0.01267  Uiso   1.00
C61    C     0.41224   0.43465   0.15289   0.01267  Uiso   1.00
C62    C     0.35426   0.40040   0.16979   0.01267  Uiso   1.00
C63    C     0.15656   0.60705   0.77608   0.01267  Uiso   1.00
C64    C     0.02214   0.59017   0.80402   0.01267  Uiso   1.00
C65    C     0.82028   0.58819   0.80054   0.01267  Uiso   1.00
C66    C     0.75759   0.60102   0.76843   0.01267  Uiso   1.00
C67    C     0.14921   0.36901   0.25873   0.01267  Uiso   1.00
C68    C     0.94451   0.36222   0.25701   0.01267  Uiso   1.00
C69    C     0.79124   0.34812   0.28593   0.01267  Uiso   1.00
C70    C     0.24976   0.64144   0.71510   0.01267  Uiso   1.00
C71    C     0.09566   0.62148   0.74344   0.01267  Uiso   1.00
C72    C     0.89051   0.61770   0.73993   0.01267  Uiso   1.00
C73    C     0.27994   0.38149   0.23005   0.01267  Uiso   1.00
C74    C     0.21520   0.38648   0.19991   0.01267  Uiso   1.00
C75    C     0.01643   0.37924   0.19822   0.01267  Uiso   1.00
C76    C     0.88323   0.36745   0.22621   0.01267  Uiso   1.00
C77    C     0.64041   0.58175   0.82680   0.01267  Uiso   1.00
C78    C     0.62005   0.54641   0.84333   0.01267  Uiso   1.00
C79    C     0.48997   0.52719   0.87205   0.01267  Uiso   1.00
C80    C     0.38709   0.54366   0.88600   0.01267  Uiso   1.00
C81    C     0.40999   0.57899   0.86964   0.01267  Uiso   1.00
C82    C     0.52416   0.59815   0.83915   0.01267  Uiso   1.00
C83    C     0.25312   0.52486   0.91727   0.01267  Uiso   1.00
C84    C     0.08956   0.53877   0.92383   0.01267  Uiso   1.00
C85    C     0.61646   0.46504   0.04843   0.01267  Uiso   1.00
C86    C     0.18391   0.47513   0.97269   0.01267  Uiso   1.00
C87    C     0.02613   0.48971   0.97953   0.01267  Uiso   1.00
C88    C     0.98289   0.52147   0.95516   0.01267  Uiso   1.00
C89    C     0.50363   0.63529   0.81887   0.01267  Uiso   1.00
C90    C     0.45845   0.48960   0.88633   0.01267  Uiso   1.00
C91    C     0.02258   0.57174   0.89863   0.01267  Uiso   1.00
C92    C     0.23207   0.44052   0.99757   0.01267  Uiso   1.00
C93    C     0.58751   0.98650   0.51316   0.01267  Uiso   1.00
C94    C     0.12265   0.10284   0.48031   0.01267  Uiso   1.00
C95    C     0.69743   0.10635   0.40714   0.01267  Uiso   1.00
C96    C     0.54672   0.17553   0.48127   0.01267  Uiso   1.00
C97    C     0.04798   0.04100   0.50616   0.01267  Uiso   1.00
C98    C     0.92379   0.01257   0.51406   0.01267  Uiso   1.00
C99    C     0.72909   0.01627   0.50429   0.01267  Uiso   1.00
C100   C     0.24045   0.94205   0.56471   0.01267  Uiso   1.00
C101   C     0.98284   0.07306   0.48881   0.01267  Uiso   1.00
C102   C     0.78910   0.07678   0.47885   0.01267  Uiso   1.00
C103   C     0.58266   0.15734   0.46239   0.01267  Uiso   1.00
C104   C     0.67528   0.12747   0.47743   0.01267  Uiso   1.00
C105   C     0.71113   0.10996   0.46046   0.01267  Uiso   1.00
C106   C     0.65837   0.12312   0.42736   0.01267  Uiso   1.00
C107   C     0.56513   0.15289   0.41246   0.01267  Uiso   1.00
C108   C     0.52405   0.16979   0.42981   0.01267  Uiso   1.00
C109   C     0.93264   0.77608   0.61687   0.01267  Uiso   1.00
C110   C     0.82616   0.80402   0.60581   0.01267  Uiso   1.00
C111   C     0.62082   0.80054   0.61127   0.01267  Uiso   1.00
C112   C     0.52602   0.76843   0.63055   0.01267  Uiso   1.00
C113   C     0.40794   0.25873   0.37226   0.01267  Uiso   1.00
C114   C     0.20152   0.25701   0.38077   0.01267  Uiso   1.00
C115   C     0.07717   0.28593   0.36595   0.01267  Uiso   1.00
C116   C     0.96486   0.71510   0.64346   0.01267  Uiso   1.00
C117   C     0.83910   0.74344   0.63508   0.01267  Uiso   1.00
C118   C     0.63044   0.73993   0.64237   0.01267  Uiso   1.00
C119   C     0.50999   0.23005   0.38846   0.01267  Uiso   1.00
C120   C     0.41511   0.19991   0.41361   0.01267  Uiso   1.00
C121   C     0.21465   0.19822   0.42254   0.01267  Uiso   1.00
C122   C     0.10944   0.22621   0.40634   0.01267  Uiso   1.00
C123   C     0.46721   0.82680   0.59145   0.01267  Uiso   1.00
C124   C     0.46338   0.84333   0.61026   0.01267  Uiso   1.00
C125   C     0.36202   0.87205   0.60076   0.01267  Uiso   1.00
C126   C     0.27309   0.88600   0.57034   0.01267  Uiso   1.00
C127   C     0.27963   0.86964   0.55137   0.01267  Uiso   1.00
C128   C     0.36331   0.83915   0.56270   0.01267  Uiso   1.00
C129   C     0.17039   0.91727   0.55787   0.01267  Uiso   1.00
C130   C     0.01339   0.92383   0.53740   0.01267  Uiso   1.00
C131   C     0.66489   0.04843   0.48653   0.01267  Uiso   1.00
C132   C     0.15660   0.97269   0.55218   0.01267  Uiso   1.00
C133   C     0.00566   0.97953   0.53076   0.01267  Uiso   1.00
C134   C     0.93805   0.95516   0.52337   0.01267  Uiso   1.00
C135   C     0.32250   0.81887   0.54584   0.01267  Uiso   1.00
C136   C     0.34478   0.88633   0.62407   0.01267  Uiso   1.00
C137   C     0.92121   0.89863   0.52963   0.01267  Uiso   1.00
C138   C     0.22964   0.99757   0.56191   0.01267  Uiso   1.00
O1     O     0.86414   0.34711   0.36558   0.01267  Uiso   1.00
O2     O     0.49540   0.34422   0.34070   0.01267  Uiso   1.00
O3     O     0.26874   0.37550   0.34354   0.01267  Uiso   1.00
O4     O     0.78184   0.63356   0.64465   0.01267  Uiso   1.00
O5     O     0.55251   0.66005   0.65512   0.01267  Uiso   1.00
O6     O     0.18341   0.66263   0.62800   0.01267  Uiso   1.00
O7     O     0.22972   0.36558   0.28731   0.01267  Uiso   1.00
O8     O     0.83610   0.34070   0.31508   0.01267  Uiso   1.00
O9     O     0.61228   0.34354   0.28096   0.01267  Uiso   1.00
O10    O     0.42649   0.64465   0.72179   0.01267  Uiso   1.00
O11    O     0.20763   0.65512   0.68483   0.01267  Uiso   1.00
O12    O     0.81141   0.62800   0.70937   0.01267  Uiso   1.00
O13    O     0.51703   0.28731   0.34711   0.01267  Uiso   1.00
O14    O     0.15118   0.31508   0.34422   0.01267  Uiso   1.00
O15    O     0.89324   0.28096   0.37550   0.01267  Uiso   1.00
O16    O     0.14828   0.72179   0.63356   0.01267  Uiso   1.00
O17    O     0.89246   0.68483   0.66005   0.01267  Uiso   1.00
O18    O     0.52078   0.70937   0.66263   0.01267  Uiso   1.00
