data_RAVWOC_clean
_audit_creation_date              2014-07-02
_audit_creation_method            'Materials Studio'
_symmetry_space_group_name_H-M    'P1'
_symmetry_Int_Tables_number       1
_symmetry_cell_setting            triclinic
loop_
_symmetry_equiv_pos_as_xyz
  x,y,z
_cell_length_a                    6.4618
_cell_length_b                    39.8715
_cell_length_c                    39.8715
_cell_angle_alpha                 60.2892
_cell_angle_beta                  86.9032
_cell_angle_gamma                 93.0968
loop_
_atom_site_label
_atom_site_type_symbol
_atom_site_fract_x
_atom_site_fract_y
_atom_site_fract_z
_atom_site_U_iso_or_equiv
_atom_site_adp_type
_atom_site_occupancy
Mg1    Mg    0.86931   0.63819   0.67290   0.01267  Uiso   1.00
Mg2    Mg    0.54221   0.67290   0.68891   0.01267  Uiso   1.00
Mg3    Mg    0.23112   0.68891   0.63819   0.01267  Uiso   1.00
Mg4    Mg    0.13069   0.36181   0.32710   0.01267  Uiso   1.00
Mg5    Mg    0.45779   0.32710   0.31109   0.01267  Uiso   1.00
Mg6    Mg    0.76888   0.31109   0.36181   0.01267  Uiso   1.00
H1     H     0.86180   0.62552   0.59231   0.01267  Uiso   1.00
H2     H     0.55958   0.57898   0.62401   0.01267  Uiso   1.00
H3     H     0.33636   0.55388   0.59237   0.01267  Uiso   1.00
H4     H     0.93918   0.51362   0.62207   0.01267  Uiso   1.00
H5     H     0.70702   0.59291   0.49055   0.01267  Uiso   1.00
H6     H     0.33474   0.49549   0.56005   0.01267  Uiso   1.00
H7     H     0.89003   0.64933   0.48133   0.01267  Uiso   1.00
H8     H     0.85931   0.65226   0.52482   0.01267  Uiso   1.00
H9     H     0.66113   0.45583   0.58489   0.01267  Uiso   1.00
H10    H     0.87478   0.45549   0.61164   0.01267  Uiso   1.00
H11    H     0.61731   0.46164   0.62673   0.01267  Uiso   1.00
H12    H     0.00525   0.52207   0.45964   0.01267  Uiso   1.00
H13    H     0.99819   0.54945   0.48372   0.01267  Uiso   1.00
H14    H     0.23787   0.62027   0.36692   0.01267  Uiso   1.00
H15    H     0.15493   0.57888   0.39342   0.01267  Uiso   1.00
H16    H     0.15498   0.55842   0.45852   0.01267  Uiso   1.00
H17    H     0.14761   0.60531   0.43602   0.01267  Uiso   1.00
H18    H     0.45411   0.59231   0.78217   0.01267  Uiso   1.00
H19    H     0.18359   0.62401   0.79701   0.01267  Uiso   1.00
H20    H     0.92873   0.59237   0.85375   0.01267  Uiso   1.00
H21    H     0.56125   0.62207   0.86431   0.01267  Uiso   1.00
H22    H     0.19757   0.49055   0.91654   0.01267  Uiso   1.00
H23    H     0.89479   0.56005   0.94446   0.01267  Uiso   1.00
H24    H     0.37136   0.48133   0.86934   0.01267  Uiso   1.00
H25    H     0.38413   0.52482   0.82292   0.01267  Uiso   1.00
H26    H     0.24602   0.58489   0.95928   0.01267  Uiso   1.00
H27    H     0.48642   0.61164   0.93287   0.01267  Uiso   1.00
H28    H     0.24404   0.62673   0.91163   0.01267  Uiso   1.00
H29    H     0.46489   0.45964   0.01829   0.01267  Uiso   1.00
H30    H     0.48191   0.48372   0.96683   0.01267  Uiso   1.00
H31    H     0.60479   0.36692   0.01281   0.01267  Uiso   1.00
H32    H     0.54835   0.39342   0.02770   0.01267  Uiso   1.00
H33    H     0.61350   0.45852   0.98306   0.01267  Uiso   1.00
H34    H     0.58363   0.43602   0.95867   0.01267  Uiso   1.00
H35    H     0.23628   0.78217   0.62552   0.01267  Uiso   1.00
H36    H     0.98060   0.79701   0.57898   0.01267  Uiso   1.00
H37    H     0.78248   0.85375   0.55388   0.01267  Uiso   1.00
H38    H     0.42556   0.86431   0.51362   0.01267  Uiso   1.00
H39    H     0.11411   0.91654   0.59291   0.01267  Uiso   1.00
H40    H     0.83925   0.94446   0.49549   0.01267  Uiso   1.00
H41    H     0.24070   0.86934   0.64933   0.01267  Uiso   1.00
H42    H     0.20705   0.82292   0.65226   0.01267  Uiso   1.00
H43    H     0.20530   0.95928   0.45583   0.01267  Uiso   1.00
H44    H     0.41929   0.93287   0.45549   0.01267  Uiso   1.00
H45    H     0.15567   0.91163   0.46164   0.01267  Uiso   1.00
H46    H     0.48318   0.01829   0.52207   0.01267  Uiso   1.00
H47    H     0.44874   0.96683   0.54945   0.01267  Uiso   1.00
H48    H     0.61760   0.01281   0.62027   0.01267  Uiso   1.00
H49    H     0.57605   0.02770   0.57888   0.01267  Uiso   1.00
H50    H     0.59656   0.98306   0.55842   0.01267  Uiso   1.00
H51    H     0.54230   0.95867   0.60531   0.01267  Uiso   1.00
H52    H     0.13820   0.37448   0.40769   0.01267  Uiso   1.00
H53    H     0.44042   0.42102   0.37599   0.01267  Uiso   1.00
H54    H     0.66364   0.44612   0.40763   0.01267  Uiso   1.00
H55    H     0.06082   0.48638   0.37793   0.01267  Uiso   1.00
H56    H     0.29298   0.40709   0.50945   0.01267  Uiso   1.00
H57    H     0.66526   0.50451   0.43995   0.01267  Uiso   1.00
H58    H     0.10997   0.35067   0.51867   0.01267  Uiso   1.00
H59    H     0.14069   0.34774   0.47518   0.01267  Uiso   1.00
H60    H     0.33887   0.54417   0.41511   0.01267  Uiso   1.00
H61    H     0.12522   0.54451   0.38836   0.01267  Uiso   1.00
H62    H     0.38269   0.53836   0.37327   0.01267  Uiso   1.00
H63    H     0.99475   0.47793   0.54036   0.01267  Uiso   1.00
H64    H     0.00181   0.45055   0.51628   0.01267  Uiso   1.00
H65    H     0.76213   0.37973   0.63308   0.01267  Uiso   1.00
H66    H     0.84507   0.42112   0.60658   0.01267  Uiso   1.00
H67    H     0.84502   0.44158   0.54148   0.01267  Uiso   1.00
H68    H     0.85239   0.39469   0.56398   0.01267  Uiso   1.00
H69    H     0.54589   0.40769   0.21783   0.01267  Uiso   1.00
H70    H     0.81641   0.37599   0.20299   0.01267  Uiso   1.00
H71    H     0.07127   0.40763   0.14625   0.01267  Uiso   1.00
H72    H     0.43875   0.37793   0.13569   0.01267  Uiso   1.00
H73    H     0.80243   0.50945   0.08346   0.01267  Uiso   1.00
H74    H     0.10521   0.43995   0.05554   0.01267  Uiso   1.00
H75    H     0.62864   0.51867   0.13066   0.01267  Uiso   1.00
H76    H     0.61587   0.47518   0.17708   0.01267  Uiso   1.00
H77    H     0.75398   0.41511   0.04072   0.01267  Uiso   1.00
H78    H     0.51358   0.38836   0.06713   0.01267  Uiso   1.00
H79    H     0.75596   0.37327   0.08837   0.01267  Uiso   1.00
H80    H     0.53511   0.54036   0.98171   0.01267  Uiso   1.00
H81    H     0.51809   0.51628   0.03317   0.01267  Uiso   1.00
H82    H     0.39521   0.63308   0.98719   0.01267  Uiso   1.00
H83    H     0.45165   0.60658   0.97230   0.01267  Uiso   1.00
H84    H     0.38650   0.54148   0.01694   0.01267  Uiso   1.00
H85    H     0.41637   0.56398   0.04133   0.01267  Uiso   1.00
H86    H     0.76372   0.21783   0.37448   0.01267  Uiso   1.00
H87    H     0.01940   0.20299   0.42102   0.01267  Uiso   1.00
H88    H     0.21752   0.14625   0.44612   0.01267  Uiso   1.00
H89    H     0.57444   0.13569   0.48638   0.01267  Uiso   1.00
H90    H     0.88589   0.08346   0.40709   0.01267  Uiso   1.00
H91    H     0.16075   0.05554   0.50451   0.01267  Uiso   1.00
H92    H     0.75930   0.13066   0.35067   0.01267  Uiso   1.00
H93    H     0.79295   0.17708   0.34774   0.01267  Uiso   1.00
H94    H     0.79470   0.04072   0.54417   0.01267  Uiso   1.00
H95    H     0.58071   0.06713   0.54451   0.01267  Uiso   1.00
H96    H     0.84433   0.08837   0.53836   0.01267  Uiso   1.00
H97    H     0.51682   0.98171   0.47793   0.01267  Uiso   1.00
H98    H     0.55126   0.03317   0.45055   0.01267  Uiso   1.00
H99    H     0.38240   0.98719   0.37973   0.01267  Uiso   1.00
H100   H     0.42395   0.97230   0.42112   0.01267  Uiso   1.00
H101   H     0.40344   0.01694   0.44158   0.01267  Uiso   1.00
H102   H     0.45770   0.04133   0.39469   0.01267  Uiso   1.00
C1     C     0.48313   0.63177   0.64620   0.01267  Uiso   1.00
C2     C     0.34089   0.61786   0.62647   0.01267  Uiso   1.00
C3     C     0.13831   0.63010   0.61771   0.01267  Uiso   1.00
C4     C     0.01413   0.61540   0.59932   0.01267  Uiso   1.00
C5     C     0.08266   0.58793   0.59018   0.01267  Uiso   1.00
C6     C     0.28054   0.57522   0.59925   0.01267  Uiso   1.00
C7     C     0.40811   0.58995   0.61707   0.01267  Uiso   1.00
C8     C     0.94492   0.57111   0.57261   0.01267  Uiso   1.00
C9     C     0.87635   0.59391   0.53532   0.01267  Uiso   1.00
C10    C     0.75768   0.57569   0.51932   0.01267  Uiso   1.00
C11    C     0.71156   0.53515   0.53908   0.01267  Uiso   1.00
C12    C     0.77341   0.51258   0.57711   0.01267  Uiso   1.00
C13    C     0.88853   0.53093   0.59330   0.01267  Uiso   1.00
C14    C     0.60567   0.51734   0.51863   0.01267  Uiso   1.00
C15    C     0.40730   0.49734   0.53388   0.01267  Uiso   1.00
C16    C     0.69845   0.52037   0.48398   0.01267  Uiso   1.00
C17    C     0.93685   0.63703   0.51136   0.01267  Uiso   1.00
C18    C     0.72808   0.46903   0.60118   0.01267  Uiso   1.00
C19    C     0.91000   0.54137   0.46523   0.01267  Uiso   1.00
C20    C     0.04618   0.57967   0.43846   0.01267  Uiso   1.00
C21    C     0.13895   0.60593   0.39602   0.01267  Uiso   1.00
C22    C     0.12933   0.64620   0.72203   0.01267  Uiso   1.00
C23    C     0.96736   0.62647   0.75567   0.01267  Uiso   1.00
C24    C     0.75602   0.61771   0.75219   0.01267  Uiso   1.00
C25    C     0.61345   0.59932   0.78528   0.01267  Uiso   1.00
C26    C     0.67284   0.59018   0.82189   0.01267  Uiso   1.00
C27    C     0.87979   0.59925   0.82553   0.01267  Uiso   1.00
C28    C     0.02518   0.61707   0.79298   0.01267  Uiso   1.00
C29    C     0.51753   0.57261   0.85628   0.01267  Uiso   1.00
C30    C     0.41167   0.53532   0.87077   0.01267  Uiso   1.00
C31    C     0.27700   0.51932   0.90499   0.01267  Uiso   1.00
C32    C     0.25064   0.53908   0.92577   0.01267  Uiso   1.00
C33    C     0.35052   0.57711   0.91031   0.01267  Uiso   1.00
C34    C     0.48183   0.59330   0.87577   0.01267  Uiso   1.00
C35    C     0.12430   0.51863   0.96403   0.01267  Uiso   1.00
C36    C     0.94118   0.53388   0.96878   0.01267  Uiso   1.00
C37    C     0.18243   0.48398   0.99565   0.01267  Uiso   1.00
C38    C     0.44821   0.51136   0.85161   0.01267  Uiso   1.00
C39    C     0.32926   0.60118   0.92979   0.01267  Uiso   1.00
C40    C     0.37523   0.46523   0.99340   0.01267  Uiso   1.00
C41    C     0.48464   0.43846   0.98187   0.01267  Uiso   1.00
C42    C     0.53497   0.39602   0.99805   0.01267  Uiso   1.00
C43    C     0.85136   0.72203   0.63177   0.01267  Uiso   1.00
C44    C     0.72303   0.75567   0.61786   0.01267  Uiso   1.00
C45    C     0.50821   0.75219   0.63010   0.01267  Uiso   1.00
C46    C     0.39873   0.78528   0.61540   0.01267  Uiso   1.00
C47    C     0.49473   0.82189   0.58793   0.01267  Uiso   1.00
C48    C     0.70532   0.82553   0.57522   0.01267  Uiso   1.00
C49    C     0.81816   0.79298   0.58995   0.01267  Uiso   1.00
C50    C     0.37381   0.85628   0.57111   0.01267  Uiso   1.00
C51    C     0.28244   0.87077   0.59391   0.01267  Uiso   1.00
C52    C     0.18199   0.90499   0.57569   0.01267  Uiso   1.00
C53    C     0.17641   0.92577   0.53515   0.01267  Uiso   1.00
C54    C     0.26083   0.91031   0.51258   0.01267  Uiso   1.00
C55    C     0.35760   0.87577   0.53093   0.01267  Uiso   1.00
C56    C     0.08833   0.96403   0.51734   0.01267  Uiso   1.00
C57    C     0.90996   0.96878   0.49734   0.01267  Uiso   1.00
C58    C     0.17808   0.99565   0.52037   0.01267  Uiso   1.00
C59    C     0.29982   0.85161   0.63703   0.01267  Uiso   1.00
C60    C     0.25905   0.92979   0.46903   0.01267  Uiso   1.00
C61    C     0.36863   0.99340   0.54137   0.01267  Uiso   1.00
C62    C     0.46651   0.98187   0.57967   0.01267  Uiso   1.00
C63    C     0.53302   0.99805   0.60593   0.01267  Uiso   1.00
C64    C     0.51687   0.36823   0.35380   0.01267  Uiso   1.00
C65    C     0.65911   0.38214   0.37353   0.01267  Uiso   1.00
C66    C     0.86169   0.36990   0.38229   0.01267  Uiso   1.00
C67    C     0.98587   0.38460   0.40068   0.01267  Uiso   1.00
C68    C     0.91734   0.41207   0.40982   0.01267  Uiso   1.00
C69    C     0.71946   0.42478   0.40075   0.01267  Uiso   1.00
C70    C     0.59189   0.41005   0.38293   0.01267  Uiso   1.00
C71    C     0.05508   0.42889   0.42739   0.01267  Uiso   1.00
C72    C     0.12365   0.40609   0.46468   0.01267  Uiso   1.00
C73    C     0.24232   0.42431   0.48068   0.01267  Uiso   1.00
C74    C     0.28844   0.46485   0.46092   0.01267  Uiso   1.00
C75    C     0.22659   0.48742   0.42289   0.01267  Uiso   1.00
C76    C     0.11147   0.46907   0.40670   0.01267  Uiso   1.00
C77    C     0.39433   0.48266   0.48137   0.01267  Uiso   1.00
C78    C     0.59270   0.50266   0.46612   0.01267  Uiso   1.00
C79    C     0.30155   0.47963   0.51602   0.01267  Uiso   1.00
C80    C     0.06315   0.36297   0.48864   0.01267  Uiso   1.00
C81    C     0.27192   0.53097   0.39882   0.01267  Uiso   1.00
C82    C     0.09000   0.45863   0.53477   0.01267  Uiso   1.00
C83    C     0.95382   0.42033   0.56154   0.01267  Uiso   1.00
C84    C     0.86105   0.39407   0.60398   0.01267  Uiso   1.00
C85    C     0.87067   0.35380   0.27797   0.01267  Uiso   1.00
C86    C     0.03264   0.37353   0.24433   0.01267  Uiso   1.00
C87    C     0.24398   0.38229   0.24781   0.01267  Uiso   1.00
C88    C     0.38655   0.40068   0.21472   0.01267  Uiso   1.00
C89    C     0.32716   0.40982   0.17811   0.01267  Uiso   1.00
C90    C     0.12021   0.40075   0.17447   0.01267  Uiso   1.00
C91    C     0.97482   0.38293   0.20702   0.01267  Uiso   1.00
C92    C     0.48247   0.42739   0.14372   0.01267  Uiso   1.00
C93    C     0.58833   0.46468   0.12923   0.01267  Uiso   1.00
C94    C     0.72300   0.48068   0.09501   0.01267  Uiso   1.00
C95    C     0.74936   0.46092   0.07423   0.01267  Uiso   1.00
C96    C     0.64948   0.42289   0.08969   0.01267  Uiso   1.00
C97    C     0.51817   0.40670   0.12423   0.01267  Uiso   1.00
C98    C     0.87570   0.48137   0.03597   0.01267  Uiso   1.00
C99    C     0.05882   0.46612   0.03122   0.01267  Uiso   1.00
C100   C     0.81757   0.51602   0.00435   0.01267  Uiso   1.00
C101   C     0.55179   0.48864   0.14839   0.01267  Uiso   1.00
C102   C     0.67074   0.39882   0.07021   0.01267  Uiso   1.00
C103   C     0.62477   0.53477   0.00660   0.01267  Uiso   1.00
C104   C     0.51536   0.56154   0.01813   0.01267  Uiso   1.00
C105   C     0.46503   0.60398   0.00195   0.01267  Uiso   1.00
C106   C     0.14864   0.27797   0.36823   0.01267  Uiso   1.00
C107   C     0.27697   0.24433   0.38214   0.01267  Uiso   1.00
C108   C     0.49179   0.24781   0.36990   0.01267  Uiso   1.00
C109   C     0.60127   0.21472   0.38460   0.01267  Uiso   1.00
C110   C     0.50527   0.17811   0.41207   0.01267  Uiso   1.00
C111   C     0.29468   0.17447   0.42478   0.01267  Uiso   1.00
C112   C     0.18184   0.20702   0.41005   0.01267  Uiso   1.00
C113   C     0.62619   0.14372   0.42889   0.01267  Uiso   1.00
C114   C     0.71756   0.12923   0.40609   0.01267  Uiso   1.00
C115   C     0.81801   0.09501   0.42431   0.01267  Uiso   1.00
C116   C     0.82359   0.07423   0.46485   0.01267  Uiso   1.00
C117   C     0.73917   0.08969   0.48742   0.01267  Uiso   1.00
C118   C     0.64240   0.12423   0.46907   0.01267  Uiso   1.00
C119   C     0.91167   0.03597   0.48266   0.01267  Uiso   1.00
C120   C     0.09004   0.03122   0.50266   0.01267  Uiso   1.00
C121   C     0.82192   0.00435   0.47963   0.01267  Uiso   1.00
C122   C     0.70018   0.14839   0.36297   0.01267  Uiso   1.00
C123   C     0.74095   0.07021   0.53097   0.01267  Uiso   1.00
C124   C     0.63137   0.00660   0.45863   0.01267  Uiso   1.00
C125   C     0.53349   0.01813   0.42033   0.01267  Uiso   1.00
C126   C     0.46698   0.00195   0.39407   0.01267  Uiso   1.00
O1     O     0.66320   0.61979   0.65195   0.01267  Uiso   1.00
O2     O     0.42913   0.65501   0.65708   0.01267  Uiso   1.00
O3     O     0.05400   0.65749   0.62503   0.01267  Uiso   1.00
O4     O     0.31515   0.65195   0.72826   0.01267  Uiso   1.00
O5     O     0.08621   0.65708   0.68791   0.01267  Uiso   1.00
O6     O     0.67903   0.62503   0.71748   0.01267  Uiso   1.00
O7     O     0.04341   0.72826   0.61979   0.01267  Uiso   1.00
O8     O     0.77412   0.68791   0.65501   0.01267  Uiso   1.00
O9     O     0.39651   0.71748   0.65749   0.01267  Uiso   1.00
O10    O     0.33680   0.38021   0.34805   0.01267  Uiso   1.00
O11    O     0.57087   0.34499   0.34292   0.01267  Uiso   1.00
O12    O     0.94600   0.34251   0.37497   0.01267  Uiso   1.00
O13    O     0.68485   0.34805   0.27174   0.01267  Uiso   1.00
O14    O     0.91379   0.34292   0.31209   0.01267  Uiso   1.00
O15    O     0.32097   0.37497   0.28252   0.01267  Uiso   1.00
O16    O     0.95659   0.27174   0.38021   0.01267  Uiso   1.00
O17    O     0.22588   0.31209   0.34499   0.01267  Uiso   1.00
O18    O     0.60349   0.28252   0.34251   0.01267  Uiso   1.00
