data_RAVWES_clean
_audit_creation_date              2014-07-02
_audit_creation_method            'Materials Studio'
_symmetry_space_group_name_H-M    'P1'
_symmetry_Int_Tables_number       1
_symmetry_cell_setting            triclinic
loop_
_symmetry_equiv_pos_as_xyz
  x,y,z
_cell_length_a                    6.6940
_cell_length_b                    32.1967
_cell_length_c                    32.1967
_cell_angle_alpha                 60.4755
_cell_angle_beta                  86.0261
_cell_angle_gamma                 93.9739
loop_
_atom_site_label
_atom_site_type_symbol
_atom_site_fract_x
_atom_site_fract_y
_atom_site_fract_z
_atom_site_U_iso_or_equiv
_atom_site_adp_type
_atom_site_occupancy
Mg1    Mg    0.28374   0.37030   0.32628   0.01267  Uiso   1.00
Mg2    Mg    0.71495   0.63018   0.67253   0.01267  Uiso   1.00
Mg3    Mg    0.61002   0.32628   0.30342   0.01267  Uiso   1.00
Mg4    Mg    0.38748   0.67253   0.69729   0.01267  Uiso   1.00
Mg5    Mg    0.91344   0.30342   0.37030   0.01267  Uiso   1.00
Mg6    Mg    0.08477   0.69729   0.63018   0.01267  Uiso   1.00
H1     H     0.62765   0.51936   0.42281   0.01267  Uiso   1.00
H2     H     0.96758   0.42530   0.51292   0.01267  Uiso   1.00
H3     H     0.20283   0.53731   0.56325   0.01267  Uiso   1.00
H4     H     0.42309   0.57214   0.60060   0.01267  Uiso   1.00
H5     H     0.72814   0.61526   0.57658   0.01267  Uiso   1.00
H6     H     0.27270   0.39030   0.42008   0.01267  Uiso   1.00
H7     H     0.57238   0.42940   0.39705   0.01267  Uiso   1.00
H8     H     0.78992   0.46558   0.43353   0.01267  Uiso   1.00
H9     H     0.73620   0.62149   0.49626   0.01267  Uiso   1.00
H10    H     0.64592   0.44390   0.55942   0.01267  Uiso   1.00
H11    H     0.29957   0.47192   0.36184   0.01267  Uiso   1.00
H12    H     0.55875   0.46847   0.37528   0.01267  Uiso   1.00
H13    H     0.45914   0.52648   0.34851   0.01267  Uiso   1.00
H14    H     0.27075   0.43605   0.58769   0.01267  Uiso   1.00
H15    H     0.01311   0.43878   0.57314   0.01267  Uiso   1.00
H16    H     0.16958   0.49386   0.55949   0.01267  Uiso   1.00
H17    H     0.57166   0.62866   0.42645   0.01267  Uiso   1.00
H18    H     0.34892   0.60751   0.47064   0.01267  Uiso   1.00
H19    H     0.39880   0.57752   0.43585   0.01267  Uiso   1.00
H20    H     0.79193   0.46615   0.64263   0.01267  Uiso   1.00
H21    H     0.03523   0.48080   0.60664   0.01267  Uiso   1.00
H22    H     0.85760   0.43152   0.61352   0.01267  Uiso   1.00
H23    H     0.05046   0.42281   0.05783   0.01267  Uiso   1.00
H24    H     0.48050   0.51292   0.06178   0.01267  Uiso   1.00
H25    H     0.76608   0.56325   0.89944   0.01267  Uiso   1.00
H26    H     0.02369   0.60060   0.82726   0.01267  Uiso   1.00
H27    H     0.30472   0.57658   0.80816   0.01267  Uiso   1.00
H28    H     0.69278   0.42008   0.18962   0.01267  Uiso   1.00
H29    H     0.96943   0.39705   0.17355   0.01267  Uiso   1.00
H30    H     0.22345   0.43353   0.10089   0.01267  Uiso   1.00
H31    H     0.23246   0.49626   0.88225   0.01267  Uiso   1.00
H32    H     0.20534   0.55942   0.99668   0.01267  Uiso   1.00
H33    H     0.66141   0.36184   0.16624   0.01267  Uiso   1.00
H34    H     0.93403   0.37528   0.15625   0.01267  Uiso   1.00
H35    H     0.80765   0.34851   0.12501   0.01267  Uiso   1.00
H36    H     0.85844   0.58769   0.97626   0.01267  Uiso   1.00
H37    H     0.58625   0.57314   0.98808   0.01267  Uiso   1.00
H38    H     0.72907   0.55949   0.94665   0.01267  Uiso   1.00
H39    H     0.99811   0.42645   0.94489   0.01267  Uiso   1.00
H40    H     0.81956   0.47064   0.92185   0.01267  Uiso   1.00
H41    H     0.83465   0.43585   0.98663   0.01267  Uiso   1.00
H42    H     0.43456   0.64263   0.89122   0.01267  Uiso   1.00
H43    H     0.64187   0.60664   0.91256   0.01267  Uiso   1.00
H44    H     0.47112   0.61352   0.95496   0.01267  Uiso   1.00
H45    H     0.10829   0.05783   0.51936   0.01267  Uiso   1.00
H46    H     0.54228   0.06178   0.42530   0.01267  Uiso   1.00
H47    H     0.66552   0.89944   0.53731   0.01267  Uiso   1.00
H48    H     0.85095   0.82726   0.57214   0.01267  Uiso   1.00
H49    H     0.11288   0.80816   0.61526   0.01267  Uiso   1.00
H50    H     0.88240   0.18962   0.39030   0.01267  Uiso   1.00
H51    H     0.14298   0.17355   0.42940   0.01267  Uiso   1.00
H52    H     0.32434   0.10089   0.46558   0.01267  Uiso   1.00
H53    H     0.11471   0.88225   0.62149   0.01267  Uiso   1.00
H54    H     0.20202   0.99668   0.44390   0.01267  Uiso   1.00
H55    H     0.82765   0.16624   0.47192   0.01267  Uiso   1.00
H56    H     0.09028   0.15625   0.46847   0.01267  Uiso   1.00
H57    H     0.93266   0.12501   0.52648   0.01267  Uiso   1.00
H58    H     0.83470   0.97626   0.43605   0.01267  Uiso   1.00
H59    H     0.57433   0.98808   0.43878   0.01267  Uiso   1.00
H60    H     0.67572   0.94665   0.49386   0.01267  Uiso   1.00
H61    H     0.94300   0.94489   0.62866   0.01267  Uiso   1.00
H62    H     0.74141   0.92185   0.60751   0.01267  Uiso   1.00
H63    H     0.82128   0.98663   0.57752   0.01267  Uiso   1.00
H64    H     0.32578   0.89122   0.46615   0.01267  Uiso   1.00
H65    H     0.55443   0.91256   0.48080   0.01267  Uiso   1.00
H66    H     0.42608   0.95496   0.43152   0.01267  Uiso   1.00
C1     C     0.35729   0.47854   0.42279   0.01267  Uiso   1.00
C2     C     0.47997   0.49822   0.44295   0.01267  Uiso   1.00
C3     C     0.42280   0.49216   0.48816   0.01267  Uiso   1.00
C4     C     0.23882   0.46566   0.51326   0.01267  Uiso   1.00
C5     C     0.11605   0.44612   0.49297   0.01267  Uiso   1.00
C6     C     0.17462   0.45198   0.44807   0.01267  Uiso   1.00
C7     C     0.26627   0.58137   0.59564   0.01267  Uiso   1.00
C8     C     0.14456   0.56205   0.57515   0.01267  Uiso   1.00
C9     C     0.95046   0.57297   0.56918   0.01267  Uiso   1.00
C10    C     0.88275   0.60471   0.58262   0.01267  Uiso   1.00
C11    C     0.99763   0.37857   0.39404   0.01267  Uiso   1.00
C12    C     0.79930   0.38950   0.38727   0.01267  Uiso   1.00
C13    C     0.66373   0.37292   0.36271   0.01267  Uiso   1.00
C14    C     0.33458   0.62832   0.63581   0.01267  Uiso   1.00
C15    C     0.19883   0.61254   0.61064   0.01267  Uiso   1.00
C16    C     0.00157   0.62419   0.60360   0.01267  Uiso   1.00
C17    C     0.11583   0.39914   0.41422   0.01267  Uiso   1.00
C18    C     0.04459   0.43065   0.42749   0.01267  Uiso   1.00
C19    C     0.85038   0.44088   0.42185   0.01267  Uiso   1.00
C20    C     0.72999   0.42077   0.40189   0.01267  Uiso   1.00
C21    C     0.81748   0.55175   0.54853   0.01267  Uiso   1.00
C22    C     0.71429   0.58160   0.51106   0.01267  Uiso   1.00
C23    C     0.58371   0.56284   0.49149   0.01267  Uiso   1.00
C24    C     0.55798   0.51338   0.50854   0.01267  Uiso   1.00
C25    C     0.66207   0.48360   0.54581   0.01267  Uiso   1.00
C26    C     0.78644   0.50216   0.56665   0.01267  Uiso   1.00
C27    C     0.42264   0.48685   0.37416   0.01267  Uiso   1.00
C28    C     0.16886   0.45814   0.56127   0.01267  Uiso   1.00
C29    C     0.46883   0.59615   0.45382   0.01267  Uiso   1.00
C30    C     0.87303   0.46811   0.60997   0.01267  Uiso   1.00
C31    C     0.78008   0.42279   0.09867   0.01267  Uiso   1.00
C32    C     0.92292   0.44295   0.05883   0.01267  Uiso   1.00
C33    C     0.91096   0.48816   0.01968   0.01267  Uiso   1.00
C34    C     0.75208   0.51326   0.02108   0.01267  Uiso   1.00
C35    C     0.60902   0.49297   0.06091   0.01267  Uiso   1.00
C36    C     0.62269   0.44807   0.09995   0.01267  Uiso   1.00
C37    C     0.86191   0.59564   0.82299   0.01267  Uiso   1.00
C38    C     0.71971   0.57515   0.86280   0.01267  Uiso   1.00
C39    C     0.51964   0.56918   0.85785   0.01267  Uiso   1.00
C40    C     0.46537   0.58262   0.81267   0.01267  Uiso   1.00
C41    C     0.39167   0.39404   0.22739   0.01267  Uiso   1.00
C42    C     0.18657   0.38727   0.22323   0.01267  Uiso   1.00
C43    C     0.02644   0.36271   0.26437   0.01267  Uiso   1.00
C44    C     0.97039   0.63581   0.73587   0.01267  Uiso   1.00
C45    C     0.80947   0.61064   0.77682   0.01267  Uiso   1.00
C46    C     0.60517   0.60360   0.77221   0.01267  Uiso   1.00
C47    C     0.53005   0.41422   0.18664   0.01267  Uiso   1.00
C48    C     0.47208   0.42749   0.14186   0.01267  Uiso   1.00
C49    C     0.27223   0.42185   0.13727   0.01267  Uiso   1.00
C50    C     0.13188   0.40189   0.17734   0.01267  Uiso   1.00
C51    C     0.36601   0.54853   0.89972   0.01267  Uiso   1.00
C52    C     0.22535   0.51106   0.90734   0.01267  Uiso   1.00
C53    C     0.07520   0.49149   0.94567   0.01267  Uiso   1.00
C54    C     0.06652   0.50854   0.97808   0.01267  Uiso   1.00
C55    C     0.20788   0.54581   0.97059   0.01267  Uiso   1.00
C56    C     0.35309   0.56665   0.93119   0.01267  Uiso   1.00
C57    C     0.79680   0.37416   0.13899   0.01267  Uiso   1.00
C58    C     0.73013   0.56127   0.98059   0.01267  Uiso   1.00
C59    C     0.92265   0.45382   0.95003   0.01267  Uiso   1.00
C60    C     0.48300   0.60997   0.92192   0.01267  Uiso   1.00
C61    C     0.87875   0.09867   0.47854   0.01267  Uiso   1.00
C62    C     0.98175   0.05883   0.49822   0.01267  Uiso   1.00
C63    C     0.93064   0.01968   0.49216   0.01267  Uiso   1.00
C64    C     0.77316   0.02108   0.46566   0.01267  Uiso   1.00
C65    C     0.66993   0.06091   0.44612   0.01267  Uiso   1.00
C66    C     0.72264   0.09995   0.45198   0.01267  Uiso   1.00
C67    C     0.68490   0.82299   0.58137   0.01267  Uiso   1.00
C68    C     0.58251   0.86280   0.56205   0.01267  Uiso   1.00
C69    C     0.37749   0.85785   0.57297   0.01267  Uiso   1.00
C70    C     0.27804   0.81267   0.60471   0.01267  Uiso   1.00
C71    C     0.61906   0.22739   0.37857   0.01267  Uiso   1.00
C72    C     0.40980   0.22323   0.38950   0.01267  Uiso   1.00
C73    C     0.29081   0.26437   0.37292   0.01267  Uiso   1.00
C74    C     0.70626   0.73587   0.62832   0.01267  Uiso   1.00
C75    C     0.58629   0.77682   0.61254   0.01267  Uiso   1.00
C76    C     0.37738   0.77221   0.62419   0.01267  Uiso   1.00
C77    C     0.71669   0.18664   0.39914   0.01267  Uiso   1.00
C78    C     0.61394   0.14186   0.43065   0.01267  Uiso   1.00
C79    C     0.40950   0.13727   0.44088   0.01267  Uiso   1.00
C80    C     0.30922   0.17734   0.42077   0.01267  Uiso   1.00
C81    C     0.26573   0.89972   0.55175   0.01267  Uiso   1.00
C82    C     0.13269   0.90734   0.58160   0.01267  Uiso   1.00
C83    C     0.02087   0.94567   0.56284   0.01267  Uiso   1.00
C84    C     0.04460   0.97808   0.51338   0.01267  Uiso   1.00
C85    C     0.17847   0.97059   0.48360   0.01267  Uiso   1.00
C86    C     0.28428   0.93119   0.50216   0.01267  Uiso   1.00
C87    C     0.93579   0.13899   0.48685   0.01267  Uiso   1.00
C88    C     0.71072   0.98059   0.45814   0.01267  Uiso   1.00
C89    C     0.87268   0.95003   0.59615   0.01267  Uiso   1.00
C90    C     0.40492   0.92192   0.46811   0.01267  Uiso   1.00
O1     O     0.08133   0.34580   0.38434   0.01267  Uiso   1.00
O2     O     0.71733   0.34584   0.34712   0.01267  Uiso   1.00
O3     O     0.49162   0.38662   0.35730   0.01267  Uiso   1.00
O4     O     0.50704   0.61476   0.64076   0.01267  Uiso   1.00
O5     O     0.28061   0.65458   0.65241   0.01267  Uiso   1.00
O6     O     0.91809   0.65625   0.61439   0.01267  Uiso   1.00
O7     O     0.46567   0.38434   0.26986   0.01267  Uiso   1.00
O8     O     0.06445   0.34712   0.30704   0.01267  Uiso   1.00
O9     O     0.84892   0.35730   0.25608   0.01267  Uiso   1.00
O10    O     0.14780   0.64076   0.74448   0.01267  Uiso   1.00
O11    O     0.93302   0.65241   0.69301   0.01267  Uiso   1.00
O12    O     0.53248   0.61439   0.72936   0.01267  Uiso   1.00
O13    O     0.73553   0.26986   0.34580   0.01267  Uiso   1.00
O14    O     0.37149   0.30704   0.34584   0.01267  Uiso   1.00
O15    O     0.10500   0.25608   0.38662   0.01267  Uiso   1.00
O16    O     0.89228   0.74448   0.61476   0.01267  Uiso   1.00
O17    O     0.62603   0.69301   0.65458   0.01267  Uiso   1.00
O18    O     0.26184   0.72936   0.65625   0.01267  Uiso   1.00
