data_RAVWIW_clean
_audit_creation_date              2014-07-02
_audit_creation_method            'Materials Studio'
_symmetry_space_group_name_H-M    'P1'
_symmetry_Int_Tables_number       1
_symmetry_cell_setting            triclinic
loop_
_symmetry_equiv_pos_as_xyz
  x,y,z
_cell_length_a                    6.8181
_cell_length_b                    38.4122
_cell_length_c                    38.4122
_cell_angle_alpha                 60.3468
_cell_angle_beta                  86.6080
_cell_angle_gamma                 93.3920
loop_
_atom_site_label
_atom_site_type_symbol
_atom_site_fract_x
_atom_site_fract_y
_atom_site_fract_z
_atom_site_U_iso_or_equiv
_atom_site_adp_type
_atom_site_occupancy
Mg1    Mg    0.16580   0.36339   0.32828   0.01267  Uiso   1.00
Mg2    Mg    0.83765   0.63724   0.67185   0.01267  Uiso   1.00
Mg3    Mg    0.49408   0.32828   0.30833   0.01267  Uiso   1.00
Mg4    Mg    0.50950   0.67185   0.69091   0.01267  Uiso   1.00
Mg5    Mg    0.80241   0.30833   0.36339   0.01267  Uiso   1.00
Mg6    Mg    0.20041   0.69091   0.63724   0.01267  Uiso   1.00
H1     H     0.01897   0.45087   0.52076   0.01267  Uiso   1.00
H2     H     0.11557   0.43462   0.56733   0.01267  Uiso   1.00
H3     H     0.01776   0.48140   0.54202   0.01267  Uiso   1.00
H4     H     0.37232   0.53854   0.37704   0.01267  Uiso   1.00
H5     H     0.12699   0.54429   0.39188   0.01267  Uiso   1.00
H6     H     0.32566   0.54385   0.41949   0.01267  Uiso   1.00
H7     H     0.14134   0.34658   0.47731   0.01267  Uiso   1.00
H8     H     0.12321   0.34841   0.52183   0.01267  Uiso   1.00
H9     H     0.90927   0.35472   0.49556   0.01267  Uiso   1.00
H10    H     0.64550   0.50190   0.44219   0.01267  Uiso   1.00
H11    H     0.28968   0.40588   0.51315   0.01267  Uiso   1.00
H12    H     0.06135   0.48569   0.38176   0.01267  Uiso   1.00
H13    H     0.32187   0.56023   0.58464   0.01267  Uiso   1.00
H14    H     0.53835   0.58697   0.61393   0.01267  Uiso   1.00
H15    H     0.85048   0.62108   0.59806   0.01267  Uiso   1.00
H16    H     0.15075   0.37653   0.40754   0.01267  Uiso   1.00
H17    H     0.46996   0.41382   0.38582   0.01267  Uiso   1.00
H18    H     0.68128   0.44049   0.41600   0.01267  Uiso   1.00
H19    H     0.93957   0.51308   0.62236   0.01267  Uiso   1.00
H20    H     0.70278   0.59270   0.49174   0.01267  Uiso   1.00
H21    H     0.34972   0.49661   0.56266   0.01267  Uiso   1.00
H22    H     0.08432   0.64426   0.50829   0.01267  Uiso   1.00
H23    H     0.86656   0.65041   0.48306   0.01267  Uiso   1.00
H24    H     0.85457   0.65188   0.52779   0.01267  Uiso   1.00
H25    H     0.66967   0.45477   0.58541   0.01267  Uiso   1.00
H26    H     0.87030   0.45437   0.61261   0.01267  Uiso   1.00
H27    H     0.62605   0.46019   0.62785   0.01267  Uiso   1.00
H28    H     0.97743   0.51723   0.46268   0.01267  Uiso   1.00
H29    H     0.87919   0.56398   0.43749   0.01267  Uiso   1.00
H30    H     0.97611   0.54770   0.48403   0.01267  Uiso   1.00
H31    H     0.53973   0.52076   0.02837   0.01267  Uiso   1.00
H32    H     0.68290   0.56733   0.99805   0.01267  Uiso   1.00
H33    H     0.55978   0.54202   0.97658   0.01267  Uiso   1.00
H34    H     0.74936   0.37704   0.08442   0.01267  Uiso   1.00
H35    H     0.51887   0.39188   0.06383   0.01267  Uiso   1.00
H36    H     0.74515   0.41949   0.03666   0.01267  Uiso   1.00
H37    H     0.61865   0.47731   0.17611   0.01267  Uiso   1.00
H38    H     0.64504   0.52183   0.12976   0.01267  Uiso   1.00
H39    H     0.40483   0.49556   0.14972   0.01267  Uiso   1.00
H40    H     0.08769   0.44219   0.05591   0.01267  Uiso   1.00
H41    H     0.80283   0.51315   0.08097   0.01267  Uiso   1.00
H42    H     0.44311   0.38176   0.13255   0.01267  Uiso   1.00
H43    H     0.90651   0.58464   0.85513   0.01267  Uiso   1.00
H44    H     0.15228   0.61393   0.79910   0.01267  Uiso   1.00
H45    H     0.44854   0.59806   0.78086   0.01267  Uiso   1.00
H46    H     0.55829   0.40754   0.21593   0.01267  Uiso   1.00
H47    H     0.85578   0.38582   0.20036   0.01267  Uiso   1.00
H48    H     0.09728   0.41600   0.14351   0.01267  Uiso   1.00
H49    H     0.56193   0.62236   0.86456   0.01267  Uiso   1.00
H50    H     0.19452   0.49174   0.91556   0.01267  Uiso   1.00
H51    H     0.91238   0.56266   0.94073   0.01267  Uiso   1.00
H52    H     0.59261   0.50829   0.84745   0.01267  Uiso   1.00
H53    H     0.34962   0.48306   0.86653   0.01267  Uiso   1.00
H54    H     0.38236   0.52779   0.82033   0.01267  Uiso   1.00
H55    H     0.25508   0.58541   0.95982   0.01267  Uiso   1.00
H56    H     0.48291   0.61261   0.93302   0.01267  Uiso   1.00
H57    H     0.25390   0.62785   0.91196   0.01267  Uiso   1.00
H58    H     0.44011   0.46268   0.02009   0.01267  Uiso   1.00
H59    H     0.31668   0.43749   0.99853   0.01267  Uiso   1.00
H60    H     0.46014   0.48403   0.96827   0.01267  Uiso   1.00
H61    H     0.56810   0.02837   0.45087   0.01267  Uiso   1.00
H62    H     0.68095   0.99805   0.43462   0.01267  Uiso   1.00
H63    H     0.53636   0.97658   0.48140   0.01267  Uiso   1.00
H64    H     0.83378   0.08442   0.53854   0.01267  Uiso   1.00
H65    H     0.58270   0.06383   0.54429   0.01267  Uiso   1.00
H66    H     0.78181   0.03666   0.54385   0.01267  Uiso   1.00
H67    H     0.79476   0.17611   0.34658   0.01267  Uiso   1.00
H68    H     0.77480   0.12976   0.34841   0.01267  Uiso   1.00
H69    H     0.55455   0.14972   0.35472   0.01267  Uiso   1.00
H70    H     0.14360   0.05591   0.50190   0.01267  Uiso   1.00
H71    H     0.88380   0.08097   0.40588   0.01267  Uiso   1.00
H72    H     0.57566   0.13255   0.48569   0.01267  Uiso   1.00
H73    H     0.76164   0.85513   0.56023   0.01267  Uiso   1.00
H74    H     0.95138   0.79910   0.58697   0.01267  Uiso   1.00
H75    H     0.22940   0.78086   0.62108   0.01267  Uiso   1.00
H76    H     0.77422   0.21593   0.37653   0.01267  Uiso   1.00
H77    H     0.05614   0.20036   0.41382   0.01267  Uiso   1.00
H78    H     0.24079   0.14351   0.44049   0.01267  Uiso   1.00
H79    H     0.42649   0.86456   0.51308   0.01267  Uiso   1.00
H80    H     0.11008   0.91556   0.59270   0.01267  Uiso   1.00
H81    H     0.85311   0.94073   0.49661   0.01267  Uiso   1.00
H82    H     0.44006   0.84745   0.64426   0.01267  Uiso   1.00
H83    H     0.21615   0.86653   0.65041   0.01267  Uiso   1.00
H84    H     0.20269   0.82033   0.65188   0.01267  Uiso   1.00
H85    H     0.21490   0.95982   0.45477   0.01267  Uiso   1.00
H86    H     0.41593   0.93302   0.45437   0.01267  Uiso   1.00
H87    H     0.16586   0.91196   0.46019   0.01267  Uiso   1.00
H88    H     0.46020   0.02009   0.51723   0.01267  Uiso   1.00
H89    H     0.31521   0.99853   0.56398   0.01267  Uiso   1.00
H90    H     0.42841   0.96827   0.54770   0.01267  Uiso   1.00
C1     C     0.10364   0.46045   0.53814   0.01267  Uiso   1.00
C2     C     0.26523   0.53077   0.40266   0.01267  Uiso   1.00
C3     C     0.07219   0.36117   0.49211   0.01267  Uiso   1.00
C4     C     0.68840   0.51840   0.48587   0.01267  Uiso   1.00
C5     C     0.58059   0.50086   0.46845   0.01267  Uiso   1.00
C6     C     0.39027   0.48198   0.48434   0.01267  Uiso   1.00
C7     C     0.11144   0.46827   0.41048   0.01267  Uiso   1.00
C8     C     0.22214   0.48684   0.42656   0.01267  Uiso   1.00
C9     C     0.28350   0.46408   0.46446   0.01267  Uiso   1.00
C10    C     0.23982   0.42323   0.48439   0.01267  Uiso   1.00
C11    C     0.12694   0.40476   0.46844   0.01267  Uiso   1.00
C12    C     0.06034   0.42769   0.43119   0.01267  Uiso   1.00
C13    C     0.38985   0.59560   0.61050   0.01267  Uiso   1.00
C14    C     0.26545   0.57965   0.59407   0.01267  Uiso   1.00
C15    C     0.06979   0.58844   0.58999   0.01267  Uiso   1.00
C16    C     0.99964   0.61332   0.60251   0.01267  Uiso   1.00
C17    C     0.88396   0.36879   0.38480   0.01267  Uiso   1.00
C18    C     0.68557   0.37862   0.37864   0.01267  Uiso   1.00
C19    C     0.54855   0.36536   0.35824   0.01267  Uiso   1.00
C20    C     0.44945   0.63299   0.64351   0.01267  Uiso   1.00
C21    C     0.32222   0.62082   0.62354   0.01267  Uiso   1.00
C22    C     0.12240   0.62996   0.61876   0.01267  Uiso   1.00
C23    C     0.00226   0.38469   0.40232   0.01267  Uiso   1.00
C24    C     0.93140   0.41040   0.41369   0.01267  Uiso   1.00
C25    C     0.73845   0.42043   0.40752   0.01267  Uiso   1.00
C26    C     0.61742   0.40472   0.39040   0.01267  Uiso   1.00
C27    C     0.93804   0.57104   0.57301   0.01267  Uiso   1.00
C28    C     0.86852   0.59392   0.53607   0.01267  Uiso   1.00
C29    C     0.75432   0.57540   0.52034   0.01267  Uiso   1.00
C30    C     0.71165   0.53452   0.54030   0.01267  Uiso   1.00
C31    C     0.77484   0.51183   0.57803   0.01267  Uiso   1.00
C32    C     0.88745   0.53046   0.59381   0.01267  Uiso   1.00
C33    C     0.60489   0.51654   0.52049   0.01267  Uiso   1.00
C34    C     0.41463   0.49766   0.53638   0.01267  Uiso   1.00
C35    C     0.30677   0.48012   0.51896   0.01267  Uiso   1.00
C36    C     0.92140   0.63759   0.51245   0.01267  Uiso   1.00
C37    C     0.73178   0.46791   0.60206   0.01267  Uiso   1.00
C38    C     0.89141   0.53812   0.46665   0.01267  Uiso   1.00
C39    C     0.64178   0.53814   0.00141   0.01267  Uiso   1.00
C40    C     0.66789   0.40266   0.06657   0.01267  Uiso   1.00
C41    C     0.56430   0.49211   0.14672   0.01267  Uiso   1.00
C42    C     0.17427   0.48587   0.99573   0.01267  Uiso   1.00
C43    C     0.04904   0.46845   0.03069   0.01267  Uiso   1.00
C44    C     0.87461   0.48434   0.03368   0.01267  Uiso   1.00
C45    C     0.52192   0.41048   0.12125   0.01267  Uiso   1.00
C46    C     0.64870   0.42656   0.08660   0.01267  Uiso   1.00
C47    C     0.74796   0.46446   0.07146   0.01267  Uiso   1.00
C48    C     0.72421   0.48439   0.09238   0.01267  Uiso   1.00
C49    C     0.59538   0.46844   0.12680   0.01267  Uiso   1.00
C50    C     0.49153   0.43119   0.14112   0.01267  Uiso   1.00
C51    C     0.00035   0.61050   0.79390   0.01267  Uiso   1.00
C52    C     0.85952   0.59407   0.82628   0.01267  Uiso   1.00
C53    C     0.65978   0.58999   0.82157   0.01267  Uiso   1.00
C54    C     0.60215   0.60251   0.78417   0.01267  Uiso   1.00
C55    C     0.26876   0.38480   0.24641   0.01267  Uiso   1.00
C56    C     0.06421   0.37864   0.24274   0.01267  Uiso   1.00
C57    C     0.90679   0.35824   0.27640   0.01267  Uiso   1.00
C58    C     0.09296   0.64351   0.72350   0.01267  Uiso   1.00
C59    C     0.94576   0.62354   0.75564   0.01267  Uiso   1.00
C60    C     0.74116   0.61876   0.75128   0.01267  Uiso   1.00
C61    C     0.40458   0.40232   0.21299   0.01267  Uiso   1.00
C62    C     0.34509   0.41369   0.17591   0.01267  Uiso   1.00
C63    C     0.14597   0.40752   0.17205   0.01267  Uiso   1.00
C64    C     0.00782   0.39040   0.20488   0.01267  Uiso   1.00
C65    C     0.51105   0.57301   0.85595   0.01267  Uiso   1.00
C66    C     0.40459   0.53607   0.87001   0.01267  Uiso   1.00
C67    C     0.27466   0.52034   0.90426   0.01267  Uiso   1.00
C68    C     0.25195   0.54030   0.92518   0.01267  Uiso   1.00
C69    C     0.35287   0.57803   0.91014   0.01267  Uiso   1.00
C70    C     0.48126   0.59381   0.87573   0.01267  Uiso   1.00
C71    C     0.12538   0.52049   0.96297   0.01267  Uiso   1.00
C72    C     0.95101   0.53638   0.96596   0.01267  Uiso   1.00
C73    C     0.82573   0.51896   0.00092   0.01267  Uiso   1.00
C74    C     0.43385   0.51245   0.84996   0.01267  Uiso   1.00
C75    C     0.33384   0.60206   0.93003   0.01267  Uiso   1.00
C76    C     0.35806   0.46665   0.99523   0.01267  Uiso   1.00
C77    C     0.64319   0.00141   0.46045   0.01267  Uiso   1.00
C78    C     0.73446   0.06657   0.53077   0.01267  Uiso   1.00
C79    C     0.71102   0.14672   0.36117   0.01267  Uiso   1.00
C80    C     0.17000   0.99573   0.51840   0.01267  Uiso   1.00
C81    C     0.07973   0.03069   0.50086   0.01267  Uiso   1.00
C82    C     0.90829   0.03368   0.48198   0.01267  Uiso   1.00
C83    C     0.64317   0.12125   0.46827   0.01267  Uiso   1.00
C84    C     0.73530   0.08660   0.48684   0.01267  Uiso   1.00
C85    C     0.81942   0.07146   0.46408   0.01267  Uiso   1.00
C86    C     0.81659   0.09238   0.42323   0.01267  Uiso   1.00
C87    C     0.72218   0.12680   0.40476   0.01267  Uiso   1.00
C88    C     0.63265   0.14112   0.42769   0.01267  Uiso   1.00
C89    C     0.79425   0.79390   0.59560   0.01267  Uiso   1.00
C90    C     0.68580   0.82628   0.57965   0.01267  Uiso   1.00
C91    C     0.48135   0.82157   0.58844   0.01267  Uiso   1.00
C92    C     0.38632   0.78417   0.61332   0.01267  Uiso   1.00
C93    C     0.51517   0.24641   0.36879   0.01267  Uiso   1.00
C94    C     0.30695   0.24274   0.37862   0.01267  Uiso   1.00
C95    C     0.18319   0.27640   0.36536   0.01267  Uiso   1.00
C96    C     0.81646   0.72350   0.63299   0.01267  Uiso   1.00
C97    C     0.70140   0.75564   0.62082   0.01267  Uiso   1.00
C98    C     0.49244   0.75128   0.62996   0.01267  Uiso   1.00
C99    C     0.61757   0.21299   0.38469   0.01267  Uiso   1.00
C100   C     0.52100   0.17591   0.41040   0.01267  Uiso   1.00
C101   C     0.31802   0.17205   0.42043   0.01267  Uiso   1.00
C102   C     0.21270   0.20488   0.40472   0.01267  Uiso   1.00
C103   C     0.36700   0.85595   0.57104   0.01267  Uiso   1.00
C104   C     0.27460   0.87001   0.59392   0.01267  Uiso   1.00
C105   C     0.17892   0.90426   0.57540   0.01267  Uiso   1.00
C106   C     0.17713   0.92518   0.53452   0.01267  Uiso   1.00
C107   C     0.26301   0.91014   0.51183   0.01267  Uiso   1.00
C108   C     0.35699   0.87573   0.53046   0.01267  Uiso   1.00
C109   C     0.08835   0.96297   0.51654   0.01267  Uiso   1.00
C110   C     0.91697   0.96596   0.49766   0.01267  Uiso   1.00
C111   C     0.82665   0.00092   0.48012   0.01267  Uiso   1.00
C112   C     0.28381   0.84996   0.63759   0.01267  Uiso   1.00
C113   C     0.26387   0.93003   0.46791   0.01267  Uiso   1.00
C114   C     0.35329   0.99523   0.53812   0.01267  Uiso   1.00
O1     O     0.96864   0.34214   0.37627   0.01267  Uiso   1.00
O2     O     0.60211   0.34327   0.34512   0.01267  Uiso   1.00
O3     O     0.37513   0.37671   0.35393   0.01267  Uiso   1.00
O4     O     0.62549   0.62305   0.64713   0.01267  Uiso   1.00
O5     O     0.38965   0.65334   0.65822   0.01267  Uiso   1.00
O6     O     0.04985   0.65351   0.62827   0.01267  Uiso   1.00
O7     O     0.34491   0.37627   0.28159   0.01267  Uiso   1.00
O8     O     0.94723   0.34512   0.31161   0.01267  Uiso   1.00
O9     O     0.72906   0.35393   0.26936   0.01267  Uiso   1.00
O10    O     0.27262   0.64713   0.72982   0.01267  Uiso   1.00
O11    O     0.04787   0.65822   0.68844   0.01267  Uiso   1.00
O12    O     0.67812   0.62827   0.71822   0.01267  Uiso   1.00
O13    O     0.62650   0.28159   0.34214   0.01267  Uiso   1.00
O14    O     0.25884   0.31161   0.34327   0.01267  Uiso   1.00
O15    O     0.99842   0.26936   0.37671   0.01267  Uiso   1.00
O16    O     0.00244   0.72982   0.62305   0.01267  Uiso   1.00
O17    O     0.73631   0.68844   0.65334   0.01267  Uiso   1.00
O18    O     0.39634   0.71822   0.65351   0.01267  Uiso   1.00
