data_RAVWAO_clean
_audit_creation_date              2014-07-02
_audit_creation_method            'Materials Studio'
_symmetry_space_group_name_H-M    'P1'
_symmetry_Int_Tables_number       1
_symmetry_cell_setting            triclinic
loop_
_symmetry_equiv_pos_as_xyz
  x,y,z
_cell_length_a                    6.4739
_cell_length_b                    26.5533
_cell_length_c                    26.5533
_cell_angle_alpha                 60.6533
_cell_angle_beta                  85.3385
_cell_angle_gamma                 94.6615
loop_
_atom_site_label
_atom_site_type_symbol
_atom_site_fract_x
_atom_site_fract_y
_atom_site_fract_z
_atom_site_U_iso_or_equiv
_atom_site_adp_type
_atom_site_occupancy
Mg1    Mg    0.91450   0.69876   0.62373   0.01267  Uiso   1.00
Mg2    Mg    0.53823   0.62373   0.67751   0.01267  Uiso   1.00
Mg3    Mg    0.21574   0.67751   0.69876   0.01267  Uiso   1.00
Mg4    Mg    0.08550   0.30124   0.37627   0.01267  Uiso   1.00
Mg5    Mg    0.46177   0.37627   0.32249   0.01267  Uiso   1.00
Mg6    Mg    0.78426   0.32249   0.30124   0.01267  Uiso   1.00
H1     H     0.94096   0.84085   0.60295   0.01267  Uiso   1.00
H2     H     0.69633   0.85963   0.53287   0.01267  Uiso   1.00
H3     H     0.51428   0.94473   0.49467   0.01267  Uiso   1.00
H4     H     0.08277   0.95247   0.60069   0.01267  Uiso   1.00
H5     H     0.03577   0.90710   0.44618   0.01267  Uiso   1.00
H6     H     0.05231   0.97721   0.38294   0.01267  Uiso   1.00
H7     H     0.28397   0.95493   0.41715   0.01267  Uiso   1.00
H8     H     0.54391   0.60295   0.55620   0.01267  Uiso   1.00
H9     H     0.22920   0.53287   0.60750   0.01267  Uiso   1.00
H10    H     0.00895   0.49467   0.56060   0.01267  Uiso   1.00
H11    H     0.68346   0.60069   0.44684   0.01267  Uiso   1.00
H12    H     0.48195   0.44618   0.64672   0.01267  Uiso   1.00
H13    H     0.43525   0.38294   0.63985   0.01267  Uiso   1.00
H14    H     0.70112   0.41715   0.62792   0.01267  Uiso   1.00
H15    H     0.10011   0.55620   0.84085   0.01267  Uiso   1.00
H16    H     0.83670   0.60750   0.85963   0.01267  Uiso   1.00
H17    H     0.56955   0.56060   0.94473   0.01267  Uiso   1.00
H18    H     0.13030   0.44684   0.95247   0.01267  Uiso   1.00
H19    H     0.12867   0.64672   0.90710   0.01267  Uiso   1.00
H20    H     0.07510   0.63985   0.97721   0.01267  Uiso   1.00
H21    H     0.32904   0.62792   0.95493   0.01267  Uiso   1.00
H22    H     0.05904   0.15915   0.39705   0.01267  Uiso   1.00
H23    H     0.30367   0.14037   0.46713   0.01267  Uiso   1.00
H24    H     0.48572   0.05527   0.50533   0.01267  Uiso   1.00
H25    H     0.91723   0.04753   0.39931   0.01267  Uiso   1.00
H26    H     0.96423   0.09290   0.55382   0.01267  Uiso   1.00
H27    H     0.94769   0.02279   0.61706   0.01267  Uiso   1.00
H28    H     0.71603   0.04507   0.58285   0.01267  Uiso   1.00
H29    H     0.45609   0.39705   0.44380   0.01267  Uiso   1.00
H30    H     0.77080   0.46713   0.39250   0.01267  Uiso   1.00
H31    H     0.99105   0.50533   0.43940   0.01267  Uiso   1.00
H32    H     0.31654   0.39931   0.55316   0.01267  Uiso   1.00
H33    H     0.51805   0.55382   0.35328   0.01267  Uiso   1.00
H34    H     0.56475   0.61706   0.36015   0.01267  Uiso   1.00
H35    H     0.29888   0.58285   0.37208   0.01267  Uiso   1.00
H36    H     0.89989   0.44380   0.15915   0.01267  Uiso   1.00
H37    H     0.16330   0.39250   0.14037   0.01267  Uiso   1.00
H38    H     0.43045   0.43940   0.05527   0.01267  Uiso   1.00
H39    H     0.86970   0.55316   0.04753   0.01267  Uiso   1.00
H40    H     0.87133   0.35328   0.09290   0.01267  Uiso   1.00
H41    H     0.92490   0.36015   0.02279   0.01267  Uiso   1.00
H42    H     0.67096   0.37208   0.04507   0.01267  Uiso   1.00
C1     C     0.54437   0.74894   0.61313   0.01267  Uiso   1.00
C2     C     0.42344   0.79920   0.59118   0.01267  Uiso   1.00
C3     C     0.20530   0.79475   0.60941   0.01267  Uiso   1.00
C4     C     0.10527   0.84455   0.58718   0.01267  Uiso   1.00
C5     C     0.21355   0.89853   0.54528   0.01267  Uiso   1.00
C6     C     0.42725   0.90308   0.52655   0.01267  Uiso   1.00
C7     C     0.53079   0.85425   0.54897   0.01267  Uiso   1.00
C8     C     0.10351   0.95036   0.52142   0.01267  Uiso   1.00
C9     C     0.05682   0.97722   0.46404   0.01267  Uiso   1.00
C10    C     0.04551   0.97325   0.55679   0.01267  Uiso   1.00
C11    C     0.11022   0.95279   0.42533   0.01267  Uiso   1.00
C12    C     0.15750   0.61313   0.63793   0.01267  Uiso   1.00
C13    C     0.01462   0.59118   0.60962   0.01267  Uiso   1.00
C14    C     0.81471   0.60941   0.59584   0.01267  Uiso   1.00
C15    C     0.69245   0.58718   0.56827   0.01267  Uiso   1.00
C16    C     0.75883   0.54528   0.55619   0.01267  Uiso   1.00
C17    C     0.95380   0.52655   0.57037   0.01267  Uiso   1.00
C18    C     0.07976   0.54897   0.59678   0.01267  Uiso   1.00
C19    C     0.62493   0.52142   0.52822   0.01267  Uiso   1.00
C20    C     0.52086   0.46404   0.55874   0.01267  Uiso   1.00
C21    C     0.60230   0.55679   0.46996   0.01267  Uiso   1.00
C22    C     0.53555   0.42533   0.62188   0.01267  Uiso   1.00
C23    C     0.79543   0.63793   0.74894   0.01267  Uiso   1.00
C24    C     0.62424   0.60962   0.79920   0.01267  Uiso   1.00
C25    C     0.41055   0.59584   0.79475   0.01267  Uiso   1.00
C26    C     0.26072   0.56827   0.84455   0.01267  Uiso   1.00
C27    C     0.31502   0.55619   0.89853   0.01267  Uiso   1.00
C28    C     0.52417   0.57037   0.90308   0.01267  Uiso   1.00
C29    C     0.67654   0.59678   0.85425   0.01267  Uiso   1.00
C30    C     0.15315   0.52822   0.95036   0.01267  Uiso   1.00
C31    C     0.07960   0.55874   0.97722   0.01267  Uiso   1.00
C32    C     0.07226   0.46996   0.97325   0.01267  Uiso   1.00
C33    C     0.15743   0.62188   0.95279   0.01267  Uiso   1.00
C34    C     0.45563   0.25106   0.38687   0.01267  Uiso   1.00
C35    C     0.57656   0.20080   0.40882   0.01267  Uiso   1.00
C36    C     0.79470   0.20525   0.39059   0.01267  Uiso   1.00
C37    C     0.89473   0.15545   0.41282   0.01267  Uiso   1.00
C38    C     0.78645   0.10147   0.45472   0.01267  Uiso   1.00
C39    C     0.57275   0.09692   0.47345   0.01267  Uiso   1.00
C40    C     0.46921   0.14575   0.45103   0.01267  Uiso   1.00
C41    C     0.89649   0.04964   0.47858   0.01267  Uiso   1.00
C42    C     0.94318   0.02278   0.53596   0.01267  Uiso   1.00
C43    C     0.95449   0.02675   0.44321   0.01267  Uiso   1.00
C44    C     0.88978   0.04721   0.57467   0.01267  Uiso   1.00
C45    C     0.84250   0.38687   0.36207   0.01267  Uiso   1.00
C46    C     0.98538   0.40882   0.39038   0.01267  Uiso   1.00
C47    C     0.18529   0.39059   0.40416   0.01267  Uiso   1.00
C48    C     0.30755   0.41282   0.43173   0.01267  Uiso   1.00
C49    C     0.24117   0.45472   0.44381   0.01267  Uiso   1.00
C50    C     0.04620   0.47345   0.42963   0.01267  Uiso   1.00
C51    C     0.92024   0.45103   0.40322   0.01267  Uiso   1.00
C52    C     0.37507   0.47858   0.47178   0.01267  Uiso   1.00
C53    C     0.47914   0.53596   0.44126   0.01267  Uiso   1.00
C54    C     0.39770   0.44321   0.53004   0.01267  Uiso   1.00
C55    C     0.46445   0.57467   0.37812   0.01267  Uiso   1.00
C56    C     0.20457   0.36207   0.25106   0.01267  Uiso   1.00
C57    C     0.37576   0.39038   0.20080   0.01267  Uiso   1.00
C58    C     0.58945   0.40416   0.20525   0.01267  Uiso   1.00
C59    C     0.73928   0.43173   0.15545   0.01267  Uiso   1.00
C60    C     0.68498   0.44381   0.10147   0.01267  Uiso   1.00
C61    C     0.47583   0.42963   0.09692   0.01267  Uiso   1.00
C62    C     0.32346   0.40322   0.14575   0.01267  Uiso   1.00
C63    C     0.84685   0.47178   0.04964   0.01267  Uiso   1.00
C64    C     0.92040   0.44126   0.02278   0.01267  Uiso   1.00
C65    C     0.92774   0.53004   0.02675   0.01267  Uiso   1.00
C66    C     0.84257   0.37812   0.04721   0.01267  Uiso   1.00
O1     O     0.73893   0.75764   0.59399   0.01267  Uiso   1.00
O2     O     0.45949   0.69864   0.65019   0.01267  Uiso   1.00
O3     O     0.08168   0.74336   0.65042   0.01267  Uiso   1.00
O4     O     0.33292   0.59399   0.64837   0.01267  Uiso   1.00
O5     O     0.10968   0.65019   0.65117   0.01267  Uiso   1.00
O6     O     0.73210   0.65042   0.60622   0.01267  Uiso   1.00
O7     O     0.98129   0.64837   0.75764   0.01267  Uiso   1.00
O8     O     0.76085   0.65117   0.69864   0.01267  Uiso   1.00
O9     O     0.33832   0.60622   0.74336   0.01267  Uiso   1.00
O10    O     0.26107   0.24236   0.40601   0.01267  Uiso   1.00
O11    O     0.54051   0.30136   0.34981   0.01267  Uiso   1.00
O12    O     0.91832   0.25664   0.34958   0.01267  Uiso   1.00
O13    O     0.66708   0.40601   0.35163   0.01267  Uiso   1.00
O14    O     0.89032   0.34981   0.34883   0.01267  Uiso   1.00
O15    O     0.26790   0.34958   0.39378   0.01267  Uiso   1.00
O16    O     0.01871   0.35163   0.24236   0.01267  Uiso   1.00
O17    O     0.23915   0.34883   0.30136   0.01267  Uiso   1.00
O18    O     0.66168   0.39378   0.25664   0.01267  Uiso   1.00
