data_RAVXIX_clean
_audit_creation_date              2014-07-02
_audit_creation_method            'Materials Studio'
_symmetry_space_group_name_H-M    'P1'
_symmetry_Int_Tables_number       1
_symmetry_cell_setting            triclinic
loop_
_symmetry_equiv_pos_as_xyz
  x,y,z
_cell_length_a                    6.9441
_cell_length_b                    65.7283
_cell_length_c                    65.7283
_cell_angle_alpha                 60.1230
_cell_angle_beta                  87.9818
_cell_angle_gamma                 92.0182
loop_
_atom_site_label
_atom_site_type_symbol
_atom_site_fract_x
_atom_site_fract_y
_atom_site_fract_z
_atom_site_U_iso_or_equiv
_atom_site_adp_type
_atom_site_occupancy
Mg1    Mg    0.73098   0.35127   0.32957   0.01267  Uiso   1.00
Mg2    Mg    0.28611   0.64963   0.66924   0.01267  Uiso   1.00
Mg3    Mg    0.06055   0.32957   0.31916   0.01267  Uiso   1.00
Mg4    Mg    0.95535   0.66924   0.68113   0.01267  Uiso   1.00
Mg5    Mg    0.37971   0.31916   0.35127   0.01267  Uiso   1.00
Mg6    Mg    0.63648   0.68113   0.64963   0.01267  Uiso   1.00
H1     H     0.26297   0.50768   0.39328   0.01267  Uiso   1.00
H2     H     0.35359   0.50425   0.36993   0.01267  Uiso   1.00
H3     H     0.44140   0.48696   0.39809   0.01267  Uiso   1.00
H4     H     0.49723   0.53997   0.36926   0.01267  Uiso   1.00
H5     H     0.67024   0.52080   0.36929   0.01267  Uiso   1.00
H6     H     0.77231   0.53307   0.39554   0.01267  Uiso   1.00
H7     H     0.68961   0.50343   0.41228   0.01267  Uiso   1.00
H8     H     0.37228   0.51505   0.42129   0.01267  Uiso   1.00
H9     H     0.45348   0.54495   0.40394   0.01267  Uiso   1.00
H10    H     0.72125   0.53882   0.42991   0.01267  Uiso   1.00
H11    H     0.65237   0.50887   0.44595   0.01267  Uiso   1.00
H12    H     0.30099   0.52889   0.44710   0.01267  Uiso   1.00
H13    H     0.47508   0.54928   0.44589   0.01267  Uiso   1.00
H14    H     0.87715   0.48581   0.48574   0.01267  Uiso   1.00
H15    H     0.07373   0.50511   0.48347   0.01267  Uiso   1.00
H16    H     0.95349   0.51084   0.45845   0.01267  Uiso   1.00
H17    H     0.58719   0.43283   0.46210   0.01267  Uiso   1.00
H18    H     0.46638   0.44296   0.43560   0.01267  Uiso   1.00
H19    H     0.64815   0.46096   0.43773   0.01267  Uiso   1.00
H20    H     0.05693   0.39394   0.48417   0.01267  Uiso   1.00
H21    H     0.30001   0.39885   0.47174   0.01267  Uiso   1.00
H22    H     0.21030   0.41640   0.48287   0.01267  Uiso   1.00
H23    H     0.64897   0.45663   0.39167   0.01267  Uiso   1.00
H24    H     0.79274   0.48193   0.38550   0.01267  Uiso   1.00
H25    H     0.86666   0.46527   0.37292   0.01267  Uiso   1.00
H26    H     0.45898   0.38036   0.45007   0.01267  Uiso   1.00
H27    H     0.70739   0.37995   0.45659   0.01267  Uiso   1.00
H28    H     0.58184   0.40616   0.44578   0.01267  Uiso   1.00
H29    H     0.72063   0.41074   0.34161   0.01267  Uiso   1.00
H30    H     0.77362   0.43801   0.33948   0.01267  Uiso   1.00
H31    H     0.96125   0.41838   0.34550   0.01267  Uiso   1.00
H32    H     0.39286   0.53613   0.52673   0.01267  Uiso   1.00
H33    H     0.07783   0.52985   0.54625   0.01267  Uiso   1.00
H34    H     0.55995   0.62919   0.57896   0.01267  Uiso   1.00
H35    H     0.02083   0.57203   0.62362   0.01267  Uiso   1.00
H36    H     0.59987   0.54289   0.48036   0.01267  Uiso   1.00
H37    H     0.00230   0.47849   0.41296   0.01267  Uiso   1.00
H38    H     0.02705   0.39452   0.44521   0.01267  Uiso   1.00
H39    H     0.78901   0.60844   0.61461   0.01267  Uiso   1.00
H40    H     0.99955   0.62627   0.62971   0.01267  Uiso   1.00
H41    H     0.30270   0.63794   0.62833   0.01267  Uiso   1.00
H42    H     0.77325   0.39341   0.31063   0.01267  Uiso   1.00
H43    H     0.20892   0.60784   0.68916   0.01267  Uiso   1.00
H44    H     0.71468   0.36340   0.37296   0.01267  Uiso   1.00
H45    H     0.02483   0.37926   0.36452   0.01267  Uiso   1.00
H46    H     0.22949   0.39768   0.37970   0.01267  Uiso   1.00
H47    H     0.96936   0.60892   0.55413   0.01267  Uiso   1.00
H48    H     0.99277   0.52485   0.58700   0.01267  Uiso   1.00
H49    H     0.39525   0.46001   0.51979   0.01267  Uiso   1.00
H50    H     0.98554   0.43191   0.37577   0.01267  Uiso   1.00
H51    H     0.44478   0.37440   0.41897   0.01267  Uiso   1.00
H52    H     0.91702   0.47316   0.45386   0.01267  Uiso   1.00
H53    H     0.60217   0.46684   0.47331   0.01267  Uiso   1.00
H54    H     0.05989   0.58683   0.65357   0.01267  Uiso   1.00
H55    H     0.22974   0.56531   0.65920   0.01267  Uiso   1.00
H56    H     0.30859   0.59172   0.65744   0.01267  Uiso   1.00
H57    H     0.40746   0.59768   0.55240   0.01267  Uiso   1.00
H58    H     0.28544   0.62407   0.54219   0.01267  Uiso   1.00
H59    H     0.53579   0.62324   0.54799   0.01267  Uiso   1.00
H60    H     0.13221   0.53841   0.62660   0.01267  Uiso   1.00
H61    H     0.20502   0.52163   0.61411   0.01267  Uiso   1.00
H62    H     0.34898   0.54698   0.60772   0.01267  Uiso   1.00
H63    H     0.78547   0.58663   0.51684   0.01267  Uiso   1.00
H64    H     0.69610   0.60438   0.52772   0.01267  Uiso   1.00
H65    H     0.93925   0.60913   0.51537   0.01267  Uiso   1.00
H66    H     0.34741   0.54227   0.56224   0.01267  Uiso   1.00
H67    H     0.52883   0.56058   0.56396   0.01267  Uiso   1.00
H68    H     0.40709   0.57025   0.53760   0.01267  Uiso   1.00
H69    H     0.04092   0.49202   0.54187   0.01267  Uiso   1.00
H70    H     0.92123   0.49769   0.51685   0.01267  Uiso   1.00
H71    H     0.11795   0.51698   0.51457   0.01267  Uiso   1.00
H72    H     0.51924   0.45363   0.55430   0.01267  Uiso   1.00
H73    H     0.69387   0.47396   0.55309   0.01267  Uiso   1.00
H74    H     0.34259   0.49410   0.55415   0.01267  Uiso   1.00
H75    H     0.27387   0.46416   0.57029   0.01267  Uiso   1.00
H76    H     0.54169   0.45814   0.59622   0.01267  Uiso   1.00
H77    H     0.62325   0.48802   0.57873   0.01267  Uiso   1.00
H78    H     0.30639   0.49979   0.58765   0.01267  Uiso   1.00
H79    H     0.22320   0.47017   0.60453   0.01267  Uiso   1.00
H80    H     0.32593   0.48263   0.63061   0.01267  Uiso   1.00
H81    H     0.49830   0.46334   0.63076   0.01267  Uiso   1.00
H82    H     0.55550   0.51633   0.60167   0.01267  Uiso   1.00
H83    H     0.64303   0.49914   0.62987   0.01267  Uiso   1.00
H84    H     0.73327   0.49549   0.60663   0.01267  Uiso   1.00
H85    H     0.65625   0.39328   0.09904   0.01267  Uiso   1.00
H86    H     0.72352   0.36993   0.12582   0.01267  Uiso   1.00
H87    H     0.83949   0.39809   0.11495   0.01267  Uiso   1.00
H88    H     0.86649   0.36926   0.09077   0.01267  Uiso   1.00
H89    H     0.03953   0.36929   0.10991   0.01267  Uiso   1.00
H90    H     0.16785   0.39554   0.07139   0.01267  Uiso   1.00
H91    H     0.10189   0.41228   0.08429   0.01267  Uiso   1.00
H92    H     0.79357   0.42129   0.06366   0.01267  Uiso   1.00
H93    H     0.85742   0.40394   0.05111   0.01267  Uiso   1.00
H94    H     0.15116   0.42991   0.03127   0.01267  Uiso   1.00
H95    H     0.09832   0.44595   0.04518   0.01267  Uiso   1.00
H96    H     0.74809   0.44710   0.02401   0.01267  Uiso   1.00
H97    H     0.92097   0.44589   0.00483   0.01267  Uiso   1.00
H98    H     0.36289   0.48574   0.02845   0.01267  Uiso   1.00
H99    H     0.55720   0.48347   0.01142   0.01267  Uiso   1.00
H100   H     0.41194   0.45845   0.03071   0.01267  Uiso   1.00
H101   H     0.04929   0.46210   0.10507   0.01267  Uiso   1.00
H102   H     0.90198   0.43560   0.12144   0.01267  Uiso   1.00
H103   H     0.08588   0.43773   0.10131   0.01267  Uiso   1.00
H104   H     0.54110   0.48417   0.12189   0.01267  Uiso   1.00
H105   H     0.77175   0.47174   0.12941   0.01267  Uiso   1.00
H106   H     0.69317   0.48287   0.10073   0.01267  Uiso   1.00
H107   H     0.04064   0.39167   0.15170   0.01267  Uiso   1.00
H108   H     0.17824   0.38550   0.13257   0.01267  Uiso   1.00
H109   H     0.23958   0.37292   0.16181   0.01267  Uiso   1.00
H110   H     0.90905   0.45007   0.16957   0.01267  Uiso   1.00
H111   H     0.16398   0.45659   0.16346   0.01267  Uiso   1.00
H112   H     0.02762   0.44578   0.14806   0.01267  Uiso   1.00
H113   H     0.06224   0.34161   0.24765   0.01267  Uiso   1.00
H114   H     0.11310   0.33948   0.22251   0.01267  Uiso   1.00
H115   H     0.30675   0.34550   0.23612   0.01267  Uiso   1.00
H116   H     0.91959   0.52673   0.93714   0.01267  Uiso   1.00
H117   H     0.62408   0.54625   0.92390   0.01267  Uiso   1.00
H118   H     0.13891   0.57896   0.79185   0.01267  Uiso   1.00
H119   H     0.64445   0.62362   0.80435   0.01267  Uiso   1.00
H120   H     0.08023   0.48036   0.97675   0.01267  Uiso   1.00
H121   H     0.41526   0.41296   0.10855   0.01267  Uiso   1.00
H122   H     0.47226   0.44521   0.16027   0.01267  Uiso   1.00
H123   H     0.40362   0.61461   0.77695   0.01267  Uiso   1.00
H124   H     0.62926   0.62971   0.74402   0.01267  Uiso   1.00
H125   H     0.93103   0.62833   0.73373   0.01267  Uiso   1.00
H126   H     0.08388   0.31063   0.29596   0.01267  Uiso   1.00
H127   H     0.89808   0.68916   0.70300   0.01267  Uiso   1.00
H128   H     0.08764   0.37296   0.26364   0.01267  Uiso   1.00
H129   H     0.38935   0.36452   0.25622   0.01267  Uiso   1.00
H130   H     0.60919   0.37970   0.22262   0.01267  Uiso   1.00
H131   H     0.52349   0.55413   0.83695   0.01267  Uiso   1.00
H132   H     0.57977   0.58700   0.88815   0.01267  Uiso   1.00
H133   H     0.91504   0.51979   0.02020   0.01267  Uiso   1.00
H134   H     0.36131   0.37577   0.19232   0.01267  Uiso   1.00
H135   H     0.86375   0.41897   0.20663   0.01267  Uiso   1.00
H136   H     0.37088   0.45386   0.07298   0.01267  Uiso   1.00
H137   H     0.07548   0.47331   0.05985   0.01267  Uiso   1.00
H138   H     0.71346   0.65357   0.75960   0.01267  Uiso   1.00
H139   H     0.88894   0.65920   0.77549   0.01267  Uiso   1.00
H140   H     0.96603   0.65744   0.75084   0.01267  Uiso   1.00
H141   H     0.95986   0.55240   0.84992   0.01267  Uiso   1.00
H142   H     0.82763   0.54219   0.83374   0.01267  Uiso   1.00
H143   H     0.08378   0.54799   0.82877   0.01267  Uiso   1.00
H144   H     0.75881   0.62660   0.83499   0.01267  Uiso   1.00
H145   H     0.81913   0.61411   0.86426   0.01267  Uiso   1.00
H146   H     0.95670   0.60772   0.84530   0.01267  Uiso   1.00
H147   H     0.30231   0.51684   0.89653   0.01267  Uiso   1.00
H148   H     0.22382   0.52772   0.86790   0.01267  Uiso   1.00
H149   H     0.45462   0.51537   0.87550   0.01267  Uiso   1.00
H150   H     0.90965   0.56224   0.89549   0.01267  Uiso   1.00
H151   H     0.09279   0.56396   0.87546   0.01267  Uiso   1.00
H152   H     0.94469   0.53760   0.89215   0.01267  Uiso   1.00
H153   H     0.58279   0.54187   0.96611   0.01267  Uiso   1.00
H154   H     0.43808   0.51685   0.98546   0.01267  Uiso   1.00
H155   H     0.63252   0.51457   0.96845   0.01267  Uiso   1.00
H156   H     0.07354   0.55430   0.99207   0.01267  Uiso   1.00
H157   H     0.24696   0.55309   0.97295   0.01267  Uiso   1.00
H158   H     0.89674   0.55415   0.95175   0.01267  Uiso   1.00
H159   H     0.84416   0.57029   0.96555   0.01267  Uiso   1.00
H160   H     0.13791   0.59622   0.94564   0.01267  Uiso   1.00
H161   H     0.20198   0.57873   0.93325   0.01267  Uiso   1.00
H162   H     0.89404   0.58765   0.91256   0.01267  Uiso   1.00
H163   H     0.82773   0.60453   0.92530   0.01267  Uiso   1.00
H164   H     0.95654   0.63061   0.88676   0.01267  Uiso   1.00
H165   H     0.12906   0.63076   0.90590   0.01267  Uiso   1.00
H166   H     0.15717   0.60167   0.88200   0.01267  Uiso   1.00
H167   H     0.27290   0.62987   0.87099   0.01267  Uiso   1.00
H168   H     0.33990   0.60663   0.89788   0.01267  Uiso   1.00
H169   H     0.75529   0.09904   0.50768   0.01267  Uiso   1.00
H170   H     0.84934   0.12582   0.50425   0.01267  Uiso   1.00
H171   H     0.95444   0.11495   0.48696   0.01267  Uiso   1.00
H172   H     0.95726   0.09077   0.53997   0.01267  Uiso   1.00
H173   H     0.14944   0.10991   0.52080   0.01267  Uiso   1.00
H174   H     0.23924   0.07139   0.53307   0.01267  Uiso   1.00
H175   H     0.18618   0.08429   0.50343   0.01267  Uiso   1.00
H176   H     0.85723   0.06366   0.51505   0.01267  Uiso   1.00
H177   H     0.90853   0.05111   0.54495   0.01267  Uiso   1.00
H178   H     0.18243   0.03127   0.53882   0.01267  Uiso   1.00
H179   H     0.14350   0.04518   0.50887   0.01267  Uiso   1.00
H180   H     0.77210   0.02401   0.52889   0.01267  Uiso   1.00
H181   H     0.92580   0.00483   0.54928   0.01267  Uiso   1.00
H182   H     0.39134   0.02845   0.48581   0.01267  Uiso   1.00
H183   H     0.56862   0.01142   0.50511   0.01267  Uiso   1.00
H184   H     0.44265   0.03071   0.51084   0.01267  Uiso   1.00
H185   H     0.15436   0.10507   0.43283   0.01267  Uiso   1.00
H186   H     0.02342   0.12144   0.44296   0.01267  Uiso   1.00
H187   H     0.18719   0.10131   0.46096   0.01267  Uiso   1.00
H188   H     0.66299   0.12189   0.39394   0.01267  Uiso   1.00
H189   H     0.90116   0.12941   0.39885   0.01267  Uiso   1.00
H190   H     0.79390   0.10073   0.41640   0.01267  Uiso   1.00
H191   H     0.19234   0.15170   0.45663   0.01267  Uiso   1.00
H192   H     0.31081   0.13257   0.48193   0.01267  Uiso   1.00
H193   H     0.40139   0.16181   0.46527   0.01267  Uiso   1.00
H194   H     0.07862   0.16957   0.38036   0.01267  Uiso   1.00
H195   H     0.32744   0.16346   0.37995   0.01267  Uiso   1.00
H196   H     0.17568   0.14806   0.40616   0.01267  Uiso   1.00
H197   H     0.30989   0.24765   0.41074   0.01267  Uiso   1.00
H198   H     0.33561   0.22251   0.43801   0.01267  Uiso   1.00
H199   H     0.54287   0.23612   0.41838   0.01267  Uiso   1.00
H200   H     0.85673   0.93714   0.53613   0.01267  Uiso   1.00
H201   H     0.54798   0.92390   0.52985   0.01267  Uiso   1.00
H202   H     0.93076   0.79185   0.62919   0.01267  Uiso   1.00
H203   H     0.44880   0.80435   0.57203   0.01267  Uiso   1.00
H204   H     0.05698   0.97675   0.54289   0.01267  Uiso   1.00
H205   H     0.52381   0.10855   0.47849   0.01267  Uiso   1.00
H206   H     0.63253   0.16027   0.39452   0.01267  Uiso   1.00
H207   H     0.18057   0.77695   0.60844   0.01267  Uiso   1.00
H208   H     0.37328   0.74402   0.62627   0.01267  Uiso   1.00
H209   H     0.66476   0.73373   0.63794   0.01267  Uiso   1.00
H210   H     0.37984   0.29596   0.39341   0.01267  Uiso   1.00
H211   H     0.60108   0.70300   0.60784   0.01267  Uiso   1.00
H212   H     0.35128   0.26364   0.36340   0.01267  Uiso   1.00
H213   H     0.64557   0.25622   0.37926   0.01267  Uiso   1.00
H214   H     0.83181   0.22262   0.39768   0.01267  Uiso   1.00
H215   H     0.36044   0.83695   0.60892   0.01267  Uiso   1.00
H216   H     0.46792   0.88815   0.52485   0.01267  Uiso   1.00
H217   H     0.93524   0.02020   0.46001   0.01267  Uiso   1.00
H218   H     0.55363   0.19232   0.43191   0.01267  Uiso   1.00
H219   H     0.07038   0.20663   0.37440   0.01267  Uiso   1.00
H220   H     0.44386   0.07298   0.47316   0.01267  Uiso   1.00
H221   H     0.13533   0.05985   0.46684   0.01267  Uiso   1.00
H222   H     0.47306   0.75960   0.58683   0.01267  Uiso   1.00
H223   H     0.66443   0.77549   0.56531   0.01267  Uiso   1.00
H224   H     0.71687   0.75084   0.59172   0.01267  Uiso   1.00
H225   H     0.80978   0.84992   0.59768   0.01267  Uiso   1.00
H226   H     0.66137   0.83374   0.62407   0.01267  Uiso   1.00
H227   H     0.91255   0.82877   0.62324   0.01267  Uiso   1.00
H228   H     0.59380   0.83499   0.53841   0.01267  Uiso   1.00
H229   H     0.68339   0.86426   0.52163   0.01267  Uiso   1.00
H230   H     0.80200   0.84530   0.54698   0.01267  Uiso   1.00
H231   H     0.19884   0.89653   0.58663   0.01267  Uiso   1.00
H232   H     0.09172   0.86790   0.60438   0.01267  Uiso   1.00
H233   H     0.33012   0.87550   0.60913   0.01267  Uiso   1.00
H234   H     0.80514   0.89549   0.54227   0.01267  Uiso   1.00
H235   H     0.96825   0.87546   0.56058   0.01267  Uiso   1.00
H236   H     0.83684   0.89215   0.57025   0.01267  Uiso   1.00
H237   H     0.54890   0.96611   0.49202   0.01267  Uiso   1.00
H238   H     0.42354   0.98546   0.49769   0.01267  Uiso   1.00
H239   H     0.60097   0.96845   0.51698   0.01267  Uiso   1.00
H240   H     0.06561   0.99207   0.45363   0.01267  Uiso   1.00
H241   H     0.21991   0.97295   0.47396   0.01267  Uiso   1.00
H242   H     0.84849   0.95175   0.49410   0.01267  Uiso   1.00
H243   H     0.80971   0.96555   0.46416   0.01267  Uiso   1.00
H244   H     0.08355   0.94564   0.45814   0.01267  Uiso   1.00
H245   H     0.13523   0.93325   0.48802   0.01267  Uiso   1.00
H246   H     0.80660   0.91256   0.49979   0.01267  Uiso   1.00
H247   H     0.75303   0.92530   0.47017   0.01267  Uiso   1.00
H248   H     0.84330   0.88676   0.48263   0.01267  Uiso   1.00
H249   H     0.03496   0.90590   0.46334   0.01267  Uiso   1.00
H250   H     0.03917   0.88200   0.51633   0.01267  Uiso   1.00
H251   H     0.14389   0.87099   0.49914   0.01267  Uiso   1.00
H252   H     0.23778   0.89788   0.49549   0.01267  Uiso   1.00
C1     C     0.39334   0.50419   0.38580   0.01267  Uiso   1.00
C2     C     0.55404   0.52275   0.37985   0.01267  Uiso   1.00
C3     C     0.64196   0.52106   0.40123   0.01267  Uiso   1.00
C4     C     0.50098   0.52731   0.41507   0.01267  Uiso   1.00
C5     C     0.59562   0.52609   0.43587   0.01267  Uiso   1.00
C6     C     0.45267   0.53093   0.45076   0.01267  Uiso   1.00
C7     C     0.00338   0.49687   0.47472   0.01267  Uiso   1.00
C8     C     0.52828   0.44803   0.44748   0.01267  Uiso   1.00
C9     C     0.17186   0.40736   0.47347   0.01267  Uiso   1.00
C10    C     0.79930   0.46416   0.38864   0.01267  Uiso   1.00
C11    C     0.59952   0.39052   0.44454   0.01267  Uiso   1.00
C12    C     0.80579   0.41961   0.34883   0.01267  Uiso   1.00
C13    C     0.61080   0.54473   0.54361   0.01267  Uiso   1.00
C14    C     0.54257   0.53476   0.53103   0.01267  Uiso   1.00
C15    C     0.85635   0.51997   0.53079   0.01267  Uiso   1.00
C16    C     0.92771   0.53113   0.54213   0.01267  Uiso   1.00
C17    C     0.44280   0.61654   0.58875   0.01267  Uiso   1.00
C18    C     0.33678   0.60658   0.57828   0.01267  Uiso   1.00
C19    C     0.25109   0.59367   0.62465   0.01267  Uiso   1.00
C20    C     0.13948   0.58441   0.61386   0.01267  Uiso   1.00
C21    C     0.66189   0.52211   0.52486   0.01267  Uiso   1.00
C22    C     0.80840   0.54386   0.54829   0.01267  Uiso   1.00
C23    C     0.18321   0.59018   0.59101   0.01267  Uiso   1.00
C24    C     0.40302   0.61028   0.61174   0.01267  Uiso   1.00
C25    C     0.55473   0.52480   0.48891   0.01267  Uiso   1.00
C26    C     0.47631   0.51540   0.47624   0.01267  Uiso   1.00
C27    C     0.41768   0.49175   0.48766   0.01267  Uiso   1.00
C28    C     0.91430   0.44967   0.40907   0.01267  Uiso   1.00
C29    C     0.00748   0.46013   0.41998   0.01267  Uiso   1.00
C30    C     0.09960   0.44716   0.44043   0.01267  Uiso   1.00
C31    C     0.09980   0.42304   0.45009   0.01267  Uiso   1.00
C32    C     0.02014   0.41285   0.43822   0.01267  Uiso   1.00
C33    C     0.92224   0.42570   0.41819   0.01267  Uiso   1.00
C34    C     0.84808   0.62908   0.62994   0.01267  Uiso   1.00
C35    C     0.72727   0.61858   0.62136   0.01267  Uiso   1.00
C36    C     0.52854   0.62088   0.62171   0.01267  Uiso   1.00
C37    C     0.45319   0.63467   0.62986   0.01267  Uiso   1.00
C38    C     0.45061   0.35662   0.36111   0.01267  Uiso   1.00
C39    C     0.24987   0.36089   0.35860   0.01267  Uiso   1.00
C40    C     0.11489   0.35232   0.34727   0.01267  Uiso   1.00
C41    C     0.90025   0.64896   0.65129   0.01267  Uiso   1.00
C42    C     0.77477   0.64214   0.63931   0.01267  Uiso   1.00
C43    C     0.57262   0.64558   0.63837   0.01267  Uiso   1.00
C44    C     0.56564   0.36749   0.37006   0.01267  Uiso   1.00
C45    C     0.48874   0.38264   0.37636   0.01267  Uiso   1.00
C46    C     0.29242   0.38639   0.37444   0.01267  Uiso   1.00
C47    C     0.17537   0.37566   0.36578   0.01267  Uiso   1.00
C48    C     0.07526   0.57785   0.58123   0.01267  Uiso   1.00
C49    C     0.97606   0.59056   0.56127   0.01267  Uiso   1.00
C50    C     0.89570   0.58023   0.54956   0.01267  Uiso   1.00
C51    C     0.89551   0.55610   0.55939   0.01267  Uiso   1.00
C52    C     0.98794   0.54323   0.57985   0.01267  Uiso   1.00
C53    C     0.08253   0.55384   0.59052   0.01267  Uiso   1.00
C54    C     0.57745   0.51112   0.51252   0.01267  Uiso   1.00
C55    C     0.51877   0.48749   0.52393   0.01267  Uiso   1.00
C56    C     0.44041   0.47809   0.51126   0.01267  Uiso   1.00
C57    C     0.60902   0.39326   0.38668   0.01267  Uiso   1.00
C58    C     0.81783   0.41354   0.40801   0.01267  Uiso   1.00
C59    C     0.18655   0.45925   0.45168   0.01267  Uiso   1.00
C60    C     0.33307   0.48078   0.47531   0.01267  Uiso   1.00
C61    C     0.86681   0.41940   0.38522   0.01267  Uiso   1.00
C62    C     0.76087   0.41000   0.37417   0.01267  Uiso   1.00
C63    C     0.66356   0.39710   0.42031   0.01267  Uiso   1.00
C64    C     0.56284   0.38704   0.40956   0.01267  Uiso   1.00
C65    C     0.06717   0.47188   0.45795   0.01267  Uiso   1.00
C66    C     0.13854   0.48294   0.46940   0.01267  Uiso   1.00
C67    C     0.45242   0.46822   0.46902   0.01267  Uiso   1.00
C68    C     0.38420   0.45837   0.45635   0.01267  Uiso   1.00
C69    C     0.21093   0.58407   0.65006   0.01267  Uiso   1.00
C70    C     0.39442   0.61324   0.55386   0.01267  Uiso   1.00
C71    C     0.19862   0.53944   0.61089   0.01267  Uiso   1.00
C72    C     0.82404   0.59579   0.52612   0.01267  Uiso   1.00
C73    C     0.46676   0.55522   0.55230   0.01267  Uiso   1.00
C74    C     0.99146   0.50596   0.52557   0.01267  Uiso   1.00
C75    C     0.54215   0.47198   0.54940   0.01267  Uiso   1.00
C76    C     0.39944   0.47688   0.56429   0.01267  Uiso   1.00
C77    C     0.49439   0.47577   0.58502   0.01267  Uiso   1.00
C78    C     0.35375   0.48215   0.59878   0.01267  Uiso   1.00
C79    C     0.44192   0.48058   0.62010   0.01267  Uiso   1.00
C80    C     0.60311   0.49909   0.61407   0.01267  Uiso   1.00
C81    C     0.77914   0.38580   0.11001   0.01267  Uiso   1.00
C82    C     0.93389   0.37985   0.09740   0.01267  Uiso   1.00
C83    C     0.04319   0.40123   0.07771   0.01267  Uiso   1.00
C84    C     0.91605   0.41507   0.05762   0.01267  Uiso   1.00
C85    C     0.03149   0.43587   0.03804   0.01267  Uiso   1.00
C86    C     0.90343   0.45076   0.01831   0.01267  Uiso   1.00
C87    C     0.47810   0.47472   0.02841   0.01267  Uiso   1.00
C88    C     0.97576   0.44748   0.10449   0.01267  Uiso   1.00
C89    C     0.64533   0.47347   0.11917   0.01267  Uiso   1.00
C90    C     0.18794   0.38864   0.14720   0.01267  Uiso   1.00
C91    C     0.04406   0.44454   0.16494   0.01267  Uiso   1.00
C92    C     0.15462   0.34883   0.23156   0.01267  Uiso   1.00
C93    C     0.15441   0.54361   0.91166   0.01267  Uiso   1.00
C94    C     0.07360   0.53103   0.93421   0.01267  Uiso   1.00
C95    C     0.38714   0.53079   0.94924   0.01267  Uiso   1.00
C96    C     0.46984   0.54213   0.92674   0.01267  Uiso   1.00
C97    C     0.03155   0.58875   0.79471   0.01267  Uiso   1.00
C98    C     0.91506   0.57828   0.81514   0.01267  Uiso   1.00
C99    C     0.87574   0.62465   0.78168   0.01267  Uiso   1.00
C100   C     0.75334   0.61386   0.80173   0.01267  Uiso   1.00
C101   C     0.18675   0.52486   0.95303   0.01267  Uiso   1.00
C102   C     0.35669   0.54829   0.90785   0.01267  Uiso   1.00
C103   C     0.77422   0.59101   0.81881   0.01267  Uiso   1.00
C104   C     0.01476   0.61174   0.77798   0.01267  Uiso   1.00
C105   C     0.04364   0.48891   0.98629   0.01267  Uiso   1.00
C106   C     0.95255   0.47624   0.00836   0.01267  Uiso   1.00
C107   C     0.90534   0.48766   0.02059   0.01267  Uiso   1.00
C108   C     0.32337   0.40907   0.14126   0.01267  Uiso   1.00
C109   C     0.42746   0.41998   0.11989   0.01267  Uiso   1.00
C110   C     0.54003   0.44043   0.11241   0.01267  Uiso   1.00
C111   C     0.54989   0.45009   0.12687   0.01267  Uiso   1.00
C112   C     0.45836   0.43822   0.14893   0.01267  Uiso   1.00
C113   C     0.34043   0.41819   0.15611   0.01267  Uiso   1.00
C114   C     0.47802   0.62994   0.74098   0.01267  Uiso   1.00
C115   C     0.34863   0.62136   0.76006   0.01267  Uiso   1.00
C116   C     0.15025   0.62171   0.75741   0.01267  Uiso   1.00
C117   C     0.08305   0.62986   0.73547   0.01267  Uiso   1.00
C118   C     0.81172   0.36111   0.28227   0.01267  Uiso   1.00
C119   C     0.60847   0.35860   0.28051   0.01267  Uiso   1.00
C120   C     0.46216   0.34727   0.30041   0.01267  Uiso   1.00
C121   C     0.55154   0.65129   0.69975   0.01267  Uiso   1.00
C122   C     0.41408   0.63931   0.71855   0.01267  Uiso   1.00
C123   C     0.21099   0.63837   0.71605   0.01267  Uiso   1.00
C124   C     0.93570   0.37006   0.26245   0.01267  Uiso   1.00
C125   C     0.86510   0.37636   0.24100   0.01267  Uiso   1.00
C126   C     0.66686   0.37444   0.23917   0.01267  Uiso   1.00
C127   C     0.54115   0.36578   0.25856   0.01267  Uiso   1.00
C128   C     0.65649   0.58123   0.84092   0.01267  Uiso   1.00
C129   C     0.53733   0.56127   0.84817   0.01267  Uiso   1.00
C130   C     0.44526   0.54956   0.87021   0.01267  Uiso   1.00
C131   C     0.45490   0.55939   0.88451   0.01267  Uiso   1.00
C132   C     0.56779   0.57985   0.87692   0.01267  Uiso   1.00
C133   C     0.67305   0.59052   0.85564   0.01267  Uiso   1.00
C134   C     0.08997   0.51252   0.97636   0.01267  Uiso   1.00
C135   C     0.04270   0.52393   0.98858   0.01267  Uiso   1.00
C136   C     0.95167   0.51126   0.01065   0.01267  Uiso   1.00
C137   C     0.99570   0.38668   0.22006   0.01267  Uiso   1.00
C138   C     0.22584   0.40801   0.17845   0.01267  Uiso   1.00
C139   C     0.63823   0.45168   0.08907   0.01267  Uiso   1.00
C140   C     0.80838   0.47531   0.04391   0.01267  Uiso   1.00
C141   C     0.25203   0.38522   0.19538   0.01267  Uiso   1.00
C142   C     0.13504   0.37417   0.21583   0.01267  Uiso   1.00
C143   C     0.08387   0.42031   0.18259   0.01267  Uiso   1.00
C144   C     0.97240   0.40956   0.20340   0.01267  Uiso   1.00
C145   C     0.52512   0.45795   0.07017   0.01267  Uiso   1.00
C146   C     0.60794   0.46940   0.04766   0.01267  Uiso   1.00
C147   C     0.92144   0.46902   0.06276   0.01267  Uiso   1.00
C148   C     0.84055   0.45635   0.08528   0.01267  Uiso   1.00
C149   C     0.86099   0.65006   0.76587   0.01267  Uiso   1.00
C150   C     0.94828   0.55386   0.83290   0.01267  Uiso   1.00
C151   C     0.80951   0.61089   0.84967   0.01267  Uiso   1.00
C152   C     0.35016   0.52612   0.87809   0.01267  Uiso   1.00
C153   C     0.01906   0.55230   0.89248   0.01267  Uiso   1.00
C154   C     0.51703   0.52557   0.96847   0.01267  Uiso   1.00
C155   C     0.09155   0.54940   0.97862   0.01267  Uiso   1.00
C156   C     0.96373   0.56429   0.95883   0.01267  Uiso   1.00
C157   C     0.07941   0.58502   0.93921   0.01267  Uiso   1.00
C158   C     0.95253   0.59878   0.91907   0.01267  Uiso   1.00
C159   C     0.06202   0.62010   0.89932   0.01267  Uiso   1.00
C160   C     0.21718   0.61407   0.88684   0.01267  Uiso   1.00
C161   C     0.88915   0.11001   0.50419   0.01267  Uiso   1.00
C162   C     0.03129   0.09740   0.52275   0.01267  Uiso   1.00
C163   C     0.12090   0.07771   0.52106   0.01267  Uiso   1.00
C164   C     0.97367   0.05762   0.52731   0.01267  Uiso   1.00
C165   C     0.06953   0.03804   0.52609   0.01267  Uiso   1.00
C166   C     0.92174   0.01831   0.53093   0.01267  Uiso   1.00
C167   C     0.50651   0.02841   0.49687   0.01267  Uiso   1.00
C168   C     0.08025   0.10449   0.44803   0.01267  Uiso   1.00
C169   C     0.76450   0.11917   0.40736   0.01267  Uiso   1.00
C170   C     0.33514   0.14720   0.46416   0.01267  Uiso   1.00
C171   C     0.20900   0.16494   0.39052   0.01267  Uiso   1.00
C172   C     0.38618   0.23156   0.41961   0.01267  Uiso   1.00
C173   C     0.06607   0.91166   0.54473   0.01267  Uiso   1.00
C174   C     0.00781   0.93421   0.53476   0.01267  Uiso   1.00
C175   C     0.33638   0.94924   0.51997   0.01267  Uiso   1.00
C176   C     0.39658   0.92674   0.53113   0.01267  Uiso   1.00
C177   C     0.82626   0.79471   0.61654   0.01267  Uiso   1.00
C178   C     0.73020   0.81514   0.60658   0.01267  Uiso   1.00
C179   C     0.65742   0.78168   0.59367   0.01267  Uiso   1.00
C180   C     0.55507   0.80173   0.58441   0.01267  Uiso   1.00
C181   C     0.13978   0.95303   0.52211   0.01267  Uiso   1.00
C182   C     0.26454   0.90785   0.54386   0.01267  Uiso   1.00
C183   C     0.59303   0.81881   0.59018   0.01267  Uiso   1.00
C184   C     0.79274   0.77798   0.61028   0.01267  Uiso   1.00
C185   C     0.02993   0.98629   0.52480   0.01267  Uiso   1.00
C186   C     0.96091   0.00836   0.51540   0.01267  Uiso   1.00
C187   C     0.92593   0.02059   0.49175   0.01267  Uiso   1.00
C188   C     0.46463   0.14126   0.44967   0.01267  Uiso   1.00
C189   C     0.54735   0.11989   0.46013   0.01267  Uiso   1.00
C190   C     0.65244   0.11241   0.44716   0.01267  Uiso   1.00
C191   C     0.67676   0.12687   0.42304   0.01267  Uiso   1.00
C192   C     0.60729   0.14893   0.41285   0.01267  Uiso   1.00
C193   C     0.49654   0.15611   0.42570   0.01267  Uiso   1.00
C194   C     0.21900   0.74098   0.62908   0.01267  Uiso   1.00
C195   C     0.10869   0.76006   0.61858   0.01267  Uiso   1.00
C196   C     0.90766   0.75741   0.62088   0.01267  Uiso   1.00
C197   C     0.81852   0.73547   0.63467   0.01267  Uiso   1.00
C198   C     0.09399   0.28227   0.35662   0.01267  Uiso   1.00
C199   C     0.88898   0.28051   0.36089   0.01267  Uiso   1.00
C200   C     0.76257   0.30041   0.35232   0.01267  Uiso   1.00
C201   C     0.25129   0.69975   0.64896   0.01267  Uiso   1.00
C202   C     0.13263   0.71855   0.64214   0.01267  Uiso   1.00
C203   C     0.92704   0.71605   0.64558   0.01267  Uiso   1.00
C204   C     0.19815   0.26245   0.36749   0.01267  Uiso   1.00
C205   C     0.10610   0.24100   0.38264   0.01267  Uiso   1.00
C206   C     0.90603   0.23917   0.38639   0.01267  Uiso   1.00
C207   C     0.79971   0.25856   0.37566   0.01267  Uiso   1.00
C208   C     0.49741   0.84092   0.57785   0.01267  Uiso   1.00
C209   C     0.38550   0.84817   0.59056   0.01267  Uiso   1.00
C210   C     0.31547   0.87021   0.58023   0.01267  Uiso   1.00
C211   C     0.33941   0.88451   0.55610   0.01267  Uiso   1.00
C212   C     0.44471   0.87692   0.54323   0.01267  Uiso   1.00
C213   C     0.52869   0.85564   0.55384   0.01267  Uiso   1.00
C214   C     0.06633   0.97636   0.51112   0.01267  Uiso   1.00
C215   C     0.03128   0.98858   0.48749   0.01267  Uiso   1.00
C216   C     0.96232   0.01065   0.47809   0.01267  Uiso   1.00
C217   C     0.21576   0.22006   0.39326   0.01267  Uiso   1.00
C218   C     0.40429   0.17845   0.41354   0.01267  Uiso   1.00
C219   C     0.72730   0.08907   0.45925   0.01267  Uiso   1.00
C220   C     0.85229   0.04391   0.48078   0.01267  Uiso   1.00
C221   C     0.44741   0.19538   0.41940   0.01267  Uiso   1.00
C222   C     0.35087   0.21583   0.41000   0.01267  Uiso   1.00
C223   C     0.26646   0.18259   0.39710   0.01267  Uiso   1.00
C224   C     0.17580   0.20340   0.38704   0.01267  Uiso   1.00
C225   C     0.59529   0.07017   0.47188   0.01267  Uiso   1.00
C226   C     0.65560   0.04766   0.48294   0.01267  Uiso   1.00
C227   C     0.98420   0.06276   0.46822   0.01267  Uiso   1.00
C228   C     0.92583   0.08528   0.45837   0.01267  Uiso   1.00
C229   C     0.62686   0.76587   0.58407   0.01267  Uiso   1.00
C230   C     0.78118   0.83290   0.61324   0.01267  Uiso   1.00
C231   C     0.65918   0.84967   0.53944   0.01267  Uiso   1.00
C232   C     0.22825   0.87809   0.59579   0.01267  Uiso   1.00
C233   C     0.91154   0.89248   0.55522   0.01267  Uiso   1.00
C234   C     0.48550   0.96847   0.50596   0.01267  Uiso   1.00
C235   C     0.07017   0.97862   0.47198   0.01267  Uiso   1.00
C236   C     0.92256   0.95883   0.47688   0.01267  Uiso   1.00
C237   C     0.01862   0.93921   0.47577   0.01267  Uiso   1.00
C238   C     0.87160   0.91907   0.48215   0.01267  Uiso   1.00
C239   C     0.96134   0.89932   0.48058   0.01267  Uiso   1.00
C240   C     0.10402   0.88684   0.49909   0.01267  Uiso   1.00
O1     O     0.65832   0.38396   0.31123   0.01267  Uiso   1.00
O2     O     0.53917   0.34046   0.35710   0.01267  Uiso   1.00
O3     O     0.17147   0.33924   0.33989   0.01267  Uiso   1.00
O4     O     0.94114   0.35868   0.34475   0.01267  Uiso   1.00
O5     O     0.07686   0.64373   0.65278   0.01267  Uiso   1.00
O6     O     0.83725   0.65973   0.66101   0.01267  Uiso   1.00
O7     O     0.49621   0.65886   0.64451   0.01267  Uiso   1.00
O8     O     0.33542   0.61607   0.68713   0.01267  Uiso   1.00
O9     O     0.96955   0.31123   0.30481   0.01267  Uiso   1.00
O10    O     0.89627   0.35710   0.30244   0.01267  Uiso   1.00
O11    O     0.51136   0.33989   0.32087   0.01267  Uiso   1.00
O12    O     0.28589   0.34475   0.29657   0.01267  Uiso   1.00
O13    O     0.72964   0.65278   0.70349   0.01267  Uiso   1.00
O14    O     0.49826   0.66101   0.67926   0.01267  Uiso   1.00
O15    O     0.14072   0.64451   0.69663   0.01267  Uiso   1.00
O16    O     0.02255   0.68713   0.69680   0.01267  Uiso   1.00
O17    O     0.27436   0.30481   0.38396   0.01267  Uiso   1.00
O18    O     0.19871   0.30244   0.34046   0.01267  Uiso   1.00
O19    O     0.83223   0.32087   0.33924   0.01267  Uiso   1.00
O20    O     0.58246   0.29657   0.35868   0.01267  Uiso   1.00
O21    O     0.43313   0.70349   0.64373   0.01267  Uiso   1.00
O22    O     0.17752   0.67926   0.65973   0.01267  Uiso   1.00
O23    O     0.83735   0.69663   0.65886   0.01267  Uiso   1.00
O24    O     0.71935   0.69680   0.61607   0.01267  Uiso   1.00
