data_RAVXAP_clean
_audit_creation_date              2014-07-02
_audit_creation_method            'Materials Studio'
_symmetry_space_group_name_H-M    'P1'
_symmetry_Int_Tables_number       1
_symmetry_cell_setting            triclinic
loop_
_symmetry_equiv_pos_as_xyz
  x,y,z
_cell_length_a                    6.9886
_cell_length_b                    53.1442
_cell_length_c                    53.1442
_cell_angle_alpha                 60.1905
_cell_angle_beta                  87.4877
_cell_angle_gamma                 92.5123
loop_
_atom_site_label
_atom_site_type_symbol
_atom_site_fract_x
_atom_site_fract_y
_atom_site_fract_z
_atom_site_U_iso_or_equiv
_atom_site_adp_type
_atom_site_occupancy
Mg1    Mg    0.90551   0.35272   0.33585   0.01267  Uiso   1.00
Mg2    Mg    0.88499   0.64354   0.67311   0.01267  Uiso   1.00
Mg3    Mg    0.24136   0.33585   0.31143   0.01267  Uiso   1.00
Mg4    Mg    0.55810   0.67311   0.68335   0.01267  Uiso   1.00
Mg5    Mg    0.55279   0.31143   0.35272   0.01267  Uiso   1.00
Mg6    Mg    0.24145   0.68335   0.64354   0.01267  Uiso   1.00
H1     H     0.85925   0.51462   0.35723   0.01267  Uiso   1.00
H2     H     0.02912   0.52092   0.37805   0.01267  Uiso   1.00
H3     H     0.88470   0.48680   0.39400   0.01267  Uiso   1.00
H4     H     0.59563   0.51283   0.39099   0.01267  Uiso   1.00
H5     H     0.73508   0.54690   0.37340   0.01267  Uiso   1.00
H6     H     0.67293   0.53448   0.42272   0.01267  Uiso   1.00
H7     H     0.91768   0.52974   0.41867   0.01267  Uiso   1.00
H8     H     0.87009   0.47757   0.44594   0.01267  Uiso   1.00
H9     H     0.62165   0.47777   0.44110   0.01267  Uiso   1.00
H10    H     0.58954   0.50313   0.47114   0.01267  Uiso   1.00
H11    H     0.83052   0.49701   0.47909   0.01267  Uiso   1.00
H12    H     0.76541   0.44739   0.51128   0.01267  Uiso   1.00
H13    H     0.58836   0.44300   0.49135   0.01267  Uiso   1.00
H14    H     0.05096   0.36732   0.56003   0.01267  Uiso   1.00
H15    H     0.24769   0.38869   0.56148   0.01267  Uiso   1.00
H16    H     0.00933   0.39886   0.56277   0.01267  Uiso   1.00
H17    H     0.16822   0.44609   0.41512   0.01267  Uiso   1.00
H18    H     0.17028   0.47886   0.41744   0.01267  Uiso   1.00
H19    H     0.37924   0.45983   0.42253   0.01267  Uiso   1.00
H20    H     0.08205   0.34519   0.50292   0.01267  Uiso   1.00
H21    H     0.16229   0.33681   0.47567   0.01267  Uiso   1.00
H22    H     0.26963   0.36797   0.47578   0.01267  Uiso   1.00
H23    H     0.63751   0.45228   0.39464   0.01267  Uiso   1.00
H24    H     0.63798   0.42985   0.37830   0.01267  Uiso   1.00
H25    H     0.45704   0.42337   0.40638   0.01267  Uiso   1.00
H26    H     0.17390   0.58931   0.57823   0.01267  Uiso   1.00
H27    H     0.60474   0.52901   0.63958   0.01267  Uiso   1.00
H28    H     0.69907   0.47987   0.53383   0.01267  Uiso   1.00
H29    H     0.31706   0.47339   0.46441   0.01267  Uiso   1.00
H30    H     0.95230   0.37761   0.51467   0.01267  Uiso   1.00
H31    H     0.38095   0.57331   0.62262   0.01267  Uiso   1.00
H32    H     0.58811   0.60312   0.63377   0.01267  Uiso   1.00
H33    H     0.90929   0.61808   0.62821   0.01267  Uiso   1.00
H34    H     0.86584   0.35559   0.39509   0.01267  Uiso   1.00
H35    H     0.17526   0.35951   0.40189   0.01267  Uiso   1.00
H36    H     0.36848   0.37512   0.42833   0.01267  Uiso   1.00
H37    H     0.56393   0.56290   0.55449   0.01267  Uiso   1.00
H38    H     0.58167   0.45570   0.60434   0.01267  Uiso   1.00
H39    H     0.02352   0.44901   0.54089   0.01267  Uiso   1.00
H40    H     0.80917   0.43964   0.43525   0.01267  Uiso   1.00
H41    H     0.90044   0.34208   0.44842   0.01267  Uiso   1.00
H42    H     0.78043   0.57196   0.66669   0.01267  Uiso   1.00
H43    H     0.68153   0.53602   0.67809   0.01267  Uiso   1.00
H44    H     0.93024   0.54227   0.67933   0.01267  Uiso   1.00
H45    H     0.90367   0.57075   0.53840   0.01267  Uiso   1.00
H46    H     0.14545   0.57197   0.54607   0.01267  Uiso   1.00
H47    H     0.01577   0.53734   0.55986   0.01267  Uiso   1.00
H48    H     0.73861   0.45452   0.64291   0.01267  Uiso   1.00
H49    H     0.90690   0.48549   0.63026   0.01267  Uiso   1.00
H50    H     0.68814   0.48244   0.65073   0.01267  Uiso   1.00
H51    H     0.40294   0.56379   0.51653   0.01267  Uiso   1.00
H52    H     0.46949   0.53629   0.50829   0.01267  Uiso   1.00
H53    H     0.24525   0.53201   0.52765   0.01267  Uiso   1.00
H54    H     0.14172   0.48254   0.58624   0.01267  Uiso   1.00
H55    H     0.96624   0.48028   0.56475   0.01267  Uiso   1.00
H56    H     0.88982   0.44043   0.61406   0.01267  Uiso   1.00
H57    H     0.96394   0.42511   0.59280   0.01267  Uiso   1.00
H58    H     0.11018   0.39921   0.63638   0.01267  Uiso   1.00
H59    H     0.29726   0.42378   0.61154   0.01267  Uiso   1.00
H60    H     0.24255   0.45753   0.63191   0.01267  Uiso   1.00
H61    H     0.05950   0.43208   0.65701   0.01267  Uiso   1.00
H62    H     0.47171   0.41682   0.65372   0.01267  Uiso   1.00
H63    H     0.38745   0.43112   0.67603   0.01267  Uiso   1.00
H64    H     0.14194   0.38856   0.70154   0.01267  Uiso   1.00
H65    H     0.24264   0.37328   0.68062   0.01267  Uiso   1.00
H66    H     0.38123   0.37822   0.70551   0.01267  Uiso   1.00
H67    H     0.21648   0.35723   0.12815   0.01267  Uiso   1.00
H68    H     0.40717   0.37805   0.10103   0.01267  Uiso   1.00
H69    H     0.27870   0.39400   0.11920   0.01267  Uiso   1.00
H70    H     0.98662   0.39099   0.09618   0.01267  Uiso   1.00
H71    H     0.10848   0.37340   0.07970   0.01267  Uiso   1.00
H72    H     0.09565   0.42272   0.04280   0.01267  Uiso   1.00
H73    H     0.33635   0.41867   0.05159   0.01267  Uiso   1.00
H74    H     0.31603   0.44594   0.07649   0.01267  Uiso   1.00
H75    H     0.06275   0.44110   0.08113   0.01267  Uiso   1.00
H76    H     0.06068   0.47114   0.02573   0.01267  Uiso   1.00
H77    H     0.30961   0.47909   0.02390   0.01267  Uiso   1.00
H78    H     0.27669   0.51128   0.04133   0.01267  Uiso   1.00
H79    H     0.07971   0.49135   0.06565   0.01267  Uiso   1.00
H80    H     0.61099   0.56003   0.07265   0.01267  Uiso   1.00
H81    H     0.80917   0.56148   0.04983   0.01267  Uiso   1.00
H82    H     0.57210   0.56277   0.03837   0.01267  Uiso   1.00
H83    H     0.58334   0.41512   0.13879   0.01267  Uiso   1.00
H84    H     0.58772   0.41744   0.10370   0.01267  Uiso   1.00
H85    H     0.80177   0.42253   0.11764   0.01267  Uiso   1.00
H86    H     0.58497   0.50292   0.15189   0.01267  Uiso   1.00
H87    H     0.63796   0.47567   0.18752   0.01267  Uiso   1.00
H88    H     0.74541   0.47578   0.15625   0.01267  Uiso   1.00
H89    H     0.03215   0.39464   0.15308   0.01267  Uiso   1.00
H90    H     0.01628   0.37830   0.19185   0.01267  Uiso   1.00
H91    H     0.86342   0.40638   0.17025   0.01267  Uiso   1.00
H92    H     0.75213   0.57823   0.83246   0.01267  Uiso   1.00
H93    H     0.24432   0.63958   0.83141   0.01267  Uiso   1.00
H94    H     0.23290   0.53383   0.98630   0.01267  Uiso   1.00
H95    H     0.78147   0.46441   0.06220   0.01267  Uiso   1.00
H96    H     0.46697   0.51467   0.10772   0.01267  Uiso   1.00
H97    H     0.00357   0.62262   0.80407   0.01267  Uiso   1.00
H98    H     0.22188   0.63377   0.76311   0.01267  Uiso   1.00
H99    H     0.53750   0.62821   0.75371   0.01267  Uiso   1.00
H100   H     0.26093   0.39509   0.24932   0.01267  Uiso   1.00
H101   H     0.57715   0.40189   0.23860   0.01267  Uiso   1.00
H102   H     0.79681   0.42833   0.19655   0.01267  Uiso   1.00
H103   H     0.11842   0.55449   0.88261   0.01267  Uiso   1.00
H104   H     0.18601   0.60434   0.93996   0.01267  Uiso   1.00
H105   H     0.56441   0.54089   0.01010   0.01267  Uiso   1.00
H106   H     0.24442   0.43525   0.12511   0.01267  Uiso   1.00
H107   H     0.34886   0.44842   0.20950   0.01267  Uiso   1.00
H108   H     0.44712   0.66669   0.76135   0.01267  Uiso   1.00
H109   H     0.35962   0.67809   0.78589   0.01267  Uiso   1.00
H110   H     0.60957   0.67933   0.77840   0.01267  Uiso   1.00
H111   H     0.44207   0.53840   0.89085   0.01267  Uiso   1.00
H112   H     0.69152   0.54607   0.88196   0.01267  Uiso   1.00
H113   H     0.57563   0.55986   0.90280   0.01267  Uiso   1.00
H114   H     0.38152   0.64291   0.90257   0.01267  Uiso   1.00
H115   H     0.53716   0.63026   0.88425   0.01267  Uiso   1.00
H116   H     0.33887   0.65073   0.86683   0.01267  Uiso   1.00
H117   H     0.91947   0.51653   0.91968   0.01267  Uiso   1.00
H118   H     0.97778   0.50829   0.95542   0.01267  Uiso   1.00
H119   H     0.77290   0.52765   0.94034   0.01267  Uiso   1.00
H120   H     0.72796   0.58624   0.93122   0.01267  Uiso   1.00
H121   H     0.53099   0.56475   0.95497   0.01267  Uiso   1.00
H122   H     0.50388   0.61406   0.94551   0.01267  Uiso   1.00
H123   H     0.55674   0.59280   0.98209   0.01267  Uiso   1.00
H124   H     0.74656   0.63638   0.96441   0.01267  Uiso   1.00
H125   H     0.90880   0.61154   0.96468   0.01267  Uiso   1.00
H126   H     0.87446   0.63191   0.91056   0.01267  Uiso   1.00
H127   H     0.71651   0.65701   0.91091   0.01267  Uiso   1.00
H128   H     0.12543   0.65372   0.92946   0.01267  Uiso   1.00
H129   H     0.06348   0.67603   0.89285   0.01267  Uiso   1.00
H130   H     0.84348   0.70154   0.90990   0.01267  Uiso   1.00
H131   H     0.92326   0.68062   0.94610   0.01267  Uiso   1.00
H132   H     0.08674   0.70551   0.91627   0.01267  Uiso   1.00
H133   H     0.34463   0.12815   0.51462   0.01267  Uiso   1.00
H134   H     0.50820   0.10103   0.52092   0.01267  Uiso   1.00
H135   H     0.39790   0.11920   0.48680   0.01267  Uiso   1.00
H136   H     0.08280   0.09618   0.51283   0.01267  Uiso   1.00
H137   H     0.18818   0.07970   0.54690   0.01267  Uiso   1.00
H138   H     0.13845   0.04280   0.53448   0.01267  Uiso   1.00
H139   H     0.38794   0.05159   0.52974   0.01267  Uiso   1.00
H140   H     0.39252   0.07649   0.47757   0.01267  Uiso   1.00
H141   H     0.14388   0.08113   0.47777   0.01267  Uiso   1.00
H142   H     0.08641   0.02573   0.50313   0.01267  Uiso   1.00
H143   H     0.33351   0.02390   0.49701   0.01267  Uiso   1.00
H144   H     0.31802   0.04133   0.44739   0.01267  Uiso   1.00
H145   H     0.14536   0.06565   0.44300   0.01267  Uiso   1.00
H146   H     0.68364   0.07265   0.36732   0.01267  Uiso   1.00
H147   H     0.85900   0.04983   0.38869   0.01267  Uiso   1.00
H148   H     0.61047   0.03837   0.39886   0.01267  Uiso   1.00
H149   H     0.72213   0.13879   0.44609   0.01267  Uiso   1.00
H150   H     0.69142   0.10370   0.47886   0.01267  Uiso   1.00
H151   H     0.91941   0.11764   0.45983   0.01267  Uiso   1.00
H152   H     0.73686   0.15189   0.34519   0.01267  Uiso   1.00
H153   H     0.82548   0.18752   0.33681   0.01267  Uiso   1.00
H154   H     0.90166   0.15625   0.36797   0.01267  Uiso   1.00
H155   H     0.18523   0.15308   0.45228   0.01267  Uiso   1.00
H156   H     0.20813   0.19185   0.42985   0.01267  Uiso   1.00
H157   H     0.03367   0.17025   0.42337   0.01267  Uiso   1.00
H158   H     0.58459   0.83246   0.58931   0.01267  Uiso   1.00
H159   H     0.07573   0.83141   0.52901   0.01267  Uiso   1.00
H160   H     0.21920   0.98630   0.47987   0.01267  Uiso   1.00
H161   H     0.84367   0.06220   0.47339   0.01267  Uiso   1.00
H162   H     0.57469   0.10772   0.37761   0.01267  Uiso   1.00
H163   H     0.80764   0.80407   0.57331   0.01267  Uiso   1.00
H164   H     0.98499   0.76311   0.60312   0.01267  Uiso   1.00
H165   H     0.29121   0.75371   0.61808   0.01267  Uiso   1.00
H166   H     0.51025   0.24932   0.35559   0.01267  Uiso   1.00
H167   H     0.81575   0.23860   0.35951   0.01267  Uiso   1.00
H168   H     0.99336   0.19655   0.37512   0.01267  Uiso   1.00
H169   H     0.00103   0.88261   0.56290   0.01267  Uiso   1.00
H170   H     0.12597   0.93996   0.45570   0.01267  Uiso   1.00
H171   H     0.57451   0.01010   0.44901   0.01267  Uiso   1.00
H172   H     0.36953   0.12511   0.43964   0.01267  Uiso   1.00
H173   H     0.55836   0.20950   0.34208   0.01267  Uiso   1.00
H174   H     0.20847   0.76135   0.57196   0.01267  Uiso   1.00
H175   H     0.14551   0.78589   0.53602   0.01267  Uiso   1.00
H176   H     0.38797   0.77840   0.54227   0.01267  Uiso   1.00
H177   H     0.33292   0.89085   0.57075   0.01267  Uiso   1.00
H178   H     0.57348   0.88196   0.57197   0.01267  Uiso   1.00
H179   H     0.47843   0.90280   0.53734   0.01267  Uiso   1.00
H180   H     0.28409   0.90257   0.45452   0.01267  Uiso   1.00
H181   H     0.42141   0.88425   0.48549   0.01267  Uiso   1.00
H182   H     0.20570   0.86683   0.48244   0.01267  Uiso   1.00
H183   H     0.83915   0.91968   0.56379   0.01267  Uiso   1.00
H184   H     0.93320   0.95542   0.53629   0.01267  Uiso   1.00
H185   H     0.71324   0.94034   0.53201   0.01267  Uiso   1.00
H186   H     0.65918   0.93122   0.48254   0.01267  Uiso   1.00
H187   H     0.48596   0.95497   0.48028   0.01267  Uiso   1.00
H188   H     0.44939   0.94551   0.44043   0.01267  Uiso   1.00
H189   H     0.53883   0.98209   0.42511   0.01267  Uiso   1.00
H190   H     0.71097   0.96441   0.39921   0.01267  Uiso   1.00
H191   H     0.87348   0.96468   0.42378   0.01267  Uiso   1.00
H192   H     0.78502   0.91056   0.45753   0.01267  Uiso   1.00
H193   H     0.62742   0.91091   0.43208   0.01267  Uiso   1.00
H194   H     0.05489   0.92946   0.41682   0.01267  Uiso   1.00
H195   H     0.95633   0.89285   0.43112   0.01267  Uiso   1.00
H196   H     0.75338   0.90990   0.38856   0.01267  Uiso   1.00
H197   H     0.86936   0.94610   0.37328   0.01267  Uiso   1.00
H198   H     0.00301   0.91627   0.37822   0.01267  Uiso   1.00
C1     C     0.88740   0.51060   0.37925   0.01267  Uiso   1.00
C2     C     0.73653   0.52345   0.38979   0.01267  Uiso   1.00
C3     C     0.77250   0.52071   0.41933   0.01267  Uiso   1.00
C4     C     0.74228   0.48916   0.44481   0.01267  Uiso   1.00
C5     C     0.70231   0.48836   0.47383   0.01267  Uiso   1.00
C6     C     0.64076   0.45753   0.49931   0.01267  Uiso   1.00
C7     C     0.10690   0.38988   0.55295   0.01267  Uiso   1.00
C8     C     0.22371   0.45700   0.42669   0.01267  Uiso   1.00
C9     C     0.13411   0.35490   0.47978   0.01267  Uiso   1.00
C10    C     0.60835   0.42969   0.39908   0.01267  Uiso   1.00
C11    C     0.05010   0.57598   0.59172   0.01267  Uiso   1.00
C12    C     0.94074   0.55986   0.58265   0.01267  Uiso   1.00
C13    C     0.84521   0.55704   0.63617   0.01267  Uiso   1.00
C14    C     0.72941   0.54216   0.62627   0.01267  Uiso   1.00
C15    C     0.77656   0.54312   0.59984   0.01267  Uiso   1.00
C16    C     0.00410   0.57496   0.61815   0.01267  Uiso   1.00
C17    C     0.55220   0.47233   0.53592   0.01267  Uiso   1.00
C18    C     0.49401   0.45921   0.51995   0.01267  Uiso   1.00
C19    C     0.30044   0.44999   0.52231   0.01267  Uiso   1.00
C20    C     0.17373   0.44016   0.45902   0.01267  Uiso   1.00
C21    C     0.24378   0.45194   0.47548   0.01267  Uiso   1.00
C22    C     0.22389   0.43633   0.50595   0.01267  Uiso   1.00
C23    C     0.12377   0.40858   0.52026   0.01267  Uiso   1.00
C24    C     0.03970   0.39790   0.50370   0.01267  Uiso   1.00
C25    C     0.06420   0.41317   0.47322   0.01267  Uiso   1.00
C26    C     0.43990   0.60643   0.63354   0.01267  Uiso   1.00
C27    C     0.32135   0.58921   0.62709   0.01267  Uiso   1.00
C28    C     0.12783   0.59237   0.62644   0.01267  Uiso   1.00
C29    C     0.05592   0.61389   0.63113   0.01267  Uiso   1.00
C30    C     0.60594   0.34631   0.38134   0.01267  Uiso   1.00
C31    C     0.40623   0.34845   0.38195   0.01267  Uiso   1.00
C32    C     0.28011   0.34466   0.36211   0.01267  Uiso   1.00
C33    C     0.50306   0.64058   0.65179   0.01267  Uiso   1.00
C34    C     0.36938   0.62703   0.64013   0.01267  Uiso   1.00
C35    C     0.17196   0.63115   0.63813   0.01267  Uiso   1.00
C36    C     0.71535   0.35679   0.39599   0.01267  Uiso   1.00
C37    C     0.63266   0.36836   0.41203   0.01267  Uiso   1.00
C38    C     0.43648   0.36768   0.41492   0.01267  Uiso   1.00
C39    C     0.32553   0.35823   0.39992   0.01267  Uiso   1.00
C40    C     0.66046   0.52526   0.59107   0.01267  Uiso   1.00
C41    C     0.56583   0.53943   0.56558   0.01267  Uiso   1.00
C42    C     0.48366   0.52390   0.55338   0.01267  Uiso   1.00
C43    C     0.49210   0.49347   0.56744   0.01267  Uiso   1.00
C44    C     0.57693   0.47907   0.59375   0.01267  Uiso   1.00
C45    C     0.66027   0.49459   0.60594   0.01267  Uiso   1.00
C46    C     0.42338   0.47675   0.55381   0.01267  Uiso   1.00
C47    C     0.23172   0.46717   0.55656   0.01267  Uiso   1.00
C48    C     0.17239   0.45483   0.54002   0.01267  Uiso   1.00
C49    C     0.74984   0.38059   0.42642   0.01267  Uiso   1.00
C50    C     0.96227   0.40149   0.45689   0.01267  Uiso   1.00
C51    C     0.83099   0.41852   0.43783   0.01267  Uiso   1.00
C52    C     0.72930   0.40890   0.42185   0.01267  Uiso   1.00
C53    C     0.99047   0.37378   0.46035   0.01267  Uiso   1.00
C54    C     0.88275   0.36360   0.44522   0.01267  Uiso   1.00
C55    C     0.80668   0.55161   0.66668   0.01267  Uiso   1.00
C56    C     0.00501   0.56001   0.55517   0.01267  Uiso   1.00
C57    C     0.75429   0.47838   0.63395   0.01267  Uiso   1.00
C58    C     0.39539   0.53999   0.52486   0.01267  Uiso   1.00
C59    C     0.08705   0.46912   0.57717   0.01267  Uiso   1.00
C60    C     0.01431   0.43864   0.60207   0.01267  Uiso   1.00
C61    C     0.16232   0.42250   0.62355   0.01267  Uiso   1.00
C62    C     0.19432   0.43409   0.64453   0.01267  Uiso   1.00
C63    C     0.34438   0.41823   0.66569   0.01267  Uiso   1.00
C64    C     0.27210   0.38771   0.68974   0.01267  Uiso   1.00
C65    C     0.26665   0.37925   0.11015   0.01267  Uiso   1.00
C66    C     0.12632   0.38979   0.08676   0.01267  Uiso   1.00
C67    C     0.19183   0.41933   0.05996   0.01267  Uiso   1.00
C68    C     0.18709   0.44481   0.06603   0.01267  Uiso   1.00
C69    C     0.17614   0.47383   0.03781   0.01267  Uiso   1.00
C70    C     0.14007   0.49931   0.04316   0.01267  Uiso   1.00
C71    C     0.65985   0.55295   0.05717   0.01267  Uiso   1.00
C72    C     0.65040   0.42669   0.11631   0.01267  Uiso   1.00
C73    C     0.61389   0.47978   0.16532   0.01267  Uiso   1.00
C74    C     0.00743   0.39908   0.17123   0.01267  Uiso   1.00
C75    C     0.64182   0.59172   0.83230   0.01267  Uiso   1.00
C76    C     0.52339   0.58265   0.85749   0.01267  Uiso   1.00
C77    C     0.48138   0.63617   0.80679   0.01267  Uiso   1.00
C78    C     0.35568   0.62627   0.83157   0.01267  Uiso   1.00
C79    C     0.37640   0.59984   0.85704   0.01267  Uiso   1.00
C80    C     0.62225   0.61815   0.80689   0.01267  Uiso   1.00
C81    C     0.08812   0.53592   0.99175   0.01267  Uiso   1.00
C82    C     0.01396   0.51995   0.02084   0.01267  Uiso   1.00
C83    C     0.82275   0.52231   0.02770   0.01267  Uiso   1.00
C84    C     0.63275   0.45902   0.10082   0.01267  Uiso   1.00
C85    C     0.71926   0.47548   0.07258   0.01267  Uiso   1.00
C86    C     0.72984   0.50595   0.05772   0.01267  Uiso   1.00
C87    C     0.64403   0.52026   0.07116   0.01267  Uiso   1.00
C88    C     0.54340   0.50370   0.09840   0.01267  Uiso   1.00
C89    C     0.53742   0.47322   0.11361   0.01267  Uiso   1.00
C90    C     0.07344   0.63354   0.76003   0.01267  Uiso   1.00
C91    C     0.94844   0.62709   0.78370   0.01267  Uiso   1.00
C92    C     0.75427   0.62644   0.78119   0.01267  Uiso   1.00
C93    C     0.68705   0.63113   0.75498   0.01267  Uiso   1.00
C94    C     0.98728   0.38134   0.27235   0.01267  Uiso   1.00
C95    C     0.78818   0.38195   0.26960   0.01267  Uiso   1.00
C96    C     0.64222   0.36211   0.29323   0.01267  Uiso   1.00
C97    C     0.15485   0.65179   0.70763   0.01267  Uiso   1.00
C98    C     0.00951   0.64013   0.73284   0.01267  Uiso   1.00
C99    C     0.81009   0.63813   0.73072   0.01267  Uiso   1.00
C100   C     0.11134   0.39599   0.24722   0.01267  Uiso   1.00
C101   C     0.04469   0.41203   0.21961   0.01267  Uiso   1.00
C102   C     0.85140   0.41492   0.21740   0.01267  Uiso   1.00
C103   C     0.72545   0.39992   0.24185   0.01267  Uiso   1.00
C104   C     0.25153   0.59107   0.88367   0.01267  Uiso   1.00
C105   C     0.13141   0.56558   0.89499   0.01267  Uiso   1.00
C106   C     0.03704   0.55338   0.92272   0.01267  Uiso   1.00
C107   C     0.05954   0.56744   0.93909   0.01267  Uiso   1.00
C108   C     0.17068   0.59375   0.92718   0.01267  Uiso   1.00
C109   C     0.26621   0.60594   0.89947   0.01267  Uiso   1.00
C110   C     0.97719   0.55381   0.96944   0.01267  Uiso   1.00
C111   C     0.78828   0.55656   0.97627   0.01267  Uiso   1.00
C112   C     0.71241   0.54002   0.00515   0.01267  Uiso   1.00
C113   C     0.17626   0.42642   0.19299   0.01267  Uiso   1.00
C114   C     0.41916   0.45689   0.14162   0.01267  Uiso   1.00
C115   C     0.26882   0.43783   0.14365   0.01267  Uiso   1.00
C116   C     0.15115   0.42185   0.16925   0.01267  Uiso   1.00
C117   C     0.45082   0.46035   0.16587   0.01267  Uiso   1.00
C118   C     0.32797   0.44522   0.19118   0.01267  Uiso   1.00
C119   C     0.47336   0.66668   0.78171   0.01267  Uiso   1.00
C120   C     0.56018   0.55517   0.88482   0.01267  Uiso   1.00
C121   C     0.38824   0.63395   0.88767   0.01267  Uiso   1.00
C122   C     0.92025   0.52486   0.93515   0.01267  Uiso   1.00
C123   C     0.66422   0.57717   0.95371   0.01267  Uiso   1.00
C124   C     0.61638   0.60207   0.95929   0.01267  Uiso   1.00
C125   C     0.78587   0.62355   0.95395   0.01267  Uiso   1.00
C126   C     0.83885   0.64453   0.92138   0.01267  Uiso   1.00
C127   C     0.01007   0.66569   0.91608   0.01267  Uiso   1.00
C128   C     0.96184   0.68974   0.92255   0.01267  Uiso   1.00
C129   C     0.37680   0.11015   0.51060   0.01267  Uiso   1.00
C130   C     0.21308   0.08676   0.52345   0.01267  Uiso   1.00
C131   C     0.25179   0.05996   0.52071   0.01267  Uiso   1.00
C132   C     0.25312   0.06603   0.48916   0.01267  Uiso   1.00
C133   C     0.21395   0.03781   0.48836   0.01267  Uiso   1.00
C134   C     0.18323   0.04316   0.45753   0.01267  Uiso   1.00
C135   C     0.71702   0.05717   0.38988   0.01267  Uiso   1.00
C136   C     0.76671   0.11631   0.45700   0.01267  Uiso   1.00
C137   C     0.77921   0.16532   0.35490   0.01267  Uiso   1.00
C138   C     0.17866   0.17123   0.42969   0.01267  Uiso   1.00
C139   C     0.47412   0.83230   0.57598   0.01267  Uiso   1.00
C140   C     0.38088   0.85749   0.55986   0.01267  Uiso   1.00
C141   C     0.28817   0.80679   0.55704   0.01267  Uiso   1.00
C142   C     0.18725   0.83157   0.54216   0.01267  Uiso   1.00
C143   C     0.23344   0.85704   0.54312   0.01267  Uiso   1.00
C144   C     0.42914   0.80689   0.57496   0.01267  Uiso   1.00
C145   C     0.07987   0.99175   0.47233   0.01267  Uiso   1.00
C146   C     0.03480   0.02084   0.45921   0.01267  Uiso   1.00
C147   C     0.85045   0.02770   0.44999   0.01267  Uiso   1.00
C148   C     0.73357   0.10082   0.44016   0.01267  Uiso   1.00
C149   C     0.79184   0.07258   0.45194   0.01267  Uiso   1.00
C150   C     0.78756   0.05772   0.43633   0.01267  Uiso   1.00
C151   C     0.71519   0.07116   0.40858   0.01267  Uiso   1.00
C152   C     0.64180   0.09840   0.39790   0.01267  Uiso   1.00
C153   C     0.65103   0.11361   0.41317   0.01267  Uiso   1.00
C154   C     0.83347   0.76003   0.60643   0.01267  Uiso   1.00
C155   C     0.73214   0.78370   0.58921   0.01267  Uiso   1.00
C156   C     0.53546   0.78119   0.59237   0.01267  Uiso   1.00
C157   C     0.44203   0.75498   0.61389   0.01267  Uiso   1.00
C158   C     0.25963   0.27235   0.34631   0.01267  Uiso   1.00
C159   C     0.05778   0.26960   0.34845   0.01267  Uiso   1.00
C160   C     0.93545   0.29323   0.34466   0.01267  Uiso   1.00
C161   C     0.86248   0.70763   0.64058   0.01267  Uiso   1.00
C162   C     0.74235   0.73284   0.62703   0.01267  Uiso   1.00
C163   C     0.54081   0.73072   0.63115   0.01267  Uiso   1.00
C164   C     0.35856   0.24722   0.35679   0.01267  Uiso   1.00
C165   C     0.26430   0.21961   0.36836   0.01267  Uiso   1.00
C166   C     0.06880   0.21740   0.36768   0.01267  Uiso   1.00
C167   C     0.96730   0.24185   0.35823   0.01267  Uiso   1.00
C168   C     0.13520   0.88367   0.52526   0.01267  Uiso   1.00
C169   C     0.02640   0.89499   0.53943   0.01267  Uiso   1.00
C170   C     0.95976   0.92272   0.52390   0.01267  Uiso   1.00
C171   C     0.99863   0.93909   0.49347   0.01267  Uiso   1.00
C172   C     0.09786   0.92718   0.47907   0.01267  Uiso   1.00
C173   C     0.16568   0.89947   0.49459   0.01267  Uiso   1.00
C174   C     0.94663   0.96944   0.47675   0.01267  Uiso   1.00
C175   C     0.76455   0.97627   0.46717   0.01267  Uiso   1.00
C176   C     0.71756   0.00515   0.45483   0.01267  Uiso   1.00
C177   C     0.36925   0.19299   0.38059   0.01267  Uiso   1.00
C178   C     0.56078   0.14162   0.40149   0.01267  Uiso   1.00
C179   C     0.41247   0.14365   0.41852   0.01267  Uiso   1.00
C180   C     0.32040   0.16925   0.40890   0.01267  Uiso   1.00
C181   C     0.61669   0.16587   0.37378   0.01267  Uiso   1.00
C182   C     0.51915   0.19118   0.36360   0.01267  Uiso   1.00
C183   C     0.25507   0.78171   0.55161   0.01267  Uiso   1.00
C184   C     0.44500   0.88482   0.56001   0.01267  Uiso   1.00
C185   C     0.27591   0.88767   0.47838   0.01267  Uiso   1.00
C186   C     0.85540   0.93515   0.53999   0.01267  Uiso   1.00
C187   C     0.61793   0.95371   0.46912   0.01267  Uiso   1.00
C188   C     0.57567   0.95929   0.43864   0.01267  Uiso   1.00
C189   C     0.73982   0.95395   0.42250   0.01267  Uiso   1.00
C190   C     0.76023   0.92138   0.43409   0.01267  Uiso   1.00
C191   C     0.92615   0.91608   0.41823   0.01267  Uiso   1.00
C192   C     0.88439   0.92255   0.38771   0.01267  Uiso   1.00
O1     O     0.69912   0.33158   0.36931   0.01267  Uiso   1.00
O2     O     0.34455   0.33604   0.34518   0.01267  Uiso   1.00
O3     O     0.10801   0.35118   0.36170   0.01267  Uiso   1.00
O4     O     0.67450   0.63343   0.65472   0.01267  Uiso   1.00
O5     O     0.44557   0.65815   0.65967   0.01267  Uiso   1.00
O6     O     0.08682   0.65351   0.64000   0.01267  Uiso   1.00
O7     O     0.06843   0.36931   0.29911   0.01267  Uiso   1.00
O8     O     0.68973   0.34518   0.31878   0.01267  Uiso   1.00
O9     O     0.46971   0.36170   0.28712   0.01267  Uiso   1.00
O10    O     0.32922   0.65472   0.71185   0.01267  Uiso   1.00
O11    O     0.10524   0.65967   0.68218   0.01267  Uiso   1.00
O12    O     0.72682   0.64000   0.70649   0.01267  Uiso   1.00
O13    O     0.36754   0.29911   0.33158   0.01267  Uiso   1.00
O14    O     0.00851   0.31878   0.33604   0.01267  Uiso   1.00
O15    O     0.75683   0.28712   0.35118   0.01267  Uiso   1.00
O16    O     0.04107   0.71185   0.63343   0.01267  Uiso   1.00
O17    O     0.78742   0.68218   0.65815   0.01267  Uiso   1.00
O18    O     0.43331   0.70649   0.65351   0.01267  Uiso   1.00
