data_RAVXET_clean
_audit_creation_date              2014-07-02
_audit_creation_method            'Materials Studio'
_symmetry_space_group_name_H-M    'P1'
_symmetry_Int_Tables_number       1
_symmetry_cell_setting            triclinic
loop_
_symmetry_equiv_pos_as_xyz
  x,y,z
_cell_length_a                    6.7317
_cell_length_b                    54.5467
_cell_length_c                    54.5467
_cell_angle_alpha                 60.1678
_cell_angle_beta                  87.6423
_cell_angle_gamma                 92.3577
loop_
_atom_site_label
_atom_site_type_symbol
_atom_site_fract_x
_atom_site_fract_y
_atom_site_fract_z
_atom_site_U_iso_or_equiv
_atom_site_adp_type
_atom_site_occupancy
Mg1    Mg    0.93677   0.35303   0.32999   0.01267  Uiso   1.00
Mg2    Mg    0.26676   0.32999   0.31698   0.01267  Uiso   1.00
Mg3    Mg    0.58374   0.31698   0.35303   0.01267  Uiso   1.00
Mg4    Mg    0.06323   0.64697   0.67001   0.01267  Uiso   1.00
Mg5    Mg    0.73324   0.67001   0.68302   0.01267  Uiso   1.00
Mg6    Mg    0.41626   0.68302   0.64697   0.01267  Uiso   1.00
H1     H     0.93149   0.36548   0.38837   0.01267  Uiso   1.00
H2     H     0.44771   0.41208   0.39468   0.01267  Uiso   1.00
H3     H     0.23291   0.39324   0.37209   0.01267  Uiso   1.00
H4     H     0.02124   0.41318   0.48395   0.01267  Uiso   1.00
H5     H     0.49786   0.49792   0.43261   0.01267  Uiso   1.00
H6     H     0.13992   0.48446   0.50567   0.01267  Uiso   1.00
H7     H     0.00957   0.46860   0.39576   0.01267  Uiso   1.00
H8     H     0.92903   0.36389   0.43637   0.01267  Uiso   1.00
H9     H     0.85409   0.44900   0.34631   0.01267  Uiso   1.00
H10    H     0.85857   0.47724   0.35460   0.01267  Uiso   1.00
H11    H     0.63592   0.45415   0.36361   0.01267  Uiso   1.00
H12    H     0.31040   0.38864   0.46961   0.01267  Uiso   1.00
H13    H     0.27048   0.36372   0.45759   0.01267  Uiso   1.00
H14    H     0.08939   0.36404   0.48314   0.01267  Uiso   1.00
H15    H     0.59887   0.47386   0.40159   0.01267  Uiso   1.00
H16    H     0.39741   0.49654   0.38614   0.01267  Uiso   1.00
H17    H     0.38403   0.46071   0.39195   0.01267  Uiso   1.00
H18    H     0.01363   0.43510   0.52366   0.01267  Uiso   1.00
H19    H     0.27693   0.43387   0.53098   0.01267  Uiso   1.00
H20    H     0.15369   0.40520   0.52916   0.01267  Uiso   1.00
H21    H     0.05759   0.50885   0.45581   0.01267  Uiso   1.00
H22    H     0.86137   0.53319   0.44304   0.01267  Uiso   1.00
H23    H     0.78326   0.51790   0.40840   0.01267  Uiso   1.00
H24    H     0.97837   0.49308   0.42108   0.01267  Uiso   1.00
H25    H     0.92445   0.54693   0.36357   0.01267  Uiso   1.00
H26    H     0.11785   0.52237   0.37048   0.01267  Uiso   1.00
H27    H     0.17694   0.58499   0.35510   0.01267  Uiso   1.00
H28    H     0.21756   0.57175   0.33049   0.01267  Uiso   1.00
H29    H     0.68427   0.58162   0.33961   0.01267  Uiso   1.00
H30    H     0.48814   0.60435   0.33540   0.01267  Uiso   1.00
H31    H     0.71935   0.56929   0.38887   0.01267  Uiso   1.00
H32    H     0.72531   0.60709   0.36694   0.01267  Uiso   1.00
H33    H     0.41508   0.54583   0.41896   0.01267  Uiso   1.00
H34    H     0.56550   0.56558   0.43154   0.01267  Uiso   1.00
H35    H     0.29852   0.56807   0.43037   0.01267  Uiso   1.00
H36    H     0.31986   0.38837   0.24615   0.01267  Uiso   1.00
H37    H     0.84239   0.39468   0.19324   0.01267  Uiso   1.00
H38    H     0.60500   0.37209   0.23467   0.01267  Uiso   1.00
H39    H     0.50519   0.48395   0.10287   0.01267  Uiso   1.00
H40    H     0.93047   0.43261   0.06947   0.01267  Uiso   1.00
H41    H     0.64559   0.50567   0.00987   0.01267  Uiso   1.00
H42    H     0.40533   0.39576   0.13564   0.01267  Uiso   1.00
H43    H     0.36540   0.43637   0.19974   0.01267  Uiso   1.00
H44    H     0.20040   0.34631   0.20469   0.01267  Uiso   1.00
H45    H     0.21317   0.35460   0.16816   0.01267  Uiso   1.00
H46    H     0.99953   0.36361   0.18224   0.01267  Uiso   1.00
H47    H     0.78001   0.46961   0.14175   0.01267  Uiso   1.00
H48    H     0.72807   0.45759   0.17869   0.01267  Uiso   1.00
H49    H     0.57253   0.48314   0.15282   0.01267  Uiso   1.00
H50    H     0.00046   0.40159   0.12455   0.01267  Uiso   1.00
H51    H     0.78355   0.38614   0.11732   0.01267  Uiso   1.00
H52    H     0.77598   0.39195   0.14734   0.01267  Uiso   1.00
H53    H     0.53729   0.52366   0.04124   0.01267  Uiso   1.00
H54    H     0.80791   0.53098   0.03515   0.01267  Uiso   1.00
H55    H     0.68285   0.52916   0.06564   0.01267  Uiso   1.00
H56    H     0.51340   0.45581   0.03534   0.01267  Uiso   1.00
H57    H     0.30441   0.44304   0.02377   0.01267  Uiso   1.00
H58    H     0.19166   0.40840   0.07370   0.01267  Uiso   1.00
H59    H     0.39945   0.42108   0.08584   0.01267  Uiso   1.00
H60    H     0.28802   0.36357   0.08950   0.01267  Uiso   1.00
H61    H     0.48833   0.37048   0.10715   0.01267  Uiso   1.00
H62    H     0.53204   0.35510   0.05991   0.01267  Uiso   1.00
H63    H     0.54805   0.33049   0.09776   0.01267  Uiso   1.00
H64    H     0.02388   0.33961   0.07877   0.01267  Uiso   1.00
H65    H     0.82354   0.33540   0.06025   0.01267  Uiso   1.00
H66    H     0.10822   0.38887   0.04184   0.01267  Uiso   1.00
H67    H     0.09225   0.36694   0.02597   0.01267  Uiso   1.00
H68    H     0.83404   0.41896   0.03521   0.01267  Uiso   1.00
H69    H     0.99704   0.43154   0.00288   0.01267  Uiso   1.00
H70    H     0.72889   0.43037   0.00156   0.01267  Uiso   1.00
H71    H     0.56601   0.24615   0.36548   0.01267  Uiso   1.00
H72    H     0.03563   0.19324   0.41208   0.01267  Uiso   1.00
H73    H     0.83967   0.23467   0.39324   0.01267  Uiso   1.00
H74    H     0.60806   0.10287   0.41318   0.01267  Uiso   1.00
H75    H     0.99994   0.06947   0.49792   0.01267  Uiso   1.00
H76    H     0.65546   0.00987   0.48446   0.01267  Uiso   1.00
H77    H     0.54097   0.13564   0.46860   0.01267  Uiso   1.00
H78    H     0.56514   0.19974   0.36389   0.01267  Uiso   1.00
H79    H     0.40509   0.20469   0.44900   0.01267  Uiso   1.00
H80    H     0.38133   0.16816   0.47724   0.01267  Uiso   1.00
H81    H     0.18177   0.18224   0.45415   0.01267  Uiso   1.00
H82    H     0.92176   0.14175   0.38864   0.01267  Uiso   1.00
H83    H     0.90676   0.17869   0.36372   0.01267  Uiso   1.00
H84    H     0.72535   0.15282   0.36404   0.01267  Uiso   1.00
H85    H     0.12501   0.12455   0.47386   0.01267  Uiso   1.00
H86    H     0.90087   0.11732   0.49654   0.01267  Uiso   1.00
H87    H     0.92332   0.14734   0.46071   0.01267  Uiso   1.00
H88    H     0.57853   0.04124   0.43510   0.01267  Uiso   1.00
H89    H     0.84306   0.03515   0.43387   0.01267  Uiso   1.00
H90    H     0.74849   0.06564   0.40520   0.01267  Uiso   1.00
H91    H     0.54874   0.03534   0.50885   0.01267  Uiso   1.00
H92    H     0.32818   0.02377   0.53319   0.01267  Uiso   1.00
H93    H     0.26536   0.07370   0.51790   0.01267  Uiso   1.00
H94    H     0.48529   0.08584   0.49308   0.01267  Uiso   1.00
H95    H     0.37752   0.08950   0.54693   0.01267  Uiso   1.00
H96    H     0.59548   0.10715   0.52237   0.01267  Uiso   1.00
H97    H     0.59195   0.05991   0.58499   0.01267  Uiso   1.00
H98    H     0.64581   0.09776   0.57175   0.01267  Uiso   1.00
H99    H     0.10265   0.07877   0.58162   0.01267  Uiso   1.00
H100   H     0.88379   0.06025   0.60435   0.01267  Uiso   1.00
H101   H     0.15006   0.04184   0.56929   0.01267  Uiso   1.00
H102   H     0.11822   0.02597   0.60709   0.01267  Uiso   1.00
H103   H     0.86925   0.03521   0.54583   0.01267  Uiso   1.00
H104   H     0.99992   0.00288   0.56558   0.01267  Uiso   1.00
H105   H     0.73045   0.00156   0.56807   0.01267  Uiso   1.00
H106   H     0.06851   0.63452   0.61163   0.01267  Uiso   1.00
H107   H     0.55229   0.58792   0.60532   0.01267  Uiso   1.00
H108   H     0.76709   0.60676   0.62791   0.01267  Uiso   1.00
H109   H     0.97876   0.58682   0.51605   0.01267  Uiso   1.00
H110   H     0.50214   0.50208   0.56739   0.01267  Uiso   1.00
H111   H     0.86008   0.51554   0.49433   0.01267  Uiso   1.00
H112   H     0.99043   0.53140   0.60424   0.01267  Uiso   1.00
H113   H     0.07097   0.63611   0.56363   0.01267  Uiso   1.00
H114   H     0.14591   0.55100   0.65369   0.01267  Uiso   1.00
H115   H     0.14143   0.52276   0.64540   0.01267  Uiso   1.00
H116   H     0.36408   0.54585   0.63639   0.01267  Uiso   1.00
H117   H     0.68960   0.61136   0.53039   0.01267  Uiso   1.00
H118   H     0.72952   0.63628   0.54241   0.01267  Uiso   1.00
H119   H     0.91061   0.63596   0.51686   0.01267  Uiso   1.00
H120   H     0.40113   0.52614   0.59841   0.01267  Uiso   1.00
H121   H     0.60259   0.50346   0.61386   0.01267  Uiso   1.00
H122   H     0.61597   0.53929   0.60805   0.01267  Uiso   1.00
H123   H     0.98637   0.56490   0.47634   0.01267  Uiso   1.00
H124   H     0.72307   0.56613   0.46902   0.01267  Uiso   1.00
H125   H     0.84631   0.59480   0.47084   0.01267  Uiso   1.00
H126   H     0.94241   0.49115   0.54419   0.01267  Uiso   1.00
H127   H     0.13863   0.46681   0.55696   0.01267  Uiso   1.00
H128   H     0.21674   0.48210   0.59160   0.01267  Uiso   1.00
H129   H     0.02163   0.50692   0.57892   0.01267  Uiso   1.00
H130   H     0.07555   0.45307   0.63643   0.01267  Uiso   1.00
H131   H     0.88215   0.47763   0.62952   0.01267  Uiso   1.00
H132   H     0.82306   0.41501   0.64490   0.01267  Uiso   1.00
H133   H     0.78244   0.42825   0.66951   0.01267  Uiso   1.00
H134   H     0.31573   0.41838   0.66039   0.01267  Uiso   1.00
H135   H     0.51186   0.39565   0.66460   0.01267  Uiso   1.00
H136   H     0.28065   0.43071   0.61113   0.01267  Uiso   1.00
H137   H     0.27469   0.39291   0.63306   0.01267  Uiso   1.00
H138   H     0.58492   0.45417   0.58104   0.01267  Uiso   1.00
H139   H     0.43450   0.43442   0.56846   0.01267  Uiso   1.00
H140   H     0.70148   0.43193   0.56963   0.01267  Uiso   1.00
H141   H     0.68014   0.61163   0.75385   0.01267  Uiso   1.00
H142   H     0.15761   0.60532   0.80676   0.01267  Uiso   1.00
H143   H     0.39500   0.62791   0.76533   0.01267  Uiso   1.00
H144   H     0.49481   0.51605   0.89713   0.01267  Uiso   1.00
H145   H     0.06953   0.56739   0.93053   0.01267  Uiso   1.00
H146   H     0.35441   0.49433   0.99013   0.01267  Uiso   1.00
H147   H     0.59467   0.60424   0.86436   0.01267  Uiso   1.00
H148   H     0.63460   0.56363   0.80026   0.01267  Uiso   1.00
H149   H     0.79960   0.65369   0.79531   0.01267  Uiso   1.00
H150   H     0.78683   0.64540   0.83184   0.01267  Uiso   1.00
H151   H     0.00047   0.63639   0.81776   0.01267  Uiso   1.00
H152   H     0.21999   0.53039   0.85825   0.01267  Uiso   1.00
H153   H     0.27193   0.54241   0.82131   0.01267  Uiso   1.00
H154   H     0.42747   0.51686   0.84718   0.01267  Uiso   1.00
H155   H     0.99954   0.59841   0.87545   0.01267  Uiso   1.00
H156   H     0.21645   0.61386   0.88268   0.01267  Uiso   1.00
H157   H     0.22402   0.60805   0.85266   0.01267  Uiso   1.00
H158   H     0.46271   0.47634   0.95876   0.01267  Uiso   1.00
H159   H     0.19209   0.46902   0.96485   0.01267  Uiso   1.00
H160   H     0.31715   0.47084   0.93436   0.01267  Uiso   1.00
H161   H     0.48660   0.54419   0.96466   0.01267  Uiso   1.00
H162   H     0.69559   0.55696   0.97623   0.01267  Uiso   1.00
H163   H     0.80834   0.59160   0.92630   0.01267  Uiso   1.00
H164   H     0.60055   0.57892   0.91416   0.01267  Uiso   1.00
H165   H     0.71198   0.63643   0.91050   0.01267  Uiso   1.00
H166   H     0.51167   0.62952   0.89285   0.01267  Uiso   1.00
H167   H     0.46796   0.64490   0.94009   0.01267  Uiso   1.00
H168   H     0.45195   0.66951   0.90224   0.01267  Uiso   1.00
H169   H     0.97612   0.66039   0.92123   0.01267  Uiso   1.00
H170   H     0.17646   0.66460   0.93975   0.01267  Uiso   1.00
H171   H     0.89178   0.61113   0.95816   0.01267  Uiso   1.00
H172   H     0.90775   0.63306   0.97403   0.01267  Uiso   1.00
H173   H     0.16596   0.58104   0.96479   0.01267  Uiso   1.00
H174   H     0.00296   0.56846   0.99712   0.01267  Uiso   1.00
H175   H     0.27111   0.56963   0.99844   0.01267  Uiso   1.00
H176   H     0.43399   0.75385   0.63452   0.01267  Uiso   1.00
H177   H     0.96437   0.80676   0.58792   0.01267  Uiso   1.00
H178   H     0.16033   0.76533   0.60676   0.01267  Uiso   1.00
H179   H     0.39194   0.89713   0.58682   0.01267  Uiso   1.00
H180   H     0.00006   0.93053   0.50208   0.01267  Uiso   1.00
H181   H     0.34454   0.99013   0.51554   0.01267  Uiso   1.00
H182   H     0.45903   0.86436   0.53140   0.01267  Uiso   1.00
H183   H     0.43486   0.80026   0.63611   0.01267  Uiso   1.00
H184   H     0.59491   0.79531   0.55100   0.01267  Uiso   1.00
H185   H     0.61867   0.83184   0.52276   0.01267  Uiso   1.00
H186   H     0.81823   0.81776   0.54585   0.01267  Uiso   1.00
H187   H     0.07824   0.85825   0.61136   0.01267  Uiso   1.00
H188   H     0.09324   0.82131   0.63628   0.01267  Uiso   1.00
H189   H     0.27465   0.84718   0.63596   0.01267  Uiso   1.00
H190   H     0.87499   0.87545   0.52614   0.01267  Uiso   1.00
H191   H     0.09913   0.88268   0.50346   0.01267  Uiso   1.00
H192   H     0.07668   0.85266   0.53929   0.01267  Uiso   1.00
H193   H     0.42147   0.95876   0.56490   0.01267  Uiso   1.00
H194   H     0.15694   0.96485   0.56613   0.01267  Uiso   1.00
H195   H     0.25151   0.93436   0.59480   0.01267  Uiso   1.00
H196   H     0.45126   0.96466   0.49115   0.01267  Uiso   1.00
H197   H     0.67182   0.97623   0.46681   0.01267  Uiso   1.00
H198   H     0.73464   0.92630   0.48210   0.01267  Uiso   1.00
H199   H     0.51471   0.91416   0.50692   0.01267  Uiso   1.00
H200   H     0.62248   0.91050   0.45307   0.01267  Uiso   1.00
H201   H     0.40452   0.89285   0.47763   0.01267  Uiso   1.00
H202   H     0.40805   0.94009   0.41501   0.01267  Uiso   1.00
H203   H     0.35419   0.90224   0.42825   0.01267  Uiso   1.00
H204   H     0.89735   0.92123   0.41838   0.01267  Uiso   1.00
H205   H     0.11621   0.93975   0.39565   0.01267  Uiso   1.00
H206   H     0.84994   0.95816   0.43071   0.01267  Uiso   1.00
H207   H     0.88178   0.97403   0.39291   0.01267  Uiso   1.00
H208   H     0.13075   0.96479   0.45417   0.01267  Uiso   1.00
H209   H     0.00008   0.99712   0.43442   0.01267  Uiso   1.00
H210   H     0.26955   0.99844   0.43193   0.01267  Uiso   1.00
C1     C     0.31889   0.35819   0.35177   0.01267  Uiso   1.00
C2     C     0.45630   0.36792   0.36663   0.01267  Uiso   1.00
C3     C     0.65964   0.36059   0.37103   0.01267  Uiso   1.00
C4     C     0.78088   0.37214   0.38381   0.01267  Uiso   1.00
C5     C     0.70987   0.39163   0.39130   0.01267  Uiso   1.00
C6     C     0.50898   0.39812   0.38780   0.01267  Uiso   1.00
C7     C     0.38486   0.38673   0.37536   0.01267  Uiso   1.00
C8     C     0.19394   0.44087   0.44432   0.01267  Uiso   1.00
C9     C     0.13317   0.43098   0.47304   0.01267  Uiso   1.00
C10    C     0.21716   0.44321   0.48815   0.01267  Uiso   1.00
C11    C     0.35092   0.46802   0.47345   0.01267  Uiso   1.00
C12    C     0.40460   0.47839   0.44446   0.01267  Uiso   1.00
C13    C     0.33913   0.46423   0.43027   0.01267  Uiso   1.00
C14    C     0.43039   0.48418   0.48718   0.01267  Uiso   1.00
C15    C     0.63408   0.49446   0.48279   0.01267  Uiso   1.00
C16    C     0.29817   0.49076   0.50357   0.01267  Uiso   1.00
C17    C     0.84503   0.40466   0.40340   0.01267  Uiso   1.00
C18    C     0.09059   0.42787   0.42922   0.01267  Uiso   1.00
C19    C     0.99359   0.44572   0.40456   0.01267  Uiso   1.00
C20    C     0.87787   0.43459   0.39088   0.01267  Uiso   1.00
C21    C     0.07448   0.39807   0.43992   0.01267  Uiso   1.00
C22    C     0.94734   0.38681   0.42740   0.01267  Uiso   1.00
C23    C     0.80186   0.45485   0.36233   0.01267  Uiso   1.00
C24    C     0.19270   0.37761   0.46401   0.01267  Uiso   1.00
C25    C     0.43319   0.47431   0.40078   0.01267  Uiso   1.00
C26    C     0.16223   0.42873   0.51975   0.01267  Uiso   1.00
C27    C     0.90925   0.51226   0.44665   0.01267  Uiso   1.00
C28    C     0.93109   0.51380   0.41783   0.01267  Uiso   1.00
C29    C     0.07536   0.54128   0.37187   0.01267  Uiso   1.00
C30    C     0.22421   0.56653   0.35305   0.01267  Uiso   1.00
C31    C     0.55242   0.58416   0.35109   0.01267  Uiso   1.00
C32    C     0.62506   0.58726   0.37585   0.01267  Uiso   1.00
C33    C     0.43512   0.56614   0.41926   0.01267  Uiso   1.00
C34    C     0.67066   0.35177   0.29004   0.01267  Uiso   1.00
C35    C     0.82293   0.36663   0.26545   0.01267  Uiso   1.00
C36    C     0.03067   0.37103   0.26838   0.01267  Uiso   1.00
C37    C     0.16469   0.38381   0.24405   0.01267  Uiso   1.00
C38    C     0.10117   0.39130   0.21707   0.01267  Uiso   1.00
C39    C     0.89678   0.38780   0.21408   0.01267  Uiso   1.00
C40    C     0.76022   0.37536   0.23791   0.01267  Uiso   1.00
C41    C     0.63826   0.44432   0.11481   0.01267  Uiso   1.00
C42    C     0.60621   0.47304   0.09598   0.01267  Uiso   1.00
C43    C     0.70531   0.48815   0.06864   0.01267  Uiso   1.00
C44    C     0.82437   0.47345   0.05853   0.01267  Uiso   1.00
C45    C     0.84906   0.44446   0.07715   0.01267  Uiso   1.00
C46    C     0.76940   0.43027   0.10550   0.01267  Uiso   1.00
C47    C     0.91757   0.48718   0.02864   0.01267  Uiso   1.00
C48    C     0.11687   0.48279   0.02275   0.01267  Uiso   1.00
C49    C     0.80174   0.50357   0.00567   0.01267  Uiso   1.00
C50    C     0.24843   0.40340   0.19194   0.01267  Uiso   1.00
C51    C     0.51981   0.42922   0.14291   0.01267  Uiso   1.00
C52    C     0.39815   0.40456   0.14972   0.01267  Uiso   1.00
C53    C     0.26875   0.39088   0.17453   0.01267  Uiso   1.00
C54    C     0.51440   0.43992   0.16201   0.01267  Uiso   1.00
C55    C     0.37474   0.42740   0.18579   0.01267  Uiso   1.00
C56    C     0.16419   0.36233   0.18282   0.01267  Uiso   1.00
C57    C     0.65671   0.46401   0.15838   0.01267  Uiso   1.00
C58    C     0.83397   0.40078   0.12491   0.01267  Uiso   1.00
C59    C     0.68198   0.51975   0.05152   0.01267  Uiso   1.00
C60    C     0.35590   0.44665   0.04109   0.01267  Uiso   1.00
C61    C     0.34892   0.41783   0.06837   0.01267  Uiso   1.00
C62    C     0.44723   0.37187   0.08685   0.01267  Uiso   1.00
C63    C     0.57726   0.35305   0.08042   0.01267  Uiso   1.00
C64    C     0.90351   0.35109   0.06475   0.01267  Uiso   1.00
C65    C     0.00091   0.37585   0.03689   0.01267  Uiso   1.00
C66    C     0.85438   0.41926   0.01460   0.01267  Uiso   1.00
C67    C     0.96070   0.29004   0.35819   0.01267  Uiso   1.00
C68    C     0.08838   0.26545   0.36792   0.01267  Uiso   1.00
C69    C     0.29905   0.26838   0.36059   0.01267  Uiso   1.00
C70    C     0.40874   0.24405   0.37214   0.01267  Uiso   1.00
C71    C     0.31824   0.21707   0.39163   0.01267  Uiso   1.00
C72    C     0.11086   0.21408   0.39812   0.01267  Uiso   1.00
C73    C     0.99813   0.23791   0.38673   0.01267  Uiso   1.00
C74    C     0.75307   0.11481   0.44087   0.01267  Uiso   1.00
C75    C     0.70219   0.09598   0.43098   0.01267  Uiso   1.00
C76    C     0.77395   0.06864   0.44321   0.01267  Uiso   1.00
C77    C     0.88290   0.05853   0.46802   0.01267  Uiso   1.00
C78    C     0.92621   0.07715   0.47839   0.01267  Uiso   1.00
C79    C     0.87490   0.10550   0.46423   0.01267  Uiso   1.00
C80    C     0.94621   0.02864   0.48418   0.01267  Uiso   1.00
C81    C     0.13962   0.02275   0.49446   0.01267  Uiso   1.00
C82    C     0.80741   0.00567   0.49076   0.01267  Uiso   1.00
C83    C     0.44037   0.19194   0.40466   0.01267  Uiso   1.00
C84    C     0.66272   0.14291   0.42787   0.01267  Uiso   1.00
C85    C     0.54787   0.14972   0.44572   0.01267  Uiso   1.00
C86    C     0.44328   0.17453   0.43459   0.01267  Uiso   1.00
C87    C     0.67641   0.16201   0.39807   0.01267  Uiso   1.00
C88    C     0.56053   0.18579   0.38681   0.01267  Uiso   1.00
C89    C     0.34701   0.18282   0.45485   0.01267  Uiso   1.00
C90    C     0.81509   0.15838   0.37761   0.01267  Uiso   1.00
C91    C     0.95888   0.12491   0.47431   0.01267  Uiso   1.00
C92    C     0.73350   0.05152   0.42873   0.01267  Uiso   1.00
C93    C     0.39699   0.04109   0.51226   0.01267  Uiso   1.00
C94    C     0.41729   0.06837   0.51380   0.01267  Uiso   1.00
C95    C     0.53408   0.08685   0.54128   0.01267  Uiso   1.00
C96    C     0.65768   0.08042   0.56653   0.01267  Uiso   1.00
C97    C     0.96826   0.06475   0.58416   0.01267  Uiso   1.00
C98    C     0.03780   0.03689   0.58726   0.01267  Uiso   1.00
C99    C     0.86898   0.01460   0.56614   0.01267  Uiso   1.00
C100   C     0.68111   0.64181   0.64823   0.01267  Uiso   1.00
C101   C     0.54370   0.63208   0.63337   0.01267  Uiso   1.00
C102   C     0.34036   0.63941   0.62897   0.01267  Uiso   1.00
C103   C     0.21912   0.62786   0.61619   0.01267  Uiso   1.00
C104   C     0.29013   0.60837   0.60870   0.01267  Uiso   1.00
C105   C     0.49102   0.60188   0.61220   0.01267  Uiso   1.00
C106   C     0.61514   0.61327   0.62464   0.01267  Uiso   1.00
C107   C     0.80606   0.55913   0.55568   0.01267  Uiso   1.00
C108   C     0.86683   0.56902   0.52696   0.01267  Uiso   1.00
C109   C     0.78284   0.55679   0.51185   0.01267  Uiso   1.00
C110   C     0.64908   0.53198   0.52655   0.01267  Uiso   1.00
C111   C     0.59540   0.52161   0.55554   0.01267  Uiso   1.00
C112   C     0.66087   0.53577   0.56973   0.01267  Uiso   1.00
C113   C     0.56961   0.51582   0.51282   0.01267  Uiso   1.00
C114   C     0.36592   0.50554   0.51721   0.01267  Uiso   1.00
C115   C     0.70183   0.50924   0.49643   0.01267  Uiso   1.00
C116   C     0.15497   0.59534   0.59660   0.01267  Uiso   1.00
C117   C     0.90941   0.57213   0.57078   0.01267  Uiso   1.00
C118   C     0.00641   0.55428   0.59544   0.01267  Uiso   1.00
C119   C     0.12213   0.56541   0.60912   0.01267  Uiso   1.00
C120   C     0.92552   0.60193   0.56008   0.01267  Uiso   1.00
C121   C     0.05266   0.61319   0.57260   0.01267  Uiso   1.00
C122   C     0.19814   0.54515   0.63767   0.01267  Uiso   1.00
C123   C     0.80730   0.62239   0.53599   0.01267  Uiso   1.00
C124   C     0.56681   0.52569   0.59922   0.01267  Uiso   1.00
C125   C     0.83777   0.57127   0.48025   0.01267  Uiso   1.00
C126   C     0.09075   0.48774   0.55335   0.01267  Uiso   1.00
C127   C     0.06891   0.48620   0.58217   0.01267  Uiso   1.00
C128   C     0.92464   0.45872   0.62813   0.01267  Uiso   1.00
C129   C     0.77579   0.43347   0.64695   0.01267  Uiso   1.00
C130   C     0.44758   0.41584   0.64891   0.01267  Uiso   1.00
C131   C     0.37494   0.41274   0.62415   0.01267  Uiso   1.00
C132   C     0.56488   0.43386   0.58074   0.01267  Uiso   1.00
C133   C     0.32934   0.64823   0.70996   0.01267  Uiso   1.00
C134   C     0.17707   0.63337   0.73455   0.01267  Uiso   1.00
C135   C     0.96933   0.62897   0.73162   0.01267  Uiso   1.00
C136   C     0.83531   0.61619   0.75595   0.01267  Uiso   1.00
C137   C     0.89883   0.60870   0.78293   0.01267  Uiso   1.00
C138   C     0.10322   0.61220   0.78592   0.01267  Uiso   1.00
C139   C     0.23978   0.62464   0.76209   0.01267  Uiso   1.00
C140   C     0.36174   0.55568   0.88519   0.01267  Uiso   1.00
C141   C     0.39379   0.52696   0.90402   0.01267  Uiso   1.00
C142   C     0.29469   0.51185   0.93136   0.01267  Uiso   1.00
C143   C     0.17563   0.52655   0.94147   0.01267  Uiso   1.00
C144   C     0.15094   0.55554   0.92285   0.01267  Uiso   1.00
C145   C     0.23060   0.56973   0.89450   0.01267  Uiso   1.00
C146   C     0.08243   0.51282   0.97136   0.01267  Uiso   1.00
C147   C     0.88313   0.51721   0.97725   0.01267  Uiso   1.00
C148   C     0.19826   0.49643   0.99433   0.01267  Uiso   1.00
C149   C     0.75157   0.59660   0.80806   0.01267  Uiso   1.00
C150   C     0.48019   0.57078   0.85709   0.01267  Uiso   1.00
C151   C     0.60185   0.59544   0.85028   0.01267  Uiso   1.00
C152   C     0.73125   0.60912   0.82547   0.01267  Uiso   1.00
C153   C     0.48560   0.56008   0.83799   0.01267  Uiso   1.00
C154   C     0.62526   0.57260   0.81421   0.01267  Uiso   1.00
C155   C     0.83581   0.63767   0.81718   0.01267  Uiso   1.00
C156   C     0.34329   0.53599   0.84162   0.01267  Uiso   1.00
C157   C     0.16603   0.59922   0.87509   0.01267  Uiso   1.00
C158   C     0.31802   0.48025   0.94848   0.01267  Uiso   1.00
C159   C     0.64410   0.55335   0.95891   0.01267  Uiso   1.00
C160   C     0.65108   0.58217   0.93163   0.01267  Uiso   1.00
C161   C     0.55277   0.62813   0.91315   0.01267  Uiso   1.00
C162   C     0.42274   0.64695   0.91958   0.01267  Uiso   1.00
C163   C     0.09649   0.64891   0.93525   0.01267  Uiso   1.00
C164   C     0.99909   0.62415   0.96311   0.01267  Uiso   1.00
C165   C     0.14562   0.58074   0.98540   0.01267  Uiso   1.00
C166   C     0.03930   0.70996   0.64181   0.01267  Uiso   1.00
C167   C     0.91162   0.73455   0.63208   0.01267  Uiso   1.00
C168   C     0.70095   0.73162   0.63941   0.01267  Uiso   1.00
C169   C     0.59126   0.75595   0.62786   0.01267  Uiso   1.00
C170   C     0.68176   0.78293   0.60837   0.01267  Uiso   1.00
C171   C     0.88914   0.78592   0.60188   0.01267  Uiso   1.00
C172   C     0.00187   0.76209   0.61327   0.01267  Uiso   1.00
C173   C     0.24693   0.88519   0.55913   0.01267  Uiso   1.00
C174   C     0.29781   0.90402   0.56902   0.01267  Uiso   1.00
C175   C     0.22605   0.93136   0.55679   0.01267  Uiso   1.00
C176   C     0.11710   0.94147   0.53198   0.01267  Uiso   1.00
C177   C     0.07379   0.92285   0.52161   0.01267  Uiso   1.00
C178   C     0.12510   0.89450   0.53577   0.01267  Uiso   1.00
C179   C     0.05379   0.97136   0.51582   0.01267  Uiso   1.00
C180   C     0.86038   0.97725   0.50554   0.01267  Uiso   1.00
C181   C     0.19259   0.99433   0.50924   0.01267  Uiso   1.00
C182   C     0.55963   0.80806   0.59534   0.01267  Uiso   1.00
C183   C     0.33728   0.85709   0.57213   0.01267  Uiso   1.00
C184   C     0.45213   0.85028   0.55428   0.01267  Uiso   1.00
C185   C     0.55672   0.82547   0.56541   0.01267  Uiso   1.00
C186   C     0.32359   0.83799   0.60193   0.01267  Uiso   1.00
C187   C     0.43947   0.81421   0.61319   0.01267  Uiso   1.00
C188   C     0.65299   0.81718   0.54515   0.01267  Uiso   1.00
C189   C     0.18491   0.84162   0.62239   0.01267  Uiso   1.00
C190   C     0.04112   0.87509   0.52569   0.01267  Uiso   1.00
C191   C     0.26650   0.94848   0.57127   0.01267  Uiso   1.00
C192   C     0.60301   0.95891   0.48774   0.01267  Uiso   1.00
C193   C     0.58271   0.93163   0.48620   0.01267  Uiso   1.00
C194   C     0.46592   0.91315   0.45872   0.01267  Uiso   1.00
C195   C     0.34232   0.91958   0.43347   0.01267  Uiso   1.00
C196   C     0.03174   0.93525   0.41584   0.01267  Uiso   1.00
C197   C     0.96220   0.96311   0.41274   0.01267  Uiso   1.00
C198   C     0.13102   0.98540   0.43386   0.01267  Uiso   1.00
O1     O     0.13501   0.36431   0.34985   0.01267  Uiso   1.00
O2     O     0.38460   0.34426   0.34042   0.01267  Uiso   1.00
O3     O     0.74431   0.34042   0.36544   0.01267  Uiso   1.00
O4     O     0.76913   0.48896   0.46571   0.01267  Uiso   1.00
O5     O     0.07689   0.53591   0.40016   0.01267  Uiso   1.00
O6     O     0.42010   0.55936   0.36181   0.01267  Uiso   1.00
O7     O     0.45908   0.58983   0.39138   0.01267  Uiso   1.00
O8     O     0.48486   0.34985   0.28584   0.01267  Uiso   1.00
O9     O     0.72502   0.34042   0.31532   0.01267  Uiso   1.00
O10    O     0.10975   0.36544   0.29414   0.01267  Uiso   1.00
O11    O     0.23484   0.46571   0.04533   0.01267  Uiso   1.00
O12    O     0.47705   0.40016   0.06393   0.01267  Uiso   1.00
O13    O     0.78191   0.36181   0.07883   0.01267  Uiso   1.00
O14    O     0.85046   0.39138   0.01879   0.01267  Uiso   1.00
O15    O     0.77070   0.28584   0.36431   0.01267  Uiso   1.00
O16    O     0.04034   0.31532   0.34426   0.01267  Uiso   1.00
O17    O     0.40389   0.29414   0.34042   0.01267  Uiso   1.00
O18    O     0.28017   0.04533   0.48896   0.01267  Uiso   1.00
O19    O     0.54098   0.06393   0.53591   0.01267  Uiso   1.00
O20    O     0.86074   0.07883   0.55936   0.01267  Uiso   1.00
O21    O     0.86925   0.01879   0.58983   0.01267  Uiso   1.00
O22    O     0.86499   0.63569   0.65015   0.01267  Uiso   1.00
O23    O     0.61540   0.65574   0.65958   0.01267  Uiso   1.00
O24    O     0.25569   0.65958   0.63456   0.01267  Uiso   1.00
O25    O     0.23087   0.51104   0.53429   0.01267  Uiso   1.00
O26    O     0.92311   0.46409   0.59984   0.01267  Uiso   1.00
O27    O     0.57990   0.44064   0.63819   0.01267  Uiso   1.00
O28    O     0.54092   0.41017   0.60862   0.01267  Uiso   1.00
O29    O     0.51514   0.65015   0.71416   0.01267  Uiso   1.00
O30    O     0.27498   0.65958   0.68468   0.01267  Uiso   1.00
O31    O     0.89025   0.63456   0.70586   0.01267  Uiso   1.00
O32    O     0.76516   0.53429   0.95467   0.01267  Uiso   1.00
O33    O     0.52295   0.59984   0.93607   0.01267  Uiso   1.00
O34    O     0.21809   0.63819   0.92117   0.01267  Uiso   1.00
O35    O     0.14954   0.60862   0.98121   0.01267  Uiso   1.00
O36    O     0.22930   0.71416   0.63569   0.01267  Uiso   1.00
O37    O     0.95966   0.68468   0.65574   0.01267  Uiso   1.00
O38    O     0.59611   0.70586   0.65958   0.01267  Uiso   1.00
O39    O     0.71983   0.95467   0.51104   0.01267  Uiso   1.00
O40    O     0.45902   0.93607   0.46409   0.01267  Uiso   1.00
O41    O     0.13926   0.92117   0.44064   0.01267  Uiso   1.00
O42    O     0.13075   0.98121   0.41017   0.01267  Uiso   1.00
