data_image0
_cell_length_a       12.602
_cell_length_b       15.129
_cell_length_c       18.549
_cell_angle_alpha    90
_cell_angle_beta     96.599
_cell_angle_gamma    90

_symmetry_space_group_name_H-M    "P 1"
_symmetry_int_tables_number       1

loop_
  _symmetry_equiv_pos_as_xyz
  'x, y, z'

loop_
  _atom_site_label
  _atom_site_occupancy
  _atom_site_fract_x
  _atom_site_fract_y
  _atom_site_fract_z
  _atom_site_thermal_displace_type
  _atom_site_B_iso_or_equiv
  _atom_site_type_symbol
  N1       1.0000 0.43016  0.59657  0.83126  Biso   1.000  N
  C1       1.0000 0.39770  0.68017  0.82670  Biso   1.000  C
  H1       1.0000 0.40850  0.71260  0.78560  Biso   1.000  H
  C2       1.0000 0.34830  0.72074  0.88085  Biso   1.000  C
  H2       1.0000 0.32750  0.77960  0.87580  Biso   1.000  H
  C3       1.0000 0.32984  0.67430  0.94232  Biso   1.000  C
  C4       1.0000 0.36530  0.58783  0.94679  Biso   1.000  C
  H3       1.0000 0.35620  0.55410  0.98750  Biso   1.000  H
  C5       1.0000 0.41380  0.55186  0.89130  Biso   1.000  C
  H4       1.0000 0.43650  0.49340  0.89550  Biso   1.000  H
  C6       1.0000 0.27260  0.71105  0.00040  Biso   1.000  C
  H5       1.0000 0.26820  0.67590  0.04110  Biso   1.000  H
  N2       1.0000 0.56984  0.59657  0.66874  Biso   1.000  N
  C7       1.0000 0.60230  0.68017  0.67330  Biso   1.000  C
  H6       1.0000 0.59150  0.71260  0.71440  Biso   1.000  H
  C8       1.0000 0.65170  0.72074  0.61915  Biso   1.000  C
  H7       1.0000 0.67250  0.77960  0.62420  Biso   1.000  H
  C9       1.0000 0.67016  0.67430  0.55768  Biso   1.000  C
  C10      1.0000 0.63470  0.58783  0.55321  Biso   1.000  C
  H8       1.0000 0.64380  0.55410  0.51250  Biso   1.000  H
  C11      1.0000 0.58620  0.55186  0.60870  Biso   1.000  C
  H9       1.0000 0.56350  0.49340  0.60450  Biso   1.000  H
  C12      1.0000 0.72740  0.71105  0.49960  Biso   1.000  C
  H10      1.0000 0.73180  0.67590  0.45890  Biso   1.000  H
  N3       1.0000 0.06984  0.90343  0.16874  Biso   1.000  N
  C13      1.0000 0.10230  0.81983  0.17330  Biso   1.000  C
  H11      1.0000 0.09150  0.78740  0.21440  Biso   1.000  H
  C14      1.0000 0.15170  0.77926  0.11915  Biso   1.000  C
  H12      1.0000 0.17250  0.72040  0.12420  Biso   1.000  H
  C15      1.0000 0.17016  0.82570  0.05768  Biso   1.000  C
  C16      1.0000 0.13470  0.91217  0.05321  Biso   1.000  C
  H13      1.0000 0.14380  0.94590  0.01250  Biso   1.000  H
  C17      1.0000 0.08620  0.94814  0.10870  Biso   1.000  C
  H14      1.0000 0.06350  0.00660  0.10450  Biso   1.000  H
  C18      1.0000 0.22740  0.78895  0.99960  Biso   1.000  C
  H15      1.0000 0.23180  0.82410  0.95890  Biso   1.000  H
  N4       1.0000 0.93016  0.90343  0.33126  Biso   1.000  N
  C19      1.0000 0.89770  0.81983  0.32670  Biso   1.000  C
  H16      1.0000 0.90850  0.78740  0.28560  Biso   1.000  H
  C20      1.0000 0.84830  0.77926  0.38085  Biso   1.000  C
  H17      1.0000 0.82750  0.72040  0.37580  Biso   1.000  H
  C21      1.0000 0.82984  0.82570  0.44232  Biso   1.000  C
  C22      1.0000 0.86530  0.91217  0.44679  Biso   1.000  C
  H18      1.0000 0.85620  0.94590  0.48750  Biso   1.000  H
  C23      1.0000 0.91380  0.94814  0.39130  Biso   1.000  C
  H19      1.0000 0.93650  0.00660  0.39550  Biso   1.000  H
  C24      1.0000 0.77260  0.78895  0.50040  Biso   1.000  C
  H20      1.0000 0.76820  0.82410  0.54110  Biso   1.000  H
  Zn1      1.0000 0.50000  0.53745  0.75000  Biso   1.000  Zn
  Zn2      1.0000 0.00000  0.96255  0.25000  Biso   1.000  Zn
  N5       1.0000 0.93016  0.09657  0.83126  Biso   1.000  N
  C25      1.0000 0.89770  0.18017  0.82670  Biso   1.000  C
  H21      1.0000 0.90850  0.21260  0.78560  Biso   1.000  H
  C26      1.0000 0.84830  0.22074  0.88085  Biso   1.000  C
  H22      1.0000 0.82750  0.27960  0.87580  Biso   1.000  H
  C27      1.0000 0.82984  0.17430  0.94232  Biso   1.000  C
  C28      1.0000 0.86530  0.08783  0.94679  Biso   1.000  C
  H23      1.0000 0.85620  0.05410  0.98750  Biso   1.000  H
  C29      1.0000 0.91380  0.05186  0.89130  Biso   1.000  C
  H24      1.0000 0.93650  0.99340  0.89550  Biso   1.000  H
  C30      1.0000 0.77260  0.21105  0.00040  Biso   1.000  C
  H25      1.0000 0.76820  0.17590  0.04110  Biso   1.000  H
  N6       1.0000 0.06984  0.09657  0.66874  Biso   1.000  N
  C31      1.0000 0.10230  0.18017  0.67330  Biso   1.000  C
  H26      1.0000 0.09150  0.21260  0.71440  Biso   1.000  H
  C32      1.0000 0.15170  0.22074  0.61915  Biso   1.000  C
  H27      1.0000 0.17250  0.27960  0.62420  Biso   1.000  H
  C33      1.0000 0.17016  0.17430  0.55768  Biso   1.000  C
  C34      1.0000 0.13470  0.08783  0.55321  Biso   1.000  C
  H28      1.0000 0.14380  0.05410  0.51250  Biso   1.000  H
  C35      1.0000 0.08620  0.05186  0.60870  Biso   1.000  C
  H29      1.0000 0.06350  0.99340  0.60450  Biso   1.000  H
  C36      1.0000 0.22740  0.21105  0.49960  Biso   1.000  C
  H30      1.0000 0.23180  0.17590  0.45890  Biso   1.000  H
  N7       1.0000 0.56984  0.40343  0.16874  Biso   1.000  N
  C37      1.0000 0.60230  0.31983  0.17330  Biso   1.000  C
  H31      1.0000 0.59150  0.28740  0.21440  Biso   1.000  H
  C38      1.0000 0.65170  0.27926  0.11915  Biso   1.000  C
  H32      1.0000 0.67250  0.22040  0.12420  Biso   1.000  H
  C39      1.0000 0.67016  0.32570  0.05768  Biso   1.000  C
  C40      1.0000 0.63470  0.41217  0.05321  Biso   1.000  C
  H33      1.0000 0.64380  0.44590  0.01250  Biso   1.000  H
  C41      1.0000 0.58620  0.44814  0.10870  Biso   1.000  C
  H34      1.0000 0.56350  0.50660  0.10450  Biso   1.000  H
  C42      1.0000 0.72740  0.28895  0.99960  Biso   1.000  C
  H35      1.0000 0.73180  0.32410  0.95890  Biso   1.000  H
  N8       1.0000 0.43016  0.40343  0.33126  Biso   1.000  N
  C43      1.0000 0.39770  0.31983  0.32670  Biso   1.000  C
  H36      1.0000 0.40850  0.28740  0.28560  Biso   1.000  H
  C44      1.0000 0.34830  0.27926  0.38085  Biso   1.000  C
  H37      1.0000 0.32750  0.22040  0.37580  Biso   1.000  H
  C45      1.0000 0.32984  0.32570  0.44232  Biso   1.000  C
  C46      1.0000 0.36530  0.41217  0.44679  Biso   1.000  C
  H38      1.0000 0.35620  0.44590  0.48750  Biso   1.000  H
  C47      1.0000 0.41380  0.44814  0.39130  Biso   1.000  C
  H39      1.0000 0.43650  0.50660  0.39550  Biso   1.000  H
  C48      1.0000 0.27260  0.28895  0.50040  Biso   1.000  C
  H40      1.0000 0.26820  0.32410  0.54110  Biso   1.000  H
  Zn3      1.0000 0.00000  0.03745  0.75000  Biso   1.000  Zn
  Zn4      1.0000 0.50000  0.46255  0.25000  Biso   1.000  Zn
  N9       1.0000 0.34172  0.53391  0.68019  Biso   1.000  N
  C49      1.0000 0.31780  0.57109  0.61480  Biso   1.000  C
  H41      1.0000 0.36610  0.61110  0.59900  Biso   1.000  H
  C50      1.0000 0.22520  0.55323  0.56942  Biso   1.000  C
  H42      1.0000 0.21340  0.58000  0.52410  Biso   1.000  H
  C51      1.0000 0.15031  0.49571  0.59160  Biso   1.000  C
  C52      1.0000 0.17090  0.46210  0.66175  Biso   1.000  C
  H43      1.0000 0.12070  0.42670  0.68080  Biso   1.000  H
  C53      1.0000 0.26640  0.48170  0.70262  Biso   1.000  C
  H44      1.0000 0.27920  0.45710  0.74870  Biso   1.000  H
  C54      1.0000 0.05001  0.46772  0.54572  Biso   1.000  C
  H45      1.0000 0.02830  0.40920  0.56130  Biso   1.000  H
  C55      1.0000 0.95057  0.53158  0.53836  Biso   1.000  C
  H46      1.0000 0.88760  0.49990  0.55130  Biso   1.000  H
  C56      1.0000 0.96111  0.61899  0.57779  Biso   1.000  C
  C57      1.0000 0.01790  0.68974  0.55497  Biso   1.000  C
  H47      1.0000 0.05430  0.68470  0.51430  Biso   1.000  H
  C58      1.0000 0.02010  0.76859  0.59373  Biso   1.000  C
  H48      1.0000 0.05980  0.81530  0.57830  Biso   1.000  H
  N10      1.0000 0.96910  0.78084  0.65106  Biso   1.000  N
  C59      1.0000 0.91700  0.71160  0.67429  Biso   1.000  C
  H49      1.0000 0.88210  0.71850  0.71550  Biso   1.000  H
  C60      1.0000 0.91190  0.62955  0.64017  Biso   1.000  C
  H50      1.0000 0.87620  0.58260  0.65900  Biso   1.000  H
  N11      1.0000 0.65828  0.46609  0.31981  Biso   1.000  N
  C61      1.0000 0.68220  0.42891  0.38520  Biso   1.000  C
  H51      1.0000 0.63390  0.38890  0.40100  Biso   1.000  H
  C62      1.0000 0.77480  0.44677  0.43058  Biso   1.000  C
  H52      1.0000 0.78660  0.42000  0.47590  Biso   1.000  H
  C63      1.0000 0.84969  0.50429  0.40840  Biso   1.000  C
  C64      1.0000 0.82910  0.53790  0.33825  Biso   1.000  C
  H53      1.0000 0.87930  0.57330  0.31920  Biso   1.000  H
  C65      1.0000 0.73360  0.51830  0.29738  Biso   1.000  C
  H54      1.0000 0.72080  0.54290  0.25130  Biso   1.000  H
  C66      1.0000 0.94999  0.53228  0.45428  Biso   1.000  C
  H55      1.0000 0.97170  0.59080  0.43870  Biso   1.000  H
  C67      1.0000 0.04943  0.46842  0.46164  Biso   1.000  C
  H56      1.0000 0.11240  0.50010  0.44870  Biso   1.000  H
  C68      1.0000 0.03889  0.38101  0.42221  Biso   1.000  C
  C69      1.0000 0.98210  0.31026  0.44503  Biso   1.000  C
  H57      1.0000 0.94570  0.31530  0.48570  Biso   1.000  H
  C70      1.0000 0.97990  0.23141  0.40627  Biso   1.000  C
  H58      1.0000 0.94020  0.18470  0.42170  Biso   1.000  H
  N12      1.0000 0.03090  0.21916  0.34894  Biso   1.000  N
  C71      1.0000 0.08300  0.28840  0.32571  Biso   1.000  C
  H59      1.0000 0.11790  0.28150  0.28450  Biso   1.000  H
  C72      1.0000 0.08810  0.37045  0.35983  Biso   1.000  C
  H60      1.0000 0.12380  0.41740  0.34100  Biso   1.000  H
  N13      1.0000 0.84172  0.03391  0.68019  Biso   1.000  N
  C73      1.0000 0.81780  0.07109  0.61480  Biso   1.000  C
  H61      1.0000 0.86610  0.11110  0.59900  Biso   1.000  H
  C74      1.0000 0.72520  0.05323  0.56942  Biso   1.000  C
  H62      1.0000 0.71340  0.08000  0.52410  Biso   1.000  H
  C75      1.0000 0.65031  0.99571  0.59160  Biso   1.000  C
  C76      1.0000 0.67090  0.96210  0.66175  Biso   1.000  C
  H63      1.0000 0.62070  0.92670  0.68080  Biso   1.000  H
  C77      1.0000 0.76640  0.98170  0.70262  Biso   1.000  C
  H64      1.0000 0.77920  0.95710  0.74870  Biso   1.000  H
  C78      1.0000 0.55001  0.96772  0.54572  Biso   1.000  C
  H65      1.0000 0.52830  0.90920  0.56130  Biso   1.000  H
  C79      1.0000 0.45057  0.03158  0.53836  Biso   1.000  C
  H66      1.0000 0.38760  0.99990  0.55130  Biso   1.000  H
  C80      1.0000 0.46111  0.11899  0.57779  Biso   1.000  C
  C81      1.0000 0.51790  0.18974  0.55497  Biso   1.000  C
  H67      1.0000 0.55430  0.18470  0.51430  Biso   1.000  H
  C82      1.0000 0.52010  0.26859  0.59373  Biso   1.000  C
  H68      1.0000 0.55980  0.31530  0.57830  Biso   1.000  H
  N14      1.0000 0.46910  0.28084  0.65106  Biso   1.000  N
  C83      1.0000 0.41700  0.21160  0.67429  Biso   1.000  C
  H69      1.0000 0.38210  0.21850  0.71550  Biso   1.000  H
  C84      1.0000 0.41190  0.12955  0.64017  Biso   1.000  C
  H70      1.0000 0.37620  0.08260  0.65900  Biso   1.000  H
  N15      1.0000 0.15828  0.96609  0.31981  Biso   1.000  N
  C85      1.0000 0.18220  0.92891  0.38520  Biso   1.000  C
  H71      1.0000 0.13390  0.88890  0.40100  Biso   1.000  H
  C86      1.0000 0.27480  0.94677  0.43058  Biso   1.000  C
  H72      1.0000 0.28660  0.92000  0.47590  Biso   1.000  H
  C87      1.0000 0.34969  0.00429  0.40840  Biso   1.000  C
  C88      1.0000 0.32910  0.03790  0.33825  Biso   1.000  C
  H73      1.0000 0.37930  0.07330  0.31920  Biso   1.000  H
  C89      1.0000 0.23360  0.01830  0.29738  Biso   1.000  C
  H74      1.0000 0.22080  0.04290  0.25130  Biso   1.000  H
  C90      1.0000 0.44999  0.03228  0.45428  Biso   1.000  C
  H75      1.0000 0.47170  0.09080  0.43870  Biso   1.000  H
  C91      1.0000 0.54943  0.96842  0.46164  Biso   1.000  C
  H76      1.0000 0.61240  0.00010  0.44870  Biso   1.000  H
  C92      1.0000 0.53889  0.88101  0.42221  Biso   1.000  C
  C93      1.0000 0.48210  0.81026  0.44503  Biso   1.000  C
  H77      1.0000 0.44570  0.81530  0.48570  Biso   1.000  H
  C94      1.0000 0.47990  0.73141  0.40627  Biso   1.000  C
  H78      1.0000 0.44020  0.68470  0.42170  Biso   1.000  H
  N16      1.0000 0.53090  0.71916  0.34894  Biso   1.000  N
  C95      1.0000 0.58300  0.78840  0.32571  Biso   1.000  C
  H79      1.0000 0.61790  0.78150  0.28450  Biso   1.000  H
  C96      1.0000 0.58810  0.87045  0.35983  Biso   1.000  C
  H80      1.0000 0.62380  0.91740  0.34100  Biso   1.000  H
  N17      1.0000 0.65828  0.53391  0.81981  Biso   1.000  N
  C97      1.0000 0.68220  0.57109  0.88520  Biso   1.000  C
  H81      1.0000 0.63390  0.61110  0.90100  Biso   1.000  H
  C98      1.0000 0.77480  0.55323  0.93058  Biso   1.000  C
  H82      1.0000 0.78660  0.58000  0.97590  Biso   1.000  H
  C99      1.0000 0.84969  0.49571  0.90840  Biso   1.000  C
  C100     1.0000 0.82910  0.46210  0.83825  Biso   1.000  C
  H83      1.0000 0.87930  0.42670  0.81920  Biso   1.000  H
  C101     1.0000 0.73360  0.48170  0.79738  Biso   1.000  C
  H84      1.0000 0.72080  0.45710  0.75130  Biso   1.000  H
  C102     1.0000 0.94999  0.46772  0.95428  Biso   1.000  C
  H85      1.0000 0.97170  0.40920  0.93870  Biso   1.000  H
  C103     1.0000 0.04943  0.53158  0.96164  Biso   1.000  C
  H86      1.0000 0.11240  0.49990  0.94870  Biso   1.000  H
  C104     1.0000 0.03889  0.61899  0.92221  Biso   1.000  C
  C105     1.0000 0.98210  0.68974  0.94503  Biso   1.000  C
  H87      1.0000 0.94570  0.68470  0.98570  Biso   1.000  H
  C106     1.0000 0.97990  0.76859  0.90627  Biso   1.000  C
  H88      1.0000 0.94020  0.81530  0.92170  Biso   1.000  H
  N18      1.0000 0.03090  0.78084  0.84894  Biso   1.000  N
  C107     1.0000 0.08300  0.71160  0.82571  Biso   1.000  C
  H89      1.0000 0.11790  0.71850  0.78450  Biso   1.000  H
  C108     1.0000 0.08810  0.62955  0.85983  Biso   1.000  C
  H90      1.0000 0.12380  0.58260  0.84100  Biso   1.000  H
  N19      1.0000 0.34172  0.46609  0.18019  Biso   1.000  N
  C109     1.0000 0.31780  0.42891  0.11480  Biso   1.000  C
  H91      1.0000 0.36610  0.38890  0.09900  Biso   1.000  H
  C110     1.0000 0.22520  0.44677  0.06942  Biso   1.000  C
  H92      1.0000 0.21340  0.42000  0.02410  Biso   1.000  H
  C111     1.0000 0.15031  0.50429  0.09160  Biso   1.000  C
  C112     1.0000 0.17090  0.53790  0.16175  Biso   1.000  C
  H93      1.0000 0.12070  0.57330  0.18080  Biso   1.000  H
  C113     1.0000 0.26640  0.51830  0.20262  Biso   1.000  C
  H94      1.0000 0.27920  0.54290  0.24870  Biso   1.000  H
  C114     1.0000 0.05001  0.53228  0.04572  Biso   1.000  C
  H95      1.0000 0.02830  0.59080  0.06130  Biso   1.000  H
  C115     1.0000 0.95057  0.46842  0.03836  Biso   1.000  C
  H96      1.0000 0.88760  0.50010  0.05130  Biso   1.000  H
  C116     1.0000 0.96111  0.38101  0.07779  Biso   1.000  C
  C117     1.0000 0.01790  0.31026  0.05497  Biso   1.000  C
  H97      1.0000 0.05430  0.31530  0.01430  Biso   1.000  H
  C118     1.0000 0.02010  0.23141  0.09373  Biso   1.000  C
  H98      1.0000 0.05980  0.18470  0.07830  Biso   1.000  H
  N20      1.0000 0.96910  0.21916  0.15106  Biso   1.000  N
  C119     1.0000 0.91700  0.28840  0.17429  Biso   1.000  C
  H99      1.0000 0.88210  0.28150  0.21550  Biso   1.000  H
  C120     1.0000 0.91190  0.37045  0.14017  Biso   1.000  C
  H100     1.0000 0.87620  0.41740  0.15900  Biso   1.000  H
  N21      1.0000 0.15828  0.03391  0.81981  Biso   1.000  N
  C121     1.0000 0.18220  0.07109  0.88520  Biso   1.000  C
  H101     1.0000 0.13390  0.11110  0.90100  Biso   1.000  H
  C122     1.0000 0.27480  0.05323  0.93058  Biso   1.000  C
  H102     1.0000 0.28660  0.08000  0.97590  Biso   1.000  H
  C123     1.0000 0.34969  0.99571  0.90840  Biso   1.000  C
  C124     1.0000 0.32910  0.96210  0.83825  Biso   1.000  C
  H103     1.0000 0.37930  0.92670  0.81920  Biso   1.000  H
  C125     1.0000 0.23360  0.98170  0.79738  Biso   1.000  C
  H104     1.0000 0.22080  0.95710  0.75130  Biso   1.000  H
  C126     1.0000 0.44999  0.96772  0.95428  Biso   1.000  C
  H105     1.0000 0.47170  0.90920  0.93870  Biso   1.000  H
  C127     1.0000 0.54943  0.03158  0.96164  Biso   1.000  C
  H106     1.0000 0.61240  0.99990  0.94870  Biso   1.000  H
  C128     1.0000 0.53889  0.11899  0.92221  Biso   1.000  C
  C129     1.0000 0.48210  0.18974  0.94503  Biso   1.000  C
  H107     1.0000 0.44570  0.18470  0.98570  Biso   1.000  H
  C130     1.0000 0.47990  0.26859  0.90627  Biso   1.000  C
  H108     1.0000 0.44020  0.31530  0.92170  Biso   1.000  H
  N22      1.0000 0.53090  0.28084  0.84894  Biso   1.000  N
  C131     1.0000 0.58300  0.21160  0.82571  Biso   1.000  C
  H109     1.0000 0.61790  0.21850  0.78450  Biso   1.000  H
  C132     1.0000 0.58810  0.12955  0.85983  Biso   1.000  C
  H110     1.0000 0.62380  0.08260  0.84100  Biso   1.000  H
  N23      1.0000 0.84172  0.96609  0.18019  Biso   1.000  N
  C133     1.0000 0.81780  0.92891  0.11480  Biso   1.000  C
  H111     1.0000 0.86610  0.88890  0.09900  Biso   1.000  H
  C134     1.0000 0.72520  0.94677  0.06942  Biso   1.000  C
  H112     1.0000 0.71340  0.92000  0.02410  Biso   1.000  H
  C135     1.0000 0.65031  0.00429  0.09160  Biso   1.000  C
  C136     1.0000 0.67090  0.03790  0.16175  Biso   1.000  C
  H113     1.0000 0.62070  0.07330  0.18080  Biso   1.000  H
  C137     1.0000 0.76640  0.01830  0.20262  Biso   1.000  C
  H114     1.0000 0.77920  0.04290  0.24870  Biso   1.000  H
  C138     1.0000 0.55001  0.03228  0.04572  Biso   1.000  C
  H115     1.0000 0.52830  0.09080  0.06130  Biso   1.000  H
  C139     1.0000 0.45057  0.96842  0.03836  Biso   1.000  C
  H116     1.0000 0.38760  0.00010  0.05130  Biso   1.000  H
  C140     1.0000 0.46111  0.88101  0.07779  Biso   1.000  C
  C141     1.0000 0.51790  0.81026  0.05497  Biso   1.000  C
  H117     1.0000 0.55430  0.81530  0.01430  Biso   1.000  H
  C142     1.0000 0.52010  0.73141  0.09373  Biso   1.000  C
  H118     1.0000 0.55980  0.68470  0.07830  Biso   1.000  H
  N24      1.0000 0.46910  0.71916  0.15106  Biso   1.000  N
  C143     1.0000 0.41700  0.78840  0.17429  Biso   1.000  C
  H119     1.0000 0.38210  0.78150  0.21550  Biso   1.000  H
  C144     1.0000 0.41190  0.87045  0.14017  Biso   1.000  C
  H120     1.0000 0.37620  0.91740  0.15900  Biso   1.000  H
