data_RAXCAW_charged
_audit_creation_date              2014-07-02
_audit_creation_method            'Materials Studio'
_symmetry_space_group_name_H-M    'P1'
_symmetry_Int_Tables_number       1
_symmetry_cell_setting            triclinic
loop_
_symmetry_equiv_pos_as_xyz
  x,y,z
_cell_length_a                    10.2420
_cell_length_b                    13.1436
_cell_length_c                    13.1436
_cell_angle_alpha                 94.7360
_cell_angle_beta                  109.4880
_cell_angle_gamma                 109.4880
loop_
_atom_site_label
_atom_site_type_symbol
_atom_site_fract_x
_atom_site_fract_y
_atom_site_fract_z
_atom_site_U_iso_or_equiv
_atom_site_adp_type
_atom_site_occupancy
Zn1    Zn    0.52228   0.94023   0.83841   0.01267  Uiso   1.00
Zn2    Zn    0.97772   0.16159   0.05977   0.01267  Uiso   1.00
Zn3    Zn    0.47772   0.05977   0.16159   0.01267  Uiso   1.00
Zn4    Zn    0.02228   0.83841   0.94023   0.01267  Uiso   1.00
P1     P     0.65448   0.16455   0.02211   0.01267  Uiso   1.00
P2     P     0.84552   0.97789   0.83545   0.01267  Uiso   1.00
P3     P     0.34552   0.83545   0.97789   0.01267  Uiso   1.00
P4     P     0.15448   0.02211   0.16455   0.01267  Uiso   1.00
H1     H     0.63630   0.23270   0.81730   0.01267  Uiso   1.00
H2     H     0.72820   0.40070   0.76590   0.01267  Uiso   1.00
H3     H     0.87580   0.56090   0.07570   0.01267  Uiso   1.00
H4     H     0.79810   0.39350   0.13110   0.01267  Uiso   1.00
H5     H     0.86370   0.18270   0.76730   0.01267  Uiso   1.00
H6     H     0.77180   0.23410   0.59930   0.01267  Uiso   1.00
H7     H     0.62420   0.92430   0.43910   0.01267  Uiso   1.00
H8     H     0.70190   0.86890   0.60650   0.01267  Uiso   1.00
H9     H     0.36370   0.76730   0.18270   0.01267  Uiso   1.00
H10    H     0.27180   0.59930   0.23410   0.01267  Uiso   1.00
H11    H     0.12420   0.43910   0.92430   0.01267  Uiso   1.00
H12    H     0.20190   0.60650   0.86890   0.01267  Uiso   1.00
H13    H     0.13630   0.81730   0.23270   0.01267  Uiso   1.00
H14    H     0.22820   0.76590   0.40070   0.01267  Uiso   1.00
H15    H     0.37580   0.07570   0.56090   0.01267  Uiso   1.00
H16    H     0.29810   0.13110   0.39350   0.01267  Uiso   1.00
C1     C     0.71080   0.29500   0.97980   0.01267  Uiso   1.00
C2     C     0.68740   0.29820   0.87100   0.01267  Uiso   1.00
C3     C     0.74030   0.40000   0.83920   0.01267  Uiso   1.00
C4     C     0.80840   0.49600   0.91600   0.01267  Uiso   1.00
C5     C     0.82940   0.49450   0.02350   0.01267  Uiso   1.00
C6     C     0.78160   0.39340   0.05700   0.01267  Uiso   1.00
C7     C     0.86480   0.60530   0.88210   0.01267  Uiso   1.00
C8     C     0.78920   0.02020   0.70500   0.01267  Uiso   1.00
C9     C     0.81260   0.12900   0.70180   0.01267  Uiso   1.00
C10    C     0.75970   0.16080   0.60000   0.01267  Uiso   1.00
C11    C     0.69160   0.08400   0.50400   0.01267  Uiso   1.00
C12    C     0.67060   0.97650   0.50550   0.01267  Uiso   1.00
C13    C     0.71840   0.94300   0.60660   0.01267  Uiso   1.00
C14    C     0.63520   0.11790   0.39470   0.01267  Uiso   1.00
C15    C     0.28920   0.70500   0.02020   0.01267  Uiso   1.00
C16    C     0.31260   0.70180   0.12900   0.01267  Uiso   1.00
C17    C     0.25970   0.60000   0.16080   0.01267  Uiso   1.00
C18    C     0.19160   0.50400   0.08400   0.01267  Uiso   1.00
C19    C     0.17060   0.50550   0.97650   0.01267  Uiso   1.00
C20    C     0.21840   0.60660   0.94300   0.01267  Uiso   1.00
C21    C     0.13520   0.39470   0.11790   0.01267  Uiso   1.00
C22    C     0.21080   0.97980   0.29500   0.01267  Uiso   1.00
C23    C     0.18740   0.87100   0.29820   0.01267  Uiso   1.00
C24    C     0.24030   0.83920   0.40000   0.01267  Uiso   1.00
C25    C     0.30840   0.91600   0.49600   0.01267  Uiso   1.00
C26    C     0.32940   0.02350   0.49450   0.01267  Uiso   1.00
C27    C     0.28160   0.05700   0.39340   0.01267  Uiso   1.00
C28    C     0.36480   0.88210   0.60530   0.01267  Uiso   1.00
O1     O     0.54270   0.08079   0.91801   0.01267  Uiso   1.00
O2     O     0.79190   0.13888   0.07812   0.01267  Uiso   1.00
O3     O     0.58250   0.17951   0.10369   0.01267  Uiso   1.00
O4     O     0.86440   0.60610   0.78770   0.01267  Uiso   1.00
O5     O     0.91460   0.69130   0.95690   0.01267  Uiso   1.00
O6     O     0.95730   0.08199   0.91921   0.01267  Uiso   1.00
O7     O     0.70810   0.92188   0.86112   0.01267  Uiso   1.00
O8     O     0.91750   0.89631   0.82049   0.01267  Uiso   1.00
O9     O     0.63560   0.21230   0.39390   0.01267  Uiso   1.00
O10    O     0.58540   0.04310   0.30870   0.01267  Uiso   1.00
O11    O     0.45730   0.91921   0.08199   0.01267  Uiso   1.00
O12    O     0.20810   0.86112   0.92188   0.01267  Uiso   1.00
O13    O     0.41750   0.82049   0.89631   0.01267  Uiso   1.00
O14    O     0.13560   0.39390   0.21230   0.01267  Uiso   1.00
O15    O     0.08540   0.30870   0.04310   0.01267  Uiso   1.00
O16    O     0.04270   0.91801   0.08079   0.01267  Uiso   1.00
O17    O     0.29190   0.07812   0.13888   0.01267  Uiso   1.00
O18    O     0.08250   0.10369   0.17951   0.01267  Uiso   1.00
O19    O     0.36440   0.78770   0.60610   0.01267  Uiso   1.00
O20    O     0.41460   0.95690   0.69130   0.01267  Uiso   1.00
H17    H     0.17480   0.99090   0.75330   0.01267  Uiso   1.00
H18    H     0.11420   0.08360   0.72180   0.01267  Uiso   1.00
H19    H     0.28010   0.10190   0.73890   0.01267  Uiso   1.00
H20    H     0.32610   0.09780   0.91820   0.01267  Uiso   1.00
H21    H     0.32520   0.24670   0.00910   0.01267  Uiso   1.00
H22    H     0.38580   0.27820   0.91640   0.01267  Uiso   1.00
H23    H     0.21990   0.26110   0.89810   0.01267  Uiso   1.00
H24    H     0.17390   0.08180   0.90220   0.01267  Uiso   1.00
C29    C     0.20040   0.06930   0.76370   0.01267  Uiso   1.00
C30    C     0.29960   0.23630   0.93070   0.01267  Uiso   1.00
N1     N     0.25000   0.11770   0.88230   0.01267  Uiso   1.00
H25    H     0.82520   0.00910   0.24670   0.01267  Uiso   1.00
H26    H     0.88580   0.91640   0.27820   0.01267  Uiso   1.00
H27    H     0.71990   0.89810   0.26110   0.01267  Uiso   1.00
H28    H     0.67390   0.90220   0.08180   0.01267  Uiso   1.00
H29    H     0.67480   0.75330   0.99090   0.01267  Uiso   1.00
H30    H     0.61420   0.72180   0.08360   0.01267  Uiso   1.00
H31    H     0.78010   0.73890   0.10190   0.01267  Uiso   1.00
H32    H     0.82610   0.91820   0.09780   0.01267  Uiso   1.00
C31    C     0.79960   0.93070   0.23630   0.01267  Uiso   1.00
C32    C     0.70040   0.76370   0.06930   0.01267  Uiso   1.00
N2     N     0.75000   0.88230   0.11770   0.01267  Uiso   1.00
