data_image0
_cell_length_a       11.5359
_cell_length_b       15.0948
_cell_length_c       22.6817
_cell_angle_alpha    90
_cell_angle_beta     91.483
_cell_angle_gamma    90

_symmetry_space_group_name_H-M    "P 1"
_symmetry_int_tables_number       1

loop_
  _symmetry_equiv_pos_as_xyz
  'x, y, z'

loop_
  _atom_site_label
  _atom_site_occupancy
  _atom_site_fract_x
  _atom_site_fract_y
  _atom_site_fract_z
  _atom_site_thermal_displace_type
  _atom_site_B_iso_or_equiv
  _atom_site_type_symbol
  Cu1      1.0000 0.88410  0.72140  0.72786  Biso   1.000  Cu
  C1       1.0000 0.05700  0.62800  0.81000  Biso   1.000  C
  H1       1.0000 0.04150  0.66250  0.84300  Biso   1.000  H
  C2       1.0000 0.05700  0.58400  0.72600  Biso   1.000  C
  H2       1.0000 0.04210  0.57580  0.68570  Biso   1.000  H
  C3       1.0000 0.20900  0.45900  0.73930  Biso   1.000  C
  H3       1.0000 0.23440  0.46870  0.69950  Biso   1.000  H
  H4       1.0000 0.27760  0.45820  0.76490  Biso   1.000  H
  C4       1.0000 0.16000  0.37700  0.74130  Biso   1.000  C
  H5       1.0000 0.11600  0.36880  0.77680  Biso   1.000  H
  H6       1.0000 0.21800  0.33030  0.73920  Biso   1.000  H
  C5       1.0000 0.08400  0.37700  0.68900  Biso   1.000  C
  H7       1.0000 0.01160  0.40510  0.69870  Biso   1.000  H
  H8       1.0000 0.12000  0.41250  0.65880  Biso   1.000  H
  C6       1.0000 0.05900  0.28800  0.66430  Biso   1.000  C
  H9       1.0000 0.12990  0.25770  0.65400  Biso   1.000  H
  H10      1.0000 0.01820  0.25150  0.69250  Biso   1.000  H
  C7       1.0000 0.98400  0.30500  0.61020  Biso   1.000  C
  H11      1.0000 0.02910  0.32510  0.57750  Biso   1.000  H
  H12      1.0000 0.92360  0.34790  0.61800  Biso   1.000  H
  C8       1.0000 0.93000  0.21000  0.59760  Biso   1.000  C
  H13      1.0000 0.99390  0.16890  0.59250  Biso   1.000  H
  H14      1.0000 0.88690  0.21270  0.56050  Biso   1.000  H
  C9       1.0000 0.71900  0.87500  0.73030  Biso   1.000  C
  H15      1.0000 0.74050  0.88820  0.76900  Biso   1.000  H
  C10      1.0000 0.70400  0.81500  0.65210  Biso   1.000  C
  H16      1.0000 0.71240  0.77500  0.62110  Biso   1.000  H
  C11      1.0000 0.55400  0.90600  0.59890  Biso   1.000  C
  H17      1.0000 0.49220  0.94200  0.61350  Biso   1.000  H
  H18      1.0000 0.51990  0.85310  0.58100  Biso   1.000  H
  C12      1.0000 0.61700  0.95500  0.55370  Biso   1.000  C
  H19      1.0000 0.68530  0.92150  0.54390  Biso   1.000  H
  H20      1.0000 0.64370  0.01040  0.57140  Biso   1.000  H
  C13      1.0000 0.54900  0.97900  0.49370  Biso   1.000  C
  H21      1.0000 0.59700  0.01660  0.46960  Biso   1.000  H
  H22      1.0000 0.53190  0.92520  0.47180  Biso   1.000  H
  C14      1.0000 0.16100  0.93700  0.59900  Biso   1.000  C
  H23      1.0000 0.15710  0.97860  0.63110  Biso   1.000  H
  H24      1.0000 0.24280  0.92500  0.59360  Biso   1.000  H
  C15      1.0000 0.12600  0.98500  0.54800  Biso   1.000  C
  H25      1.0000 0.13410  0.04800  0.55700  Biso   1.000  H
  H26      1.0000 0.17850  0.97190  0.51680  Biso   1.000  H
  C16      1.0000 0.00700  0.97100  0.52500  Biso   1.000  C
  H27      1.0000 0.95100  0.98520  0.55470  Biso   1.000  H
  H28      1.0000 0.99630  0.90970  0.51320  Biso   1.000  H
  N1       1.0000 0.00700  0.63900  0.75390  Biso   1.000  N
  N2       1.0000 0.13700  0.53500  0.75630  Biso   1.000  N
  N3       1.0000 0.13000  0.56200  0.80870  Biso   1.000  N
  N4       1.0000 0.85100  0.17170  0.64400  Biso   1.000  N
  N5       1.0000 0.87860  0.10570  0.67930  Biso   1.000  N
  C17      1.0000 0.80400  0.10440  0.72200  Biso   1.000  C
  H29      1.0000 0.80380  0.06430  0.75310  Biso   1.000  H
  N6       1.0000 0.73100  0.16950  0.71310  Biso   1.000  N
  C18      1.0000 0.76000  0.21110  0.66500  Biso   1.000  C
  H30      1.0000 0.72190  0.26000  0.64850  Biso   1.000  H
  N7       1.0000 0.76400  0.80720  0.70050  Biso   1.000  N
  N8       1.0000 0.63100  0.87890  0.64840  Biso   1.000  N
  N9       1.0000 0.63800  0.92210  0.69960  Biso   1.000  N
  N10      1.0000 0.98800  0.76710  0.66580  Biso   1.000  N
  C19      1.0000 0.05700  0.83700  0.67240  Biso   1.000  C
  H31      1.0000 0.06810  0.87010  0.70660  Biso   1.000  H
  N11      1.0000 0.10900  0.85040  0.62150  Biso   1.000  N
  N12      1.0000 0.07200  0.78900  0.58340  Biso   1.000  N
  C20      1.0000 0.99600  0.73770  0.61080  Biso   1.000  C
  H32      1.0000 0.95700  0.68960  0.59440  Biso   1.000  H
  Cu2      1.0000 0.61590  0.22140  0.77214  Biso   1.000  Cu
  C21      1.0000 0.44300  0.12800  0.69000  Biso   1.000  C
  H33      1.0000 0.45850  0.16250  0.65700  Biso   1.000  H
  C22      1.0000 0.44300  0.08400  0.77400  Biso   1.000  C
  H34      1.0000 0.45790  0.07580  0.81430  Biso   1.000  H
  C23      1.0000 0.29100  0.95900  0.76070  Biso   1.000  C
  H35      1.0000 0.26560  0.96870  0.80050  Biso   1.000  H
  H36      1.0000 0.22240  0.95820  0.73510  Biso   1.000  H
  C24      1.0000 0.34000  0.87700  0.75870  Biso   1.000  C
  H37      1.0000 0.38400  0.86880  0.72320  Biso   1.000  H
  H38      1.0000 0.28200  0.83030  0.76080  Biso   1.000  H
  C25      1.0000 0.41600  0.87700  0.81100  Biso   1.000  C
  H39      1.0000 0.48840  0.90510  0.80130  Biso   1.000  H
  H40      1.0000 0.38000  0.91250  0.84120  Biso   1.000  H
  C26      1.0000 0.44100  0.78800  0.83570  Biso   1.000  C
  H41      1.0000 0.37010  0.75770  0.84600  Biso   1.000  H
  H42      1.0000 0.48180  0.75150  0.80750  Biso   1.000  H
  C27      1.0000 0.51600  0.80500  0.88980  Biso   1.000  C
  H43      1.0000 0.47090  0.82510  0.92250  Biso   1.000  H
  H44      1.0000 0.57640  0.84790  0.88200  Biso   1.000  H
  C28      1.0000 0.57000  0.71000  0.90240  Biso   1.000  C
  H45      1.0000 0.50610  0.66890  0.90750  Biso   1.000  H
  H46      1.0000 0.61310  0.71270  0.93950  Biso   1.000  H
  C29      1.0000 0.78100  0.37500  0.76970  Biso   1.000  C
  H47      1.0000 0.75950  0.38820  0.73100  Biso   1.000  H
  C30      1.0000 0.79600  0.31500  0.84790  Biso   1.000  C
  H48      1.0000 0.78760  0.27500  0.87890  Biso   1.000  H
  C31      1.0000 0.94600  0.40600  0.90110  Biso   1.000  C
  H49      1.0000 0.00780  0.44200  0.88650  Biso   1.000  H
  H50      1.0000 0.98010  0.35310  0.91900  Biso   1.000  H
  C32      1.0000 0.88300  0.45500  0.94630  Biso   1.000  C
  H51      1.0000 0.81470  0.42150  0.95610  Biso   1.000  H
  H52      1.0000 0.85630  0.51040  0.92860  Biso   1.000  H
  C33      1.0000 0.95100  0.47900  0.00630  Biso   1.000  C
  H53      1.0000 0.90300  0.51660  0.03040  Biso   1.000  H
  H54      1.0000 0.96810  0.42520  0.02820  Biso   1.000  H
  C34      1.0000 0.33900  0.43700  0.90100  Biso   1.000  C
  H55      1.0000 0.34290  0.47860  0.86890  Biso   1.000  H
  H56      1.0000 0.25720  0.42500  0.90640  Biso   1.000  H
  C35      1.0000 0.37400  0.48500  0.95200  Biso   1.000  C
  H57      1.0000 0.36590  0.54800  0.94300  Biso   1.000  H
  H58      1.0000 0.32150  0.47190  0.98320  Biso   1.000  H
  C36      1.0000 0.49300  0.47100  0.97500  Biso   1.000  C
  H59      1.0000 0.54900  0.48520  0.94530  Biso   1.000  H
  H60      1.0000 0.50370  0.40970  0.98680  Biso   1.000  H
  N13      1.0000 0.49300  0.13900  0.74610  Biso   1.000  N
  N14      1.0000 0.36300  0.03500  0.74370  Biso   1.000  N
  N15      1.0000 0.37000  0.06200  0.69130  Biso   1.000  N
  N16      1.0000 0.64900  0.67170  0.85600  Biso   1.000  N
  N17      1.0000 0.62140  0.60570  0.82070  Biso   1.000  N
  C37      1.0000 0.69600  0.60440  0.77800  Biso   1.000  C
  H61      1.0000 0.69620  0.56430  0.74690  Biso   1.000  H
  N18      1.0000 0.76900  0.66950  0.78690  Biso   1.000  N
  C38      1.0000 0.74000  0.71110  0.83500  Biso   1.000  C
  H62      1.0000 0.77810  0.76000  0.85150  Biso   1.000  H
  N19      1.0000 0.73600  0.30720  0.79950  Biso   1.000  N
  N20      1.0000 0.86900  0.37890  0.85160  Biso   1.000  N
  N21      1.0000 0.86200  0.42210  0.80040  Biso   1.000  N
  N22      1.0000 0.51200  0.26710  0.83420  Biso   1.000  N
  C39      1.0000 0.44300  0.33700  0.82760  Biso   1.000  C
  H63      1.0000 0.43190  0.37010  0.79340  Biso   1.000  H
  N23      1.0000 0.39100  0.35040  0.87850  Biso   1.000  N
  N24      1.0000 0.42800  0.28900  0.91660  Biso   1.000  N
  C40      1.0000 0.50400  0.23770  0.88920  Biso   1.000  C
  H64      1.0000 0.54300  0.18960  0.90560  Biso   1.000  H
  Cu3      1.0000 0.11590  0.27860  0.27214  Biso   1.000  Cu
  C41      1.0000 0.94300  0.37200  0.19000  Biso   1.000  C
  H65      1.0000 0.95850  0.33750  0.15700  Biso   1.000  H
  C42      1.0000 0.94300  0.41600  0.27400  Biso   1.000  C
  H66      1.0000 0.95790  0.42420  0.31430  Biso   1.000  H
  C43      1.0000 0.79100  0.54100  0.26070  Biso   1.000  C
  H67      1.0000 0.76560  0.53130  0.30050  Biso   1.000  H
  H68      1.0000 0.72240  0.54180  0.23510  Biso   1.000  H
  C44      1.0000 0.84000  0.62300  0.25870  Biso   1.000  C
  H69      1.0000 0.88400  0.63120  0.22320  Biso   1.000  H
  H70      1.0000 0.78200  0.66970  0.26080  Biso   1.000  H
  C45      1.0000 0.91600  0.62300  0.31100  Biso   1.000  C
  H71      1.0000 0.98840  0.59490  0.30130  Biso   1.000  H
  H72      1.0000 0.88000  0.58750  0.34120  Biso   1.000  H
  C46      1.0000 0.94100  0.71200  0.33570  Biso   1.000  C
  H73      1.0000 0.87010  0.74230  0.34600  Biso   1.000  H
  H74      1.0000 0.98180  0.74850  0.30750  Biso   1.000  H
  C47      1.0000 0.01600  0.69500  0.38980  Biso   1.000  C
  H75      1.0000 0.97090  0.67490  0.42250  Biso   1.000  H
  H76      1.0000 0.07640  0.65210  0.38200  Biso   1.000  H
  C48      1.0000 0.07000  0.79000  0.40240  Biso   1.000  C
  H77      1.0000 0.00610  0.83110  0.40750  Biso   1.000  H
  H78      1.0000 0.11310  0.78730  0.43950  Biso   1.000  H
  C49      1.0000 0.28100  0.12500  0.26970  Biso   1.000  C
  H79      1.0000 0.25950  0.11180  0.23100  Biso   1.000  H
  C50      1.0000 0.29600  0.18500  0.34790  Biso   1.000  C
  H80      1.0000 0.28760  0.22500  0.37890  Biso   1.000  H
  C51      1.0000 0.44600  0.09400  0.40110  Biso   1.000  C
  H81      1.0000 0.50780  0.05800  0.38650  Biso   1.000  H
  H82      1.0000 0.48010  0.14690  0.41900  Biso   1.000  H
  C52      1.0000 0.38300  0.04500  0.44630  Biso   1.000  C
  H83      1.0000 0.31470  0.07850  0.45610  Biso   1.000  H
  H84      1.0000 0.35630  0.98960  0.42860  Biso   1.000  H
  C53      1.0000 0.45100  0.02100  0.50630  Biso   1.000  C
  H85      1.0000 0.40300  0.98340  0.53040  Biso   1.000  H
  H86      1.0000 0.46810  0.07480  0.52820  Biso   1.000  H
  C54      1.0000 0.83900  0.06300  0.40100  Biso   1.000  C
  H87      1.0000 0.84290  0.02140  0.36890  Biso   1.000  H
  H88      1.0000 0.75720  0.07500  0.40640  Biso   1.000  H
  C55      1.0000 0.87400  0.01500  0.45200  Biso   1.000  C
  H89      1.0000 0.86590  0.95200  0.44300  Biso   1.000  H
  H90      1.0000 0.82150  0.02810  0.48320  Biso   1.000  H
  C56      1.0000 0.99300  0.02900  0.47500  Biso   1.000  C
  H91      1.0000 0.04900  0.01480  0.44530  Biso   1.000  H
  H92      1.0000 0.00370  0.09030  0.48680  Biso   1.000  H
  N25      1.0000 0.99300  0.36100  0.24610  Biso   1.000  N
  N26      1.0000 0.86300  0.46500  0.24370  Biso   1.000  N
  N27      1.0000 0.87000  0.43800  0.19130  Biso   1.000  N
  N28      1.0000 0.14900  0.82830  0.35600  Biso   1.000  N
  N29      1.0000 0.12140  0.89430  0.32070  Biso   1.000  N
  C57      1.0000 0.19600  0.89560  0.27800  Biso   1.000  C
  H93      1.0000 0.19620  0.93570  0.24690  Biso   1.000  H
  N30      1.0000 0.26900  0.83050  0.28690  Biso   1.000  N
  C58      1.0000 0.24000  0.78890  0.33500  Biso   1.000  C
  H94      1.0000 0.27810  0.74000  0.35150  Biso   1.000  H
  N31      1.0000 0.23600  0.19280  0.29950  Biso   1.000  N
  N32      1.0000 0.36900  0.12110  0.35160  Biso   1.000  N
  N33      1.0000 0.36200  0.07790  0.30040  Biso   1.000  N
  N34      1.0000 0.01200  0.23290  0.33420  Biso   1.000  N
  C59      1.0000 0.94300  0.16300  0.32760  Biso   1.000  C
  H95      1.0000 0.93190  0.12990  0.29340  Biso   1.000  H
  N35      1.0000 0.89100  0.14960  0.37850  Biso   1.000  N
  N36      1.0000 0.92800  0.21100  0.41660  Biso   1.000  N
  C60      1.0000 0.00400  0.26230  0.38920  Biso   1.000  C
  H96      1.0000 0.04300  0.31040  0.40560  Biso   1.000  H
  Cu4      1.0000 0.38410  0.77860  0.22786  Biso   1.000  Cu
  C61      1.0000 0.55700  0.87200  0.31000  Biso   1.000  C
  H97      1.0000 0.54150  0.83750  0.34300  Biso   1.000  H
  C62      1.0000 0.55700  0.91600  0.22600  Biso   1.000  C
  H98      1.0000 0.54210  0.92420  0.18570  Biso   1.000  H
  C63      1.0000 0.70900  0.04100  0.23930  Biso   1.000  C
  H99      1.0000 0.73440  0.03130  0.19950  Biso   1.000  H
  H100     1.0000 0.77760  0.04180  0.26490  Biso   1.000  H
  C64      1.0000 0.66000  0.12300  0.24130  Biso   1.000  C
  H101     1.0000 0.61600  0.13120  0.27680  Biso   1.000  H
  H102     1.0000 0.71800  0.16970  0.23920  Biso   1.000  H
  C65      1.0000 0.58400  0.12300  0.18900  Biso   1.000  C
  H103     1.0000 0.51160  0.09490  0.19870  Biso   1.000  H
  H104     1.0000 0.62000  0.08750  0.15880  Biso   1.000  H
  C66      1.0000 0.55900  0.21200  0.16430  Biso   1.000  C
  H105     1.0000 0.62990  0.24230  0.15400  Biso   1.000  H
  H106     1.0000 0.51820  0.24850  0.19250  Biso   1.000  H
  C67      1.0000 0.48400  0.19500  0.11020  Biso   1.000  C
  H107     1.0000 0.52910  0.17490  0.07750  Biso   1.000  H
  H108     1.0000 0.42360  0.15210  0.11800  Biso   1.000  H
  C68      1.0000 0.43000  0.29000  0.09760  Biso   1.000  C
  H109     1.0000 0.49390  0.33110  0.09250  Biso   1.000  H
  H110     1.0000 0.38690  0.28730  0.06050  Biso   1.000  H
  C69      1.0000 0.21900  0.62500  0.23030  Biso   1.000  C
  H111     1.0000 0.24050  0.61180  0.26900  Biso   1.000  H
  C70      1.0000 0.20400  0.68500  0.15210  Biso   1.000  C
  H112     1.0000 0.21240  0.72500  0.12110  Biso   1.000  H
  C71      1.0000 0.05400  0.59400  0.09890  Biso   1.000  C
  H113     1.0000 0.99220  0.55800  0.11350  Biso   1.000  H
  H114     1.0000 0.01990  0.64690  0.08100  Biso   1.000  H
  C72      1.0000 0.11700  0.54500  0.05370  Biso   1.000  C
  H115     1.0000 0.18530  0.57850  0.04390  Biso   1.000  H
  H116     1.0000 0.14370  0.48960  0.07140  Biso   1.000  H
  C73      1.0000 0.04900  0.52100  0.99370  Biso   1.000  C
  H117     1.0000 0.09700  0.48340  0.96960  Biso   1.000  H
  H118     1.0000 0.03190  0.57480  0.97180  Biso   1.000  H
  C74      1.0000 0.66100  0.56300  0.09900  Biso   1.000  C
  H119     1.0000 0.65710  0.52140  0.13110  Biso   1.000  H
  H120     1.0000 0.74280  0.57500  0.09360  Biso   1.000  H
  C75      1.0000 0.62600  0.51500  0.04800  Biso   1.000  C
  H121     1.0000 0.63410  0.45200  0.05700  Biso   1.000  H
  H122     1.0000 0.67850  0.52810  0.01680  Biso   1.000  H
  C76      1.0000 0.50700  0.52900  0.02500  Biso   1.000  C
  H123     1.0000 0.45100  0.51480  0.05470  Biso   1.000  H
  H124     1.0000 0.49630  0.59030  0.01320  Biso   1.000  H
  N37      1.0000 0.50700  0.86100  0.25390  Biso   1.000  N
  N38      1.0000 0.63700  0.96500  0.25630  Biso   1.000  N
  N39      1.0000 0.63000  0.93800  0.30870  Biso   1.000  N
  N40      1.0000 0.35100  0.32830  0.14400  Biso   1.000  N
  N41      1.0000 0.37860  0.39430  0.17930  Biso   1.000  N
  C77      1.0000 0.30400  0.39560  0.22200  Biso   1.000  C
  H125     1.0000 0.30380  0.43570  0.25310  Biso   1.000  H
  N42      1.0000 0.23100  0.33050  0.21310  Biso   1.000  N
  C78      1.0000 0.26000  0.28890  0.16500  Biso   1.000  C
  H126     1.0000 0.22190  0.24000  0.14850  Biso   1.000  H
  N43      1.0000 0.26400  0.69280  0.20050  Biso   1.000  N
  N44      1.0000 0.13100  0.62110  0.14840  Biso   1.000  N
  N45      1.0000 0.13800  0.57790  0.19960  Biso   1.000  N
  N46      1.0000 0.48800  0.73290  0.16580  Biso   1.000  N
  C79      1.0000 0.55700  0.66300  0.17240  Biso   1.000  C
  H127     1.0000 0.56810  0.62990  0.20660  Biso   1.000  H
  N47      1.0000 0.60900  0.64960  0.12150  Biso   1.000  N
  N48      1.0000 0.57200  0.71100  0.08340  Biso   1.000  N
  C80      1.0000 0.49600  0.76230  0.11080  Biso   1.000  C
  H128     1.0000 0.45700  0.81040  0.09440  Biso   1.000  H
