data_RAXYOF_clean
_audit_creation_date              2014-07-02
_audit_creation_method            'Materials Studio'
_symmetry_space_group_name_H-M    'P1'
_symmetry_Int_Tables_number       1
_symmetry_cell_setting            triclinic
loop_
_symmetry_equiv_pos_as_xyz
  x,y,z
_cell_length_a                    8.6615
_cell_length_b                    14.5663
_cell_length_c                    15.2390
_cell_angle_alpha                 102.9750
_cell_angle_beta                  90.0000
_cell_angle_gamma                 107.2960
loop_
_atom_site_label
_atom_site_type_symbol
_atom_site_fract_x
_atom_site_fract_y
_atom_site_fract_z
_atom_site_U_iso_or_equiv
_atom_site_adp_type
_atom_site_occupancy
Mn1    Mn    0.49170   0.49348   0.38385   0.01267  Uiso   1.00
Mn2    Mn    0.99822   0.50652   0.11615   0.01267  Uiso   1.00
Mn3    Mn    0.50830   0.50652   0.61615   0.01267  Uiso   1.00
Mn4    Mn    0.00178   0.49348   0.88385   0.01267  Uiso   1.00
H1     H     0.64240   0.72460   0.38110   0.01267  Uiso   1.00
H2     H     0.86750   0.53920   0.41640   0.01267  Uiso   1.00
H3     H     0.11470   0.65580   0.42070   0.01267  Uiso   1.00
H4     H     0.12570   0.81260   0.40670   0.01267  Uiso   1.00
H5     H     0.77960   0.89540   0.38120   0.01267  Uiso   1.00
H6     H     0.20600   0.09160   0.36190   0.01267  Uiso   1.00
H7     H     0.85710   0.17620   0.35230   0.01267  Uiso   1.00
H8     H     0.86380   0.33360   0.34340   0.01267  Uiso   1.00
H9     H     0.11070   0.45240   0.35090   0.01267  Uiso   1.00
H10    H     0.33970   0.26200   0.35890   0.01267  Uiso   1.00
H11    H     0.91780   0.27540   0.11890   0.01267  Uiso   1.00
H12    H     0.32830   0.46080   0.08360   0.01267  Uiso   1.00
H13    H     0.45890   0.34420   0.07930   0.01267  Uiso   1.00
H14    H     0.31310   0.18740   0.09330   0.01267  Uiso   1.00
H15    H     0.88420   0.10460   0.11880   0.01267  Uiso   1.00
H16    H     0.11440   0.90840   0.13810   0.01267  Uiso   1.00
H17    H     0.68090   0.82380   0.14770   0.01267  Uiso   1.00
H18    H     0.53020   0.66640   0.15660   0.01267  Uiso   1.00
H19    H     0.65830   0.54760   0.14910   0.01267  Uiso   1.00
H20    H     0.07770   0.73800   0.14110   0.01267  Uiso   1.00
H21    H     0.35760   0.27540   0.61890   0.01267  Uiso   1.00
H22    H     0.13250   0.46080   0.58360   0.01267  Uiso   1.00
H23    H     0.88530   0.34420   0.57930   0.01267  Uiso   1.00
H24    H     0.87430   0.18740   0.59330   0.01267  Uiso   1.00
H25    H     0.22040   0.10460   0.61880   0.01267  Uiso   1.00
H26    H     0.79400   0.90840   0.63810   0.01267  Uiso   1.00
H27    H     0.14290   0.82380   0.64770   0.01267  Uiso   1.00
H28    H     0.13620   0.66640   0.65660   0.01267  Uiso   1.00
H29    H     0.88930   0.54760   0.64910   0.01267  Uiso   1.00
H30    H     0.66030   0.73800   0.64110   0.01267  Uiso   1.00
H31    H     0.08220   0.72460   0.88110   0.01267  Uiso   1.00
H32    H     0.67170   0.53920   0.91640   0.01267  Uiso   1.00
H33    H     0.54110   0.65580   0.92070   0.01267  Uiso   1.00
H34    H     0.68690   0.81260   0.90670   0.01267  Uiso   1.00
H35    H     0.11580   0.89540   0.88120   0.01267  Uiso   1.00
H36    H     0.88560   0.09160   0.86190   0.01267  Uiso   1.00
H37    H     0.31910   0.17620   0.85230   0.01267  Uiso   1.00
H38    H     0.46980   0.33360   0.84340   0.01267  Uiso   1.00
H39    H     0.34170   0.45240   0.85090   0.01267  Uiso   1.00
H40    H     0.92230   0.26200   0.85890   0.01267  Uiso   1.00
C1     C     0.73903   0.71086   0.38910   0.01267  Uiso   1.00
C2     C     0.87074   0.60148   0.40950   0.01267  Uiso   1.00
C3     C     0.01981   0.67142   0.41280   0.01267  Uiso   1.00
C4     C     0.02633   0.76426   0.40440   0.01267  Uiso   1.00
C5     C     0.88254   0.78528   0.39240   0.01267  Uiso   1.00
C6     C     0.87810   0.88240   0.38310   0.01267  Uiso   1.00
C7     C     0.10741   0.10502   0.36370   0.01267  Uiso   1.00
C8     C     0.09989   0.20258   0.35770   0.01267  Uiso   1.00
C9     C     0.95570   0.22460   0.35280   0.01267  Uiso   1.00
C10    C     0.95942   0.31784   0.34860   0.01267  Uiso   1.00
C11    C     0.10880   0.38860   0.35200   0.01267  Uiso   1.00
C12    C     0.24261   0.27702   0.35800   0.01267  Uiso   1.00
C13    C     0.02817   0.28914   0.11090   0.01267  Uiso   1.00
C14    C     0.26926   0.39852   0.09050   0.01267  Uiso   1.00
C15    C     0.34839   0.32858   0.08720   0.01267  Uiso   1.00
C16    C     0.26207   0.23574   0.09560   0.01267  Uiso   1.00
C17    C     0.09726   0.21472   0.10760   0.01267  Uiso   1.00
C18    C     0.99570   0.11760   0.11690   0.01267  Uiso   1.00
C19    C     0.00239   0.89498   0.13630   0.01267  Uiso   1.00
C20    C     0.89731   0.79742   0.14230   0.01267  Uiso   1.00
C21    C     0.73110   0.77540   0.14720   0.01267  Uiso   1.00
C22    C     0.64158   0.68216   0.15140   0.01267  Uiso   1.00
C23    C     0.72020   0.61140   0.14800   0.01267  Uiso   1.00
C24    C     0.96559   0.72298   0.14200   0.01267  Uiso   1.00
C25    C     0.26097   0.28914   0.61090   0.01267  Uiso   1.00
C26    C     0.12926   0.39852   0.59050   0.01267  Uiso   1.00
C27    C     0.98019   0.32858   0.58720   0.01267  Uiso   1.00
C28    C     0.97367   0.23574   0.59560   0.01267  Uiso   1.00
C29    C     0.11746   0.21472   0.60760   0.01267  Uiso   1.00
C30    C     0.12190   0.11760   0.61690   0.01267  Uiso   1.00
C31    C     0.89259   0.89498   0.63630   0.01267  Uiso   1.00
C32    C     0.90011   0.79742   0.64230   0.01267  Uiso   1.00
C33    C     0.04430   0.77540   0.64720   0.01267  Uiso   1.00
C34    C     0.04058   0.68216   0.65140   0.01267  Uiso   1.00
C35    C     0.89120   0.61140   0.64800   0.01267  Uiso   1.00
C36    C     0.75739   0.72298   0.64200   0.01267  Uiso   1.00
C37    C     0.97183   0.71086   0.88910   0.01267  Uiso   1.00
C38    C     0.73074   0.60148   0.90950   0.01267  Uiso   1.00
C39    C     0.65161   0.67142   0.91280   0.01267  Uiso   1.00
C40    C     0.73793   0.76426   0.90440   0.01267  Uiso   1.00
C41    C     0.90274   0.78528   0.89240   0.01267  Uiso   1.00
C42    C     0.00430   0.88240   0.88310   0.01267  Uiso   1.00
C43    C     0.99761   0.10502   0.86370   0.01267  Uiso   1.00
C44    C     0.10269   0.20258   0.85770   0.01267  Uiso   1.00
C45    C     0.26890   0.22460   0.85280   0.01267  Uiso   1.00
C46    C     0.35842   0.31784   0.84860   0.01267  Uiso   1.00
C47    C     0.27980   0.38860   0.85200   0.01267  Uiso   1.00
C48    C     0.03441   0.27702   0.85800   0.01267  Uiso   1.00
N1     N     0.73138   0.61936   0.39680   0.01267  Uiso   1.00
N2     N     0.01057   0.94934   0.37760   0.01267  Uiso   1.00
N3     N     0.97626   0.03832   0.37160   0.01267  Uiso   1.00
N4     N     0.24872   0.37024   0.35700   0.01267  Uiso   1.00
N5     N     0.58458   0.43016   0.48740   0.01267  Uiso   1.00
N6     N     0.59854   0.34848   0.47590   0.01267  Uiso   1.00
N7     N     0.61102   0.27044   0.46460   0.01267  Uiso   1.00
N8     N     0.59431   0.40322   0.28040   0.01267  Uiso   1.00
N9     N     0.70699   0.41578   0.23750   0.01267  Uiso   1.00
N10    N     0.81920   0.42560   0.19560   0.01267  Uiso   1.00
N11    N     0.11202   0.38064   0.10320   0.01267  Uiso   1.00
N12    N     0.06123   0.05066   0.12240   0.01267  Uiso   1.00
N13    N     0.93794   0.96168   0.12840   0.01267  Uiso   1.00
N14    N     0.87848   0.62976   0.14300   0.01267  Uiso   1.00
N15    N     0.15442   0.56984   0.01260   0.01267  Uiso   1.00
N16    N     0.25006   0.65152   0.02410   0.01267  Uiso   1.00
N17    N     0.34058   0.72956   0.03540   0.01267  Uiso   1.00
N18    N     0.19109   0.59678   0.21960   0.01267  Uiso   1.00
N19    N     0.29121   0.58422   0.26250   0.01267  Uiso   1.00
N20    N     0.39360   0.57440   0.30440   0.01267  Uiso   1.00
N21    N     0.26862   0.38064   0.60320   0.01267  Uiso   1.00
N22    N     0.98943   0.05066   0.62240   0.01267  Uiso   1.00
N23    N     0.02374   0.96168   0.62840   0.01267  Uiso   1.00
N24    N     0.75128   0.62976   0.64300   0.01267  Uiso   1.00
N25    N     0.41542   0.56984   0.51260   0.01267  Uiso   1.00
N26    N     0.40146   0.65152   0.52410   0.01267  Uiso   1.00
N27    N     0.38898   0.72956   0.53540   0.01267  Uiso   1.00
N28    N     0.40569   0.59678   0.71960   0.01267  Uiso   1.00
N29    N     0.29301   0.58422   0.76250   0.01267  Uiso   1.00
N30    N     0.18080   0.57440   0.80440   0.01267  Uiso   1.00
N31    N     0.88798   0.61936   0.89680   0.01267  Uiso   1.00
N32    N     0.93877   0.94934   0.87760   0.01267  Uiso   1.00
N33    N     0.06206   0.03832   0.87160   0.01267  Uiso   1.00
N34    N     0.12152   0.37024   0.85700   0.01267  Uiso   1.00
N35    N     0.84558   0.43016   0.98740   0.01267  Uiso   1.00
N36    N     0.74994   0.34848   0.97590   0.01267  Uiso   1.00
N37    N     0.65942   0.27044   0.96460   0.01267  Uiso   1.00
N38    N     0.80891   0.40322   0.78040   0.01267  Uiso   1.00
N39    N     0.70879   0.41578   0.73750   0.01267  Uiso   1.00
N40    N     0.60640   0.42560   0.69560   0.01267  Uiso   1.00
