data_RAYFEE_clean
_audit_creation_date              2014-07-02
_audit_creation_method            'Materials Studio'
_symmetry_space_group_name_H-M    'P1'
_symmetry_Int_Tables_number       1
_symmetry_cell_setting            triclinic
loop_
_symmetry_equiv_pos_as_xyz
  x,y,z
_cell_length_a                    13.0911
_cell_length_b                    20.3529
_cell_length_c                    20.3529
_cell_angle_alpha                 64.4659
_cell_angle_beta                  77.6196
_cell_angle_gamma                 102.3800
loop_
_atom_site_label
_atom_site_type_symbol
_atom_site_fract_x
_atom_site_fract_y
_atom_site_fract_z
_atom_site_U_iso_or_equiv
_atom_site_adp_type
_atom_site_occupancy
Cu1    Cu    0.87148   0.48435   0.82700   0.01267  Uiso   1.00
Cu2    Cu    0.93185   0.47825   0.61015   0.01267  Uiso   1.00
Cu3    Cu    0.69848   0.82700   0.68865   0.01267  Uiso   1.00
Cu4    Cu    0.54200   0.61015   0.91160   0.01267  Uiso   1.00
Cu5    Cu    0.38713   0.68865   0.48435   0.01267  Uiso   1.00
Cu6    Cu    0.45360   0.91160   0.47825   0.01267  Uiso   1.00
Cu7    Cu    0.12852   0.51565   0.17300   0.01267  Uiso   1.00
Cu8    Cu    0.06815   0.52175   0.38985   0.01267  Uiso   1.00
Cu9    Cu    0.30152   0.17300   0.31135   0.01267  Uiso   1.00
Cu10   Cu    0.45800   0.38985   0.08840   0.01267  Uiso   1.00
Cu11   Cu    0.61287   0.31135   0.51565   0.01267  Uiso   1.00
Cu12   Cu    0.54640   0.08840   0.52175   0.01267  Uiso   1.00
H1     H     0.91490   0.54030   0.94280   0.01267  Uiso   1.00
H2     H     0.06400   0.60690   0.95600   0.01267  Uiso   1.00
H3     H     0.23840   0.65360   0.86620   0.01267  Uiso   1.00
H4     H     0.25490   0.64160   0.75400   0.01267  Uiso   1.00
H5     H     0.29520   0.62190   0.38300   0.01267  Uiso   1.00
H6     H     0.85770   0.94280   0.51690   0.01267  Uiso   1.00
H7     H     0.02000   0.95600   0.43710   0.01267  Uiso   1.00
H8     H     0.10460   0.86620   0.48020   0.01267  Uiso   1.00
H9     H     0.00890   0.75400   0.60440   0.01267  Uiso   1.00
H10    H     0.67820   0.38300   0.99510   0.01267  Uiso   1.00
H11    H     0.37460   0.51690   0.54030   0.01267  Uiso   1.00
H12    H     0.45710   0.43710   0.60690   0.01267  Uiso   1.00
H13    H     0.58480   0.48020   0.65360   0.01267  Uiso   1.00
H14    H     0.61330   0.60440   0.64160   0.01267  Uiso   1.00
H15    H     0.67330   0.99510   0.62190   0.01267  Uiso   1.00
H16    H     0.08510   0.45970   0.05720   0.01267  Uiso   1.00
H17    H     0.93600   0.39310   0.04400   0.01267  Uiso   1.00
H18    H     0.76160   0.34640   0.13380   0.01267  Uiso   1.00
H19    H     0.74510   0.35840   0.24600   0.01267  Uiso   1.00
H20    H     0.70480   0.37810   0.61700   0.01267  Uiso   1.00
H21    H     0.14230   0.05720   0.48310   0.01267  Uiso   1.00
H22    H     0.98000   0.04400   0.56290   0.01267  Uiso   1.00
H23    H     0.89540   0.13380   0.51980   0.01267  Uiso   1.00
H24    H     0.99110   0.24600   0.39560   0.01267  Uiso   1.00
H25    H     0.32180   0.61700   0.00490   0.01267  Uiso   1.00
H26    H     0.62540   0.48310   0.45970   0.01267  Uiso   1.00
H27    H     0.54290   0.56290   0.39310   0.01267  Uiso   1.00
H28    H     0.41520   0.51980   0.34640   0.01267  Uiso   1.00
H29    H     0.38670   0.39560   0.35840   0.01267  Uiso   1.00
H30    H     0.32670   0.00490   0.37810   0.01267  Uiso   1.00
C1     C     0.98470   0.56100   0.90440   0.01267  Uiso   1.00
C2     C     0.07360   0.60000   0.91310   0.01267  Uiso   1.00
C3     C     0.17600   0.62880   0.85970   0.01267  Uiso   1.00
C4     C     0.18610   0.62030   0.79330   0.01267  Uiso   1.00
C5     C     0.09401   0.58101   0.78818   0.01267  Uiso   1.00
C6     C     0.09211   0.56566   0.72453   0.01267  Uiso   1.00
C7     C     0.12223   0.56340   0.62261   0.01267  Uiso   1.00
C8     C     0.15940   0.57254   0.54544   0.01267  Uiso   1.00
C9     C     0.24115   0.60046   0.43161   0.01267  Uiso   1.00
C10    C     0.88910   0.90440   0.53460   0.01267  Uiso   1.00
C11    C     0.98670   0.91310   0.48690   0.01267  Uiso   1.00
C12    C     0.03570   0.85970   0.51150   0.01267  Uiso   1.00
C13    C     0.97940   0.79330   0.58640   0.01267  Uiso   1.00
C14    C     0.88219   0.78818   0.63081   0.01267  Uiso   1.00
C15    C     0.81664   0.72453   0.70981   0.01267  Uiso   1.00
C16    C     0.74484   0.62261   0.81399   0.01267  Uiso   1.00
C17    C     0.70484   0.54544   0.88202   0.01267  Uiso   1.00
C18    C     0.67276   0.43161   0.96793   0.01267  Uiso   1.00
C19    C     0.42370   0.53460   0.56100   0.01267  Uiso   1.00
C20    C     0.47360   0.48690   0.60000   0.01267  Uiso   1.00
C21    C     0.54720   0.51150   0.62880   0.01267  Uiso   1.00
C22    C     0.56580   0.58640   0.62030   0.01267  Uiso   1.00
C23    C     0.51300   0.63081   0.58101   0.01267  Uiso   1.00
C24    C     0.52645   0.70981   0.56566   0.01267  Uiso   1.00
C25    C     0.55883   0.81399   0.56340   0.01267  Uiso   1.00
C26    C     0.58686   0.88202   0.57254   0.01267  Uiso   1.00
C27    C     0.64069   0.96793   0.60046   0.01267  Uiso   1.00
C28    C     0.01530   0.43900   0.09560   0.01267  Uiso   1.00
C29    C     0.92640   0.40000   0.08690   0.01267  Uiso   1.00
C30    C     0.82400   0.37120   0.14030   0.01267  Uiso   1.00
C31    C     0.81390   0.37970   0.20670   0.01267  Uiso   1.00
C32    C     0.90599   0.41899   0.21182   0.01267  Uiso   1.00
C33    C     0.90789   0.43434   0.27547   0.01267  Uiso   1.00
C34    C     0.87777   0.43660   0.37739   0.01267  Uiso   1.00
C35    C     0.84060   0.42746   0.45456   0.01267  Uiso   1.00
C36    C     0.75885   0.39954   0.56839   0.01267  Uiso   1.00
C37    C     0.11090   0.09560   0.46540   0.01267  Uiso   1.00
C38    C     0.01330   0.08690   0.51310   0.01267  Uiso   1.00
C39    C     0.96430   0.14030   0.48850   0.01267  Uiso   1.00
C40    C     0.02060   0.20670   0.41360   0.01267  Uiso   1.00
C41    C     0.11781   0.21182   0.36919   0.01267  Uiso   1.00
C42    C     0.18336   0.27547   0.29019   0.01267  Uiso   1.00
C43    C     0.25516   0.37739   0.18601   0.01267  Uiso   1.00
C44    C     0.29516   0.45456   0.11798   0.01267  Uiso   1.00
C45    C     0.32724   0.56839   0.03207   0.01267  Uiso   1.00
C46    C     0.57630   0.46540   0.43900   0.01267  Uiso   1.00
C47    C     0.52640   0.51310   0.40000   0.01267  Uiso   1.00
C48    C     0.45280   0.48850   0.37120   0.01267  Uiso   1.00
C49    C     0.43420   0.41360   0.37970   0.01267  Uiso   1.00
C50    C     0.48700   0.36919   0.41899   0.01267  Uiso   1.00
C51    C     0.47355   0.29019   0.43434   0.01267  Uiso   1.00
C52    C     0.44117   0.18601   0.43660   0.01267  Uiso   1.00
C53    C     0.41314   0.11798   0.42746   0.01267  Uiso   1.00
C54    C     0.35931   0.03207   0.39954   0.01267  Uiso   1.00
S1     S     0.72130   0.42732   0.75332   0.01267  Uiso   1.00
S2     S     0.47462   0.75332   0.81936   0.01267  Uiso   1.00
S3     S     0.29398   0.81936   0.42732   0.01267  Uiso   1.00
S4     S     0.27870   0.57268   0.24668   0.01267  Uiso   1.00
S5     S     0.52538   0.24668   0.18064   0.01267  Uiso   1.00
S6     S     0.70602   0.18064   0.57268   0.01267  Uiso   1.00
N1     N     0.99305   0.55101   0.84236   0.01267  Uiso   1.00
N2     N     0.99714   0.52077   0.73115   0.01267  Uiso   1.00
N3     N     0.01542   0.51888   0.66452   0.01267  Uiso   1.00
N4     N     0.17576   0.59385   0.65687   0.01267  Uiso   1.00
N5     N     0.08421   0.53741   0.52648   0.01267  Uiso   1.00
N6     N     0.13751   0.55465   0.45222   0.01267  Uiso   1.00
N7     N     0.25927   0.61218   0.48887   0.01267  Uiso   1.00
N8     N     0.83541   0.84236   0.60663   0.01267  Uiso   1.00
N9     N     0.72829   0.73115   0.74808   0.01267  Uiso   1.00
N10    N     0.67994   0.66452   0.81660   0.01267  Uiso   1.00
N11    N     0.83263   0.65687   0.74928   0.01267  Uiso   1.00
N12    N     0.61069   0.52648   0.93611   0.01267  Uiso   1.00
N13    N     0.58973   0.45222   0.99313   0.01267  Uiso   1.00
N14    N     0.74814   0.48887   0.89895   0.01267  Uiso   1.00
N15    N     0.44204   0.60663   0.55101   0.01267  Uiso   1.00
N16    N     0.47637   0.74808   0.52077   0.01267  Uiso   1.00
N17    N     0.49654   0.81660   0.51888   0.01267  Uiso   1.00
N18    N     0.58191   0.74928   0.59385   0.01267  Uiso   1.00
N19    N     0.54680   0.93611   0.53741   0.01267  Uiso   1.00
N20    N     0.58286   0.99313   0.55465   0.01267  Uiso   1.00
N21    N     0.64709   0.89895   0.61218   0.01267  Uiso   1.00
N22    N     0.00695   0.44899   0.15764   0.01267  Uiso   1.00
N23    N     0.00286   0.47923   0.26885   0.01267  Uiso   1.00
N24    N     0.98458   0.48112   0.33548   0.01267  Uiso   1.00
N25    N     0.82424   0.40615   0.34313   0.01267  Uiso   1.00
N26    N     0.91579   0.46259   0.47352   0.01267  Uiso   1.00
N27    N     0.86249   0.44535   0.54778   0.01267  Uiso   1.00
N28    N     0.74073   0.38782   0.51113   0.01267  Uiso   1.00
N29    N     0.16459   0.15764   0.39337   0.01267  Uiso   1.00
N30    N     0.27171   0.26885   0.25192   0.01267  Uiso   1.00
N31    N     0.32006   0.33548   0.18340   0.01267  Uiso   1.00
N32    N     0.16737   0.34313   0.25072   0.01267  Uiso   1.00
N33    N     0.38931   0.47352   0.06389   0.01267  Uiso   1.00
N34    N     0.41027   0.54778   0.00687   0.01267  Uiso   1.00
N35    N     0.25186   0.51113   0.10105   0.01267  Uiso   1.00
N36    N     0.55796   0.39337   0.44899   0.01267  Uiso   1.00
N37    N     0.52363   0.25192   0.47923   0.01267  Uiso   1.00
N38    N     0.50346   0.18340   0.48112   0.01267  Uiso   1.00
N39    N     0.41809   0.25072   0.40615   0.01267  Uiso   1.00
N40    N     0.45320   0.06389   0.46259   0.01267  Uiso   1.00
N41    N     0.41714   0.00687   0.44535   0.01267  Uiso   1.00
N42    N     0.35291   0.10105   0.38782   0.01267  Uiso   1.00
O1     O     0.76684   0.40879   0.81657   0.01267  Uiso   1.00
O2     O     0.73200   0.50800   0.71820   0.01267  Uiso   1.00
O3     O     0.60940   0.37680   0.77900   0.01267  Uiso   1.00
O4     O     0.79179   0.41359   0.69612   0.01267  Uiso   1.00
O5     O     0.58341   0.81657   0.77464   0.01267  Uiso   1.00
O6     O     0.45020   0.71820   0.77380   0.01267  Uiso   1.00
O7     O     0.38840   0.77900   0.84420   0.01267  Uiso   1.00
O8     O     0.48791   0.69612   0.89029   0.01267  Uiso   1.00
O9     O     0.35805   0.77464   0.40879   0.01267  Uiso   1.00
O10    O     0.22400   0.77380   0.50800   0.01267  Uiso   1.00
O11    O     0.23260   0.84420   0.37680   0.01267  Uiso   1.00
O12    O     0.37820   0.89029   0.41359   0.01267  Uiso   1.00
O13    O     0.23316   0.59121   0.18343   0.01267  Uiso   1.00
O14    O     0.26800   0.49200   0.28180   0.01267  Uiso   1.00
O15    O     0.39060   0.62320   0.22100   0.01267  Uiso   1.00
O16    O     0.20821   0.58641   0.30388   0.01267  Uiso   1.00
O17    O     0.41659   0.18343   0.22536   0.01267  Uiso   1.00
O18    O     0.54980   0.28180   0.22620   0.01267  Uiso   1.00
O19    O     0.61160   0.22100   0.15580   0.01267  Uiso   1.00
O20    O     0.51209   0.30388   0.10971   0.01267  Uiso   1.00
O21    O     0.64195   0.22536   0.59121   0.01267  Uiso   1.00
O22    O     0.77600   0.22620   0.49200   0.01267  Uiso   1.00
O23    O     0.76740   0.15580   0.62320   0.01267  Uiso   1.00
O24    O     0.62180   0.10971   0.58641   0.01267  Uiso   1.00
