data_RAYLAG_clean
_audit_creation_date              2014-07-02
_audit_creation_method            'Materials Studio'
_symmetry_space_group_name_H-M    'P1'
_symmetry_Int_Tables_number       1
_symmetry_cell_setting            triclinic
loop_
_symmetry_equiv_pos_as_xyz
  x,y,z
_cell_length_a                    16.5764
_cell_length_b                    16.5764
_cell_length_c                    25.2504
_cell_angle_alpha                 90.0000
_cell_angle_beta                  90.0000
_cell_angle_gamma                 120.0000
loop_
_atom_site_label
_atom_site_type_symbol
_atom_site_fract_x
_atom_site_fract_y
_atom_site_fract_z
_atom_site_U_iso_or_equiv
_atom_site_adp_type
_atom_site_occupancy
Zn1    Zn    0.71402   0.28597   0.00000   0.01267  Uiso   1.00
Zn2    Zn    0.57195   0.28597   0.66667   0.01267  Uiso   1.00
Zn3    Zn    0.71402   0.42804   0.33333   0.01267  Uiso   1.00
Zn4    Zn    0.28598   0.71403   0.00000   0.01267  Uiso   1.00
Zn5    Zn    0.42805   0.71403   0.66667   0.01267  Uiso   1.00
Zn6    Zn    0.28598   0.57196   0.33333   0.01267  Uiso   1.00
H1     H     0.82040   0.59460   0.91080   0.01267  Uiso   1.00
H2     H     0.64170   0.09910   0.05310   0.01267  Uiso   1.00
H3     H     0.58300   0.94450   0.03150   0.01267  Uiso   1.00
H4     H     0.63670   0.02170   0.87950   0.01267  Uiso   1.00
H5     H     0.68230   0.16980   0.90580   0.01267  Uiso   1.00
H6     H     0.48520   0.69610   0.95820   0.01267  Uiso   1.00
H7     H     0.43950   0.54130   0.95200   0.01267  Uiso   1.00
H8     H     0.57420   0.58730   0.82350   0.01267  Uiso   1.00
H9     H     0.59860   0.73400   0.82350   0.01267  Uiso   1.00
H10    H     0.54520   0.83280   0.96670   0.01267  Uiso   1.00
H11    H     0.86030   0.73830   0.80440   0.01267  Uiso   1.00
H12    H     0.77420   0.17960   0.57747   0.01267  Uiso   1.00
H13    H     0.45740   0.35830   0.71977   0.01267  Uiso   1.00
H14    H     0.36150   0.41700   0.69817   0.01267  Uiso   1.00
H15    H     0.38500   0.36330   0.54617   0.01267  Uiso   1.00
H16    H     0.48750   0.31770   0.57247   0.01267  Uiso   1.00
H17    H     0.21090   0.51480   0.62487   0.01267  Uiso   1.00
H18    H     0.10180   0.56050   0.61867   0.01267  Uiso   1.00
H19    H     0.01310   0.42580   0.49017   0.01267  Uiso   1.00
H20    H     0.13540   0.40140   0.49017   0.01267  Uiso   1.00
H21    H     0.28760   0.45480   0.63337   0.01267  Uiso   1.00
H22    H     0.87800   0.13970   0.47107   0.01267  Uiso   1.00
H23    H     0.40540   0.22580   0.24413   0.01267  Uiso   1.00
H24    H     0.90090   0.54260   0.38643   0.01267  Uiso   1.00
H25    H     0.05550   0.63850   0.36483   0.01267  Uiso   1.00
H26    H     0.97830   0.61500   0.21283   0.01267  Uiso   1.00
H27    H     0.83020   0.51250   0.23913   0.01267  Uiso   1.00
H28    H     0.30390   0.78910   0.29153   0.01267  Uiso   1.00
H29    H     0.45870   0.89820   0.28533   0.01267  Uiso   1.00
H30    H     0.41270   0.98690   0.15683   0.01267  Uiso   1.00
H31    H     0.26600   0.86460   0.15683   0.01267  Uiso   1.00
H32    H     0.16720   0.71240   0.30003   0.01267  Uiso   1.00
H33    H     0.26170   0.12200   0.13773   0.01267  Uiso   1.00
H34    H     0.17960   0.40540   0.91080   0.01267  Uiso   1.00
H35    H     0.35830   0.90090   0.05310   0.01267  Uiso   1.00
H36    H     0.41700   0.05550   0.03150   0.01267  Uiso   1.00
H37    H     0.36330   0.97830   0.87950   0.01267  Uiso   1.00
H38    H     0.31770   0.83020   0.90580   0.01267  Uiso   1.00
H39    H     0.51480   0.30390   0.95820   0.01267  Uiso   1.00
H40    H     0.56050   0.45870   0.95200   0.01267  Uiso   1.00
H41    H     0.42580   0.41270   0.82350   0.01267  Uiso   1.00
H42    H     0.40140   0.26600   0.82350   0.01267  Uiso   1.00
H43    H     0.45480   0.16720   0.96670   0.01267  Uiso   1.00
H44    H     0.13970   0.26170   0.80440   0.01267  Uiso   1.00
H45    H     0.22580   0.82040   0.57747   0.01267  Uiso   1.00
H46    H     0.54260   0.64170   0.71977   0.01267  Uiso   1.00
H47    H     0.63850   0.58300   0.69817   0.01267  Uiso   1.00
H48    H     0.61500   0.63670   0.54617   0.01267  Uiso   1.00
H49    H     0.51250   0.68230   0.57247   0.01267  Uiso   1.00
H50    H     0.78910   0.48520   0.62487   0.01267  Uiso   1.00
H51    H     0.89820   0.43950   0.61867   0.01267  Uiso   1.00
H52    H     0.98690   0.57420   0.49017   0.01267  Uiso   1.00
H53    H     0.86460   0.59860   0.49017   0.01267  Uiso   1.00
H54    H     0.71240   0.54520   0.63337   0.01267  Uiso   1.00
H55    H     0.12200   0.86030   0.47107   0.01267  Uiso   1.00
H56    H     0.59460   0.77420   0.24413   0.01267  Uiso   1.00
H57    H     0.09910   0.45740   0.38643   0.01267  Uiso   1.00
H58    H     0.94450   0.36150   0.36483   0.01267  Uiso   1.00
H59    H     0.02170   0.38500   0.21283   0.01267  Uiso   1.00
H60    H     0.16980   0.48750   0.23913   0.01267  Uiso   1.00
H61    H     0.69610   0.21090   0.29153   0.01267  Uiso   1.00
H62    H     0.54130   0.10180   0.28533   0.01267  Uiso   1.00
H63    H     0.58730   0.01310   0.15683   0.01267  Uiso   1.00
H64    H     0.73400   0.13540   0.15683   0.01267  Uiso   1.00
H65    H     0.83280   0.28760   0.30003   0.01267  Uiso   1.00
H66    H     0.73830   0.87800   0.13773   0.01267  Uiso   1.00
H67    H     0.22580   0.40540   0.75587   0.01267  Uiso   1.00
H68    H     0.54260   0.90090   0.61357   0.01267  Uiso   1.00
H69    H     0.63850   0.05550   0.63517   0.01267  Uiso   1.00
H70    H     0.61500   0.97830   0.78717   0.01267  Uiso   1.00
H71    H     0.51250   0.83020   0.76087   0.01267  Uiso   1.00
H72    H     0.78910   0.30390   0.70847   0.01267  Uiso   1.00
H73    H     0.89820   0.45870   0.71467   0.01267  Uiso   1.00
H74    H     0.98690   0.41270   0.84317   0.01267  Uiso   1.00
H75    H     0.86460   0.26600   0.84317   0.01267  Uiso   1.00
H76    H     0.71240   0.16720   0.69997   0.01267  Uiso   1.00
H77    H     0.12200   0.26170   0.86227   0.01267  Uiso   1.00
H78    H     0.59460   0.82040   0.08920   0.01267  Uiso   1.00
H79    H     0.09910   0.64170   0.94690   0.01267  Uiso   1.00
H80    H     0.94450   0.58300   0.96850   0.01267  Uiso   1.00
H81    H     0.02170   0.63670   0.12050   0.01267  Uiso   1.00
H82    H     0.16980   0.68230   0.09420   0.01267  Uiso   1.00
H83    H     0.69610   0.48520   0.04180   0.01267  Uiso   1.00
H84    H     0.54130   0.43950   0.04800   0.01267  Uiso   1.00
H85    H     0.58730   0.57420   0.17650   0.01267  Uiso   1.00
H86    H     0.73400   0.59860   0.17650   0.01267  Uiso   1.00
H87    H     0.83280   0.54520   0.03330   0.01267  Uiso   1.00
H88    H     0.73830   0.86030   0.19560   0.01267  Uiso   1.00
H89    H     0.17960   0.77420   0.42253   0.01267  Uiso   1.00
H90    H     0.35830   0.45740   0.28023   0.01267  Uiso   1.00
H91    H     0.41700   0.36150   0.30183   0.01267  Uiso   1.00
H92    H     0.36330   0.38500   0.45383   0.01267  Uiso   1.00
H93    H     0.31770   0.48750   0.42753   0.01267  Uiso   1.00
H94    H     0.51480   0.21090   0.37513   0.01267  Uiso   1.00
H95    H     0.56050   0.10180   0.38133   0.01267  Uiso   1.00
H96    H     0.42580   0.01310   0.50983   0.01267  Uiso   1.00
H97    H     0.40140   0.13540   0.50983   0.01267  Uiso   1.00
H98    H     0.45480   0.28760   0.36663   0.01267  Uiso   1.00
H99    H     0.13970   0.87800   0.52893   0.01267  Uiso   1.00
H100   H     0.77420   0.59460   0.75587   0.01267  Uiso   1.00
H101   H     0.45740   0.09910   0.61357   0.01267  Uiso   1.00
H102   H     0.36150   0.94450   0.63517   0.01267  Uiso   1.00
H103   H     0.38500   0.02170   0.78717   0.01267  Uiso   1.00
H104   H     0.48750   0.16980   0.76087   0.01267  Uiso   1.00
H105   H     0.21090   0.69610   0.70847   0.01267  Uiso   1.00
H106   H     0.10180   0.54130   0.71467   0.01267  Uiso   1.00
H107   H     0.01310   0.58730   0.84317   0.01267  Uiso   1.00
H108   H     0.13540   0.73400   0.84317   0.01267  Uiso   1.00
H109   H     0.28760   0.83280   0.69997   0.01267  Uiso   1.00
H110   H     0.87800   0.73830   0.86227   0.01267  Uiso   1.00
H111   H     0.40540   0.17960   0.08920   0.01267  Uiso   1.00
H112   H     0.90090   0.35830   0.94690   0.01267  Uiso   1.00
H113   H     0.05550   0.41700   0.96850   0.01267  Uiso   1.00
H114   H     0.97830   0.36330   0.12050   0.01267  Uiso   1.00
H115   H     0.83020   0.31770   0.09420   0.01267  Uiso   1.00
H116   H     0.30390   0.51480   0.04180   0.01267  Uiso   1.00
H117   H     0.45870   0.56050   0.04800   0.01267  Uiso   1.00
H118   H     0.41270   0.42580   0.17650   0.01267  Uiso   1.00
H119   H     0.26600   0.40140   0.17650   0.01267  Uiso   1.00
H120   H     0.16720   0.45480   0.03330   0.01267  Uiso   1.00
H121   H     0.26170   0.13970   0.19560   0.01267  Uiso   1.00
H122   H     0.82040   0.22580   0.42253   0.01267  Uiso   1.00
H123   H     0.64170   0.54260   0.28023   0.01267  Uiso   1.00
H124   H     0.58300   0.63850   0.30183   0.01267  Uiso   1.00
H125   H     0.63670   0.61500   0.45383   0.01267  Uiso   1.00
H126   H     0.68230   0.51250   0.42753   0.01267  Uiso   1.00
H127   H     0.48520   0.78910   0.37513   0.01267  Uiso   1.00
H128   H     0.43950   0.89820   0.38133   0.01267  Uiso   1.00
H129   H     0.57420   0.98690   0.50983   0.01267  Uiso   1.00
H130   H     0.59860   0.86460   0.50983   0.01267  Uiso   1.00
H131   H     0.54520   0.71240   0.36663   0.01267  Uiso   1.00
H132   H     0.86030   0.12200   0.52893   0.01267  Uiso   1.00
H133   H     0.67640   0.35280   0.83333   0.01267  Uiso   1.00
H134   H     0.67640   0.32360   0.50000   0.01267  Uiso   1.00
H135   H     0.64720   0.32360   0.16667   0.01267  Uiso   1.00
H136   H     0.32360   0.64720   0.83333   0.01267  Uiso   1.00
H137   H     0.32360   0.67640   0.50000   0.01267  Uiso   1.00
H138   H     0.35280   0.67640   0.16667   0.01267  Uiso   1.00
C1     C     0.74150   0.41487   0.93037   0.01267  Uiso   1.00
C2     C     0.74906   0.46504   0.87920   0.01267  Uiso   1.00
C3     C     0.79572   0.56233   0.87940   0.01267  Uiso   1.00
C4     C     0.63841   0.08286   0.01760   0.01267  Uiso   1.00
C5     C     0.60486   0.98924   0.00485   0.01267  Uiso   1.00
C6     C     0.60423   0.96353   0.95325   0.01267  Uiso   1.00
C7     C     0.63526   0.03472   0.91521   0.01267  Uiso   1.00
C8     C     0.66341   0.12381   0.93162   0.01267  Uiso   1.00
C9     C     0.58824   0.83675   0.89703   0.01267  Uiso   1.00
C10    C     0.55586   0.73459   0.89482   0.01267  Uiso   1.00
C11    C     0.50580   0.67587   0.92962   0.01267  Uiso   1.00
C12    C     0.48030   0.58210   0.92674   0.01267  Uiso   1.00
C13    C     0.51162   0.54890   0.88969   0.01267  Uiso   1.00
C14    C     0.55450   0.60720   0.85264   0.01267  Uiso   1.00
C15    C     0.57290   0.69740   0.85353   0.01267  Uiso   1.00
C16    C     0.67337   0.25850   0.59704   0.01267  Uiso   1.00
C17    C     0.71598   0.25094   0.54587   0.01267  Uiso   1.00
C18    C     0.76661   0.20428   0.54607   0.01267  Uiso   1.00
C19    C     0.44445   0.36159   0.68427   0.01267  Uiso   1.00
C20    C     0.38438   0.39514   0.67152   0.01267  Uiso   1.00
C21    C     0.35930   0.39577   0.61992   0.01267  Uiso   1.00
C22    C     0.39946   0.36474   0.58188   0.01267  Uiso   1.00
C23    C     0.46040   0.33659   0.59829   0.01267  Uiso   1.00
C24    C     0.24851   0.41176   0.56370   0.01267  Uiso   1.00
C25    C     0.17873   0.44414   0.56149   0.01267  Uiso   1.00
C26    C     0.17007   0.49420   0.59629   0.01267  Uiso   1.00
C27    C     0.10180   0.51970   0.59341   0.01267  Uiso   1.00
C28    C     0.03728   0.48838   0.55636   0.01267  Uiso   1.00
C29    C     0.05270   0.44550   0.51931   0.01267  Uiso   1.00
C30    C     0.12450   0.42710   0.52020   0.01267  Uiso   1.00
C31    C     0.58513   0.32663   0.26370   0.01267  Uiso   1.00
C32    C     0.53496   0.28402   0.21253   0.01267  Uiso   1.00
C33    C     0.43767   0.23339   0.21273   0.01267  Uiso   1.00
C34    C     0.91714   0.55555   0.35093   0.01267  Uiso   1.00
C35    C     0.01076   0.61562   0.33818   0.01267  Uiso   1.00
C36    C     0.03647   0.64070   0.28658   0.01267  Uiso   1.00
C37    C     0.96528   0.60054   0.24854   0.01267  Uiso   1.00
C38    C     0.87619   0.53960   0.26495   0.01267  Uiso   1.00
C39    C     0.16325   0.75149   0.23036   0.01267  Uiso   1.00
C40    C     0.26541   0.82127   0.22815   0.01267  Uiso   1.00
C41    C     0.32413   0.82993   0.26295   0.01267  Uiso   1.00
C42    C     0.41790   0.89820   0.26007   0.01267  Uiso   1.00
C43    C     0.45110   0.96272   0.22302   0.01267  Uiso   1.00
C44    C     0.39280   0.94730   0.18597   0.01267  Uiso   1.00
C45    C     0.30260   0.87550   0.18686   0.01267  Uiso   1.00
C46    C     0.25850   0.58513   0.93037   0.01267  Uiso   1.00
C47    C     0.25094   0.53496   0.87920   0.01267  Uiso   1.00
C48    C     0.20428   0.43767   0.87940   0.01267  Uiso   1.00
C49    C     0.36159   0.91714   0.01760   0.01267  Uiso   1.00
C50    C     0.39514   0.01076   0.00485   0.01267  Uiso   1.00
C51    C     0.39577   0.03647   0.95325   0.01267  Uiso   1.00
C52    C     0.36474   0.96528   0.91521   0.01267  Uiso   1.00
C53    C     0.33659   0.87619   0.93162   0.01267  Uiso   1.00
C54    C     0.41176   0.16325   0.89703   0.01267  Uiso   1.00
C55    C     0.44414   0.26541   0.89482   0.01267  Uiso   1.00
C56    C     0.49420   0.32413   0.92962   0.01267  Uiso   1.00
C57    C     0.51970   0.41790   0.92674   0.01267  Uiso   1.00
C58    C     0.48838   0.45110   0.88969   0.01267  Uiso   1.00
C59    C     0.44550   0.39280   0.85264   0.01267  Uiso   1.00
C60    C     0.42710   0.30260   0.85353   0.01267  Uiso   1.00
C61    C     0.32663   0.74150   0.59704   0.01267  Uiso   1.00
C62    C     0.28402   0.74906   0.54587   0.01267  Uiso   1.00
C63    C     0.23339   0.79572   0.54607   0.01267  Uiso   1.00
C64    C     0.55555   0.63841   0.68427   0.01267  Uiso   1.00
C65    C     0.61562   0.60486   0.67152   0.01267  Uiso   1.00
C66    C     0.64070   0.60423   0.61992   0.01267  Uiso   1.00
C67    C     0.60054   0.63526   0.58188   0.01267  Uiso   1.00
C68    C     0.53960   0.66341   0.59829   0.01267  Uiso   1.00
C69    C     0.75149   0.58824   0.56370   0.01267  Uiso   1.00
C70    C     0.82127   0.55586   0.56149   0.01267  Uiso   1.00
C71    C     0.82993   0.50580   0.59629   0.01267  Uiso   1.00
C72    C     0.89820   0.48030   0.59341   0.01267  Uiso   1.00
C73    C     0.96272   0.51162   0.55636   0.01267  Uiso   1.00
C74    C     0.94730   0.55450   0.51931   0.01267  Uiso   1.00
C75    C     0.87550   0.57290   0.52020   0.01267  Uiso   1.00
C76    C     0.41487   0.67337   0.26370   0.01267  Uiso   1.00
C77    C     0.46504   0.71598   0.21253   0.01267  Uiso   1.00
C78    C     0.56233   0.76661   0.21273   0.01267  Uiso   1.00
C79    C     0.08286   0.44445   0.35093   0.01267  Uiso   1.00
C80    C     0.98924   0.38438   0.33818   0.01267  Uiso   1.00
C81    C     0.96353   0.35930   0.28658   0.01267  Uiso   1.00
C82    C     0.03472   0.39946   0.24854   0.01267  Uiso   1.00
C83    C     0.12381   0.46040   0.26495   0.01267  Uiso   1.00
C84    C     0.83675   0.24851   0.23036   0.01267  Uiso   1.00
C85    C     0.73459   0.17873   0.22815   0.01267  Uiso   1.00
C86    C     0.67587   0.17007   0.26295   0.01267  Uiso   1.00
C87    C     0.58210   0.10180   0.26007   0.01267  Uiso   1.00
C88    C     0.54890   0.03728   0.22302   0.01267  Uiso   1.00
C89    C     0.60720   0.05270   0.18597   0.01267  Uiso   1.00
C90    C     0.69740   0.12450   0.18686   0.01267  Uiso   1.00
C91    C     0.32663   0.58513   0.73630   0.01267  Uiso   1.00
C92    C     0.28402   0.53496   0.78747   0.01267  Uiso   1.00
C93    C     0.23339   0.43767   0.78727   0.01267  Uiso   1.00
C94    C     0.55555   0.91714   0.64907   0.01267  Uiso   1.00
C95    C     0.61562   0.01076   0.66182   0.01267  Uiso   1.00
C96    C     0.64070   0.03647   0.71342   0.01267  Uiso   1.00
C97    C     0.60054   0.96528   0.75146   0.01267  Uiso   1.00
C98    C     0.53960   0.87619   0.73505   0.01267  Uiso   1.00
C99    C     0.75149   0.16325   0.76964   0.01267  Uiso   1.00
C100   C     0.82127   0.26541   0.77185   0.01267  Uiso   1.00
C101   C     0.82993   0.32413   0.73705   0.01267  Uiso   1.00
C102   C     0.89820   0.41790   0.73993   0.01267  Uiso   1.00
C103   C     0.96272   0.45110   0.77698   0.01267  Uiso   1.00
C104   C     0.94730   0.39280   0.81403   0.01267  Uiso   1.00
C105   C     0.87550   0.30260   0.81314   0.01267  Uiso   1.00
C106   C     0.41487   0.74150   0.06963   0.01267  Uiso   1.00
C107   C     0.46504   0.74906   0.12080   0.01267  Uiso   1.00
C108   C     0.56233   0.79572   0.12060   0.01267  Uiso   1.00
C109   C     0.08286   0.63841   0.98240   0.01267  Uiso   1.00
C110   C     0.98924   0.60486   0.99515   0.01267  Uiso   1.00
C111   C     0.96353   0.60423   0.04675   0.01267  Uiso   1.00
C112   C     0.03472   0.63526   0.08479   0.01267  Uiso   1.00
C113   C     0.12381   0.66341   0.06838   0.01267  Uiso   1.00
C114   C     0.83675   0.58824   0.10297   0.01267  Uiso   1.00
C115   C     0.73459   0.55586   0.10518   0.01267  Uiso   1.00
C116   C     0.67587   0.50580   0.07038   0.01267  Uiso   1.00
C117   C     0.58210   0.48030   0.07326   0.01267  Uiso   1.00
C118   C     0.54890   0.51162   0.11031   0.01267  Uiso   1.00
C119   C     0.60720   0.55450   0.14736   0.01267  Uiso   1.00
C120   C     0.69740   0.57290   0.14647   0.01267  Uiso   1.00
C121   C     0.25850   0.67337   0.40296   0.01267  Uiso   1.00
C122   C     0.25094   0.71598   0.45413   0.01267  Uiso   1.00
C123   C     0.20428   0.76661   0.45393   0.01267  Uiso   1.00
C124   C     0.36159   0.44445   0.31573   0.01267  Uiso   1.00
C125   C     0.39514   0.38438   0.32848   0.01267  Uiso   1.00
C126   C     0.39577   0.35930   0.38008   0.01267  Uiso   1.00
C127   C     0.36474   0.39946   0.41812   0.01267  Uiso   1.00
C128   C     0.33659   0.46040   0.40171   0.01267  Uiso   1.00
C129   C     0.41176   0.24851   0.43630   0.01267  Uiso   1.00
C130   C     0.44414   0.17873   0.43851   0.01267  Uiso   1.00
C131   C     0.49420   0.17007   0.40371   0.01267  Uiso   1.00
C132   C     0.51970   0.10180   0.40659   0.01267  Uiso   1.00
C133   C     0.48838   0.03728   0.44364   0.01267  Uiso   1.00
C134   C     0.44550   0.05270   0.48069   0.01267  Uiso   1.00
C135   C     0.42710   0.12450   0.47980   0.01267  Uiso   1.00
C136   C     0.67337   0.41487   0.73630   0.01267  Uiso   1.00
C137   C     0.71598   0.46504   0.78747   0.01267  Uiso   1.00
C138   C     0.76661   0.56233   0.78727   0.01267  Uiso   1.00
C139   C     0.44445   0.08286   0.64907   0.01267  Uiso   1.00
C140   C     0.38438   0.98924   0.66182   0.01267  Uiso   1.00
C141   C     0.35930   0.96353   0.71342   0.01267  Uiso   1.00
C142   C     0.39946   0.03472   0.75146   0.01267  Uiso   1.00
C143   C     0.46040   0.12381   0.73505   0.01267  Uiso   1.00
C144   C     0.24851   0.83675   0.76964   0.01267  Uiso   1.00
C145   C     0.17873   0.73459   0.77185   0.01267  Uiso   1.00
C146   C     0.17007   0.67587   0.73705   0.01267  Uiso   1.00
C147   C     0.10180   0.58210   0.73993   0.01267  Uiso   1.00
C148   C     0.03728   0.54890   0.77698   0.01267  Uiso   1.00
C149   C     0.05270   0.60720   0.81403   0.01267  Uiso   1.00
C150   C     0.12450   0.69740   0.81314   0.01267  Uiso   1.00
C151   C     0.58513   0.25850   0.06963   0.01267  Uiso   1.00
C152   C     0.53496   0.25094   0.12080   0.01267  Uiso   1.00
C153   C     0.43767   0.20428   0.12060   0.01267  Uiso   1.00
C154   C     0.91714   0.36159   0.98240   0.01267  Uiso   1.00
C155   C     0.01076   0.39514   0.99515   0.01267  Uiso   1.00
C156   C     0.03647   0.39577   0.04675   0.01267  Uiso   1.00
C157   C     0.96528   0.36474   0.08479   0.01267  Uiso   1.00
C158   C     0.87619   0.33659   0.06838   0.01267  Uiso   1.00
C159   C     0.16325   0.41176   0.10297   0.01267  Uiso   1.00
C160   C     0.26541   0.44414   0.10518   0.01267  Uiso   1.00
C161   C     0.32413   0.49420   0.07038   0.01267  Uiso   1.00
C162   C     0.41790   0.51970   0.07326   0.01267  Uiso   1.00
C163   C     0.45110   0.48838   0.11031   0.01267  Uiso   1.00
C164   C     0.39280   0.44550   0.14736   0.01267  Uiso   1.00
C165   C     0.30260   0.42710   0.14647   0.01267  Uiso   1.00
C166   C     0.74150   0.32663   0.40296   0.01267  Uiso   1.00
C167   C     0.74906   0.28402   0.45413   0.01267  Uiso   1.00
C168   C     0.79572   0.23339   0.45393   0.01267  Uiso   1.00
C169   C     0.63841   0.55555   0.31573   0.01267  Uiso   1.00
C170   C     0.60486   0.61562   0.32848   0.01267  Uiso   1.00
C171   C     0.60423   0.64070   0.38008   0.01267  Uiso   1.00
C172   C     0.63526   0.60054   0.41812   0.01267  Uiso   1.00
C173   C     0.66341   0.53960   0.40171   0.01267  Uiso   1.00
C174   C     0.58824   0.75149   0.43630   0.01267  Uiso   1.00
C175   C     0.55586   0.82127   0.43851   0.01267  Uiso   1.00
C176   C     0.50580   0.82993   0.40371   0.01267  Uiso   1.00
C177   C     0.48030   0.89820   0.40659   0.01267  Uiso   1.00
C178   C     0.51162   0.96272   0.44364   0.01267  Uiso   1.00
C179   C     0.55450   0.94730   0.48069   0.01267  Uiso   1.00
C180   C     0.57290   0.87550   0.47980   0.01267  Uiso   1.00
C181   C     0.70884   0.41768   0.83333   0.01267  Uiso   1.00
C182   C     0.80536   0.61072   0.83333   0.01267  Uiso   1.00
C183   C     0.70884   0.29116   0.50000   0.01267  Uiso   1.00
C184   C     0.80536   0.19464   0.50000   0.01267  Uiso   1.00
C185   C     0.58232   0.29116   0.16667   0.01267  Uiso   1.00
C186   C     0.38928   0.19464   0.16667   0.01267  Uiso   1.00
C187   C     0.29116   0.58232   0.83333   0.01267  Uiso   1.00
C188   C     0.19464   0.38928   0.83333   0.01267  Uiso   1.00
C189   C     0.29116   0.70884   0.50000   0.01267  Uiso   1.00
C190   C     0.19464   0.80536   0.50000   0.01267  Uiso   1.00
C191   C     0.41768   0.70884   0.16667   0.01267  Uiso   1.00
C192   C     0.61072   0.80536   0.16667   0.01267  Uiso   1.00
N1     N     0.66555   0.14901   0.98188   0.01267  Uiso   1.00
N2     N     0.57531   0.87226   0.94197   0.01267  Uiso   1.00
N3     N     0.48346   0.33445   0.64855   0.01267  Uiso   1.00
N4     N     0.29695   0.42469   0.60864   0.01267  Uiso   1.00
N5     N     0.85099   0.51654   0.31521   0.01267  Uiso   1.00
N6     N     0.12774   0.70305   0.27530   0.01267  Uiso   1.00
N7     N     0.33445   0.85099   0.98188   0.01267  Uiso   1.00
N8     N     0.42469   0.12774   0.94197   0.01267  Uiso   1.00
N9     N     0.51654   0.66555   0.64855   0.01267  Uiso   1.00
N10    N     0.70305   0.57531   0.60864   0.01267  Uiso   1.00
N11    N     0.14901   0.48346   0.31521   0.01267  Uiso   1.00
N12    N     0.87226   0.29695   0.27530   0.01267  Uiso   1.00
N13    N     0.51654   0.85099   0.68479   0.01267  Uiso   1.00
N14    N     0.70305   0.12774   0.72470   0.01267  Uiso   1.00
N15    N     0.14901   0.66555   0.01812   0.01267  Uiso   1.00
N16    N     0.87226   0.57531   0.05803   0.01267  Uiso   1.00
N17    N     0.33445   0.48346   0.35145   0.01267  Uiso   1.00
N18    N     0.42469   0.29695   0.39136   0.01267  Uiso   1.00
N19    N     0.48346   0.14901   0.68479   0.01267  Uiso   1.00
N20    N     0.29695   0.87226   0.72470   0.01267  Uiso   1.00
N21    N     0.85099   0.33445   0.01812   0.01267  Uiso   1.00
N22    N     0.12774   0.42469   0.05803   0.01267  Uiso   1.00
N23    N     0.66555   0.51654   0.35145   0.01267  Uiso   1.00
N24    N     0.57531   0.70305   0.39136   0.01267  Uiso   1.00
N25    N     0.85413   0.70826   0.83333   0.01267  Uiso   1.00
N26    N     0.85413   0.14588   0.50000   0.01267  Uiso   1.00
N27    N     0.29175   0.14588   0.16667   0.01267  Uiso   1.00
N28    N     0.14587   0.29174   0.83333   0.01267  Uiso   1.00
N29    N     0.14587   0.85412   0.50000   0.01267  Uiso   1.00
N30    N     0.70825   0.85412   0.16667   0.01267  Uiso   1.00
O1     O     0.70929   0.32993   0.92827   0.01267  Uiso   1.00
O2     O     0.76761   0.45995   0.97240   0.01267  Uiso   1.00
O3     O     0.62125   0.88483   0.85843   0.01267  Uiso   1.00
O4     O     0.62064   0.29071   0.59494   0.01267  Uiso   1.00
O5     O     0.69234   0.23239   0.63907   0.01267  Uiso   1.00
O6     O     0.26358   0.37875   0.52510   0.01267  Uiso   1.00
O7     O     0.67007   0.37936   0.26160   0.01267  Uiso   1.00
O8     O     0.54005   0.30766   0.30573   0.01267  Uiso   1.00
O9     O     0.11517   0.73642   0.19176   0.01267  Uiso   1.00
O10    O     0.29071   0.67007   0.92827   0.01267  Uiso   1.00
O11    O     0.23239   0.54005   0.97240   0.01267  Uiso   1.00
O12    O     0.37875   0.11517   0.85843   0.01267  Uiso   1.00
O13    O     0.37936   0.70929   0.59494   0.01267  Uiso   1.00
O14    O     0.30766   0.76761   0.63907   0.01267  Uiso   1.00
O15    O     0.73642   0.62125   0.52510   0.01267  Uiso   1.00
O16    O     0.32993   0.62064   0.26160   0.01267  Uiso   1.00
O17    O     0.45995   0.69234   0.30573   0.01267  Uiso   1.00
O18    O     0.88483   0.26358   0.19176   0.01267  Uiso   1.00
O19    O     0.37936   0.67007   0.73840   0.01267  Uiso   1.00
O20    O     0.30766   0.54005   0.69427   0.01267  Uiso   1.00
O21    O     0.73642   0.11517   0.80824   0.01267  Uiso   1.00
O22    O     0.32993   0.70929   0.07173   0.01267  Uiso   1.00
O23    O     0.45995   0.76761   0.02760   0.01267  Uiso   1.00
O24    O     0.88483   0.62125   0.14157   0.01267  Uiso   1.00
O25    O     0.29071   0.62064   0.40506   0.01267  Uiso   1.00
O26    O     0.23239   0.69234   0.36093   0.01267  Uiso   1.00
O27    O     0.37875   0.26358   0.47490   0.01267  Uiso   1.00
O28    O     0.62064   0.32993   0.73840   0.01267  Uiso   1.00
O29    O     0.69234   0.45995   0.69427   0.01267  Uiso   1.00
O30    O     0.26358   0.88483   0.80824   0.01267  Uiso   1.00
O31    O     0.67007   0.29071   0.07173   0.01267  Uiso   1.00
O32    O     0.54005   0.23239   0.02760   0.01267  Uiso   1.00
O33    O     0.11517   0.37875   0.14157   0.01267  Uiso   1.00
O34    O     0.70929   0.37936   0.40506   0.01267  Uiso   1.00
O35    O     0.76761   0.30766   0.36093   0.01267  Uiso   1.00
O36    O     0.62125   0.73642   0.47490   0.01267  Uiso   1.00
