data_RAYMIP_clean
_audit_creation_date              2014-07-02
_audit_creation_method            'Materials Studio'
_symmetry_space_group_name_H-M    'P1'
_symmetry_Int_Tables_number       1
_symmetry_cell_setting            triclinic
loop_
_symmetry_equiv_pos_as_xyz
  x,y,z
_cell_length_a                    19.4356
_cell_length_b                    19.4356
_cell_length_c                    27.8930
_cell_angle_alpha                 90.0000
_cell_angle_beta                  90.0000
_cell_angle_gamma                 120.0000
loop_
_atom_site_label
_atom_site_type_symbol
_atom_site_fract_x
_atom_site_fract_y
_atom_site_fract_z
_atom_site_U_iso_or_equiv
_atom_site_adp_type
_atom_site_occupancy
In1    In    0.36401   0.78283   0.25000   0.01267  Uiso   1.00
In2    In    0.41882   0.63599   0.25000   0.01267  Uiso   1.00
In3    In    0.21717   0.58118   0.25000   0.01267  Uiso   1.00
In4    In    0.58118   0.21717   0.75000   0.01267  Uiso   1.00
In5    In    0.78283   0.36401   0.75000   0.01267  Uiso   1.00
In6    In    0.63599   0.41882   0.75000   0.01267  Uiso   1.00
H1     H     0.25000   0.84030   0.36630   0.01267  Uiso   1.00
H2     H     0.18280   0.86440   0.42480   0.01267  Uiso   1.00
H3     H     0.01180   0.63710   0.42060   0.01267  Uiso   1.00
H4     H     0.08430   0.61130   0.36490   0.01267  Uiso   1.00
H5     H     0.07660   0.87860   0.44480   0.01267  Uiso   1.00
H6     H     0.59030   0.75000   0.36630   0.01267  Uiso   1.00
H7     H     0.68160   0.81720   0.42480   0.01267  Uiso   1.00
H8     H     0.62530   0.98820   0.42060   0.01267  Uiso   1.00
H9     H     0.52700   0.91570   0.36490   0.01267  Uiso   1.00
H10    H     0.80200   0.92340   0.44480   0.01267  Uiso   1.00
H11    H     0.15970   0.40970   0.36630   0.01267  Uiso   1.00
H12    H     0.13560   0.31840   0.42480   0.01267  Uiso   1.00
H13    H     0.36290   0.37470   0.42060   0.01267  Uiso   1.00
H14    H     0.38870   0.47300   0.36490   0.01267  Uiso   1.00
H15    H     0.12140   0.19800   0.44480   0.01267  Uiso   1.00
H16    H     0.25000   0.84030   0.13370   0.01267  Uiso   1.00
H17    H     0.18280   0.86440   0.07520   0.01267  Uiso   1.00
H18    H     0.01180   0.63710   0.07940   0.01267  Uiso   1.00
H19    H     0.08430   0.61130   0.13510   0.01267  Uiso   1.00
H20    H     0.07660   0.87860   0.05520   0.01267  Uiso   1.00
H21    H     0.59030   0.75000   0.13370   0.01267  Uiso   1.00
H22    H     0.68160   0.81720   0.07520   0.01267  Uiso   1.00
H23    H     0.62530   0.98820   0.07940   0.01267  Uiso   1.00
H24    H     0.52700   0.91570   0.13510   0.01267  Uiso   1.00
H25    H     0.80200   0.92340   0.05520   0.01267  Uiso   1.00
H26    H     0.15970   0.40970   0.13370   0.01267  Uiso   1.00
H27    H     0.13560   0.31840   0.07520   0.01267  Uiso   1.00
H28    H     0.36290   0.37470   0.07940   0.01267  Uiso   1.00
H29    H     0.38870   0.47300   0.13510   0.01267  Uiso   1.00
H30    H     0.12140   0.19800   0.05520   0.01267  Uiso   1.00
H31    H     0.40970   0.15970   0.63370   0.01267  Uiso   1.00
H32    H     0.31840   0.13560   0.57520   0.01267  Uiso   1.00
H33    H     0.37470   0.36290   0.57940   0.01267  Uiso   1.00
H34    H     0.47300   0.38870   0.63510   0.01267  Uiso   1.00
H35    H     0.19800   0.12140   0.55520   0.01267  Uiso   1.00
H36    H     0.84030   0.25000   0.63370   0.01267  Uiso   1.00
H37    H     0.86440   0.18280   0.57520   0.01267  Uiso   1.00
H38    H     0.63710   0.01180   0.57940   0.01267  Uiso   1.00
H39    H     0.61130   0.08430   0.63510   0.01267  Uiso   1.00
H40    H     0.87860   0.07660   0.55520   0.01267  Uiso   1.00
H41    H     0.75000   0.59030   0.63370   0.01267  Uiso   1.00
H42    H     0.81720   0.68160   0.57520   0.01267  Uiso   1.00
H43    H     0.98820   0.62530   0.57940   0.01267  Uiso   1.00
H44    H     0.91570   0.52700   0.63510   0.01267  Uiso   1.00
H45    H     0.92340   0.80200   0.55520   0.01267  Uiso   1.00
H46    H     0.40970   0.15970   0.86630   0.01267  Uiso   1.00
H47    H     0.31840   0.13560   0.92480   0.01267  Uiso   1.00
H48    H     0.37470   0.36290   0.92060   0.01267  Uiso   1.00
H49    H     0.47300   0.38870   0.86490   0.01267  Uiso   1.00
H50    H     0.19800   0.12140   0.94480   0.01267  Uiso   1.00
H51    H     0.84030   0.25000   0.86630   0.01267  Uiso   1.00
H52    H     0.86440   0.18280   0.92480   0.01267  Uiso   1.00
H53    H     0.63710   0.01180   0.92060   0.01267  Uiso   1.00
H54    H     0.61130   0.08430   0.86490   0.01267  Uiso   1.00
H55    H     0.87860   0.07660   0.94480   0.01267  Uiso   1.00
H56    H     0.75000   0.59030   0.86630   0.01267  Uiso   1.00
H57    H     0.81720   0.68160   0.92480   0.01267  Uiso   1.00
H58    H     0.98820   0.62530   0.92060   0.01267  Uiso   1.00
H59    H     0.91570   0.52700   0.86490   0.01267  Uiso   1.00
H60    H     0.92340   0.80200   0.94480   0.01267  Uiso   1.00
H61    H     0.00000   0.66220   0.50000   0.01267  Uiso   1.00
H62    H     0.66220   0.00000   0.50000   0.01267  Uiso   1.00
H63    H     0.33780   0.33780   0.50000   0.01267  Uiso   1.00
H64    H     0.00000   0.66220   0.00000   0.01267  Uiso   1.00
H65    H     0.66220   0.00000   0.00000   0.01267  Uiso   1.00
H66    H     0.33780   0.33780   0.00000   0.01267  Uiso   1.00
H67    H     0.88180   0.88180   0.50000   0.01267  Uiso   1.00
H68    H     0.00000   0.11820   0.50000   0.01267  Uiso   1.00
H69    H     0.11820   0.00000   0.50000   0.01267  Uiso   1.00
H70    H     0.88180   0.88180   0.00000   0.01267  Uiso   1.00
H71    H     0.00000   0.11820   0.00000   0.01267  Uiso   1.00
H72    H     0.11820   0.00000   0.00000   0.01267  Uiso   1.00
C1     C     0.21633   0.70903   0.31940   0.01267  Uiso   1.00
C2     C     0.17297   0.72356   0.35813   0.01267  Uiso   1.00
C3     C     0.20210   0.79885   0.37744   0.01267  Uiso   1.00
C4     C     0.16195   0.81337   0.41249   0.01267  Uiso   1.00
C5     C     0.09124   0.75351   0.42978   0.01267  Uiso   1.00
C6     C     0.06089   0.67790   0.41041   0.01267  Uiso   1.00
C7     C     0.10329   0.66284   0.37594   0.01267  Uiso   1.00
C8     C     0.04525   0.76834   0.46623   0.01267  Uiso   1.00
C9     C     0.04555   0.83925   0.46686   0.01267  Uiso   1.00
C10    C     0.49270   0.78367   0.31940   0.01267  Uiso   1.00
C11    C     0.55059   0.82703   0.35813   0.01267  Uiso   1.00
C12    C     0.59675   0.79790   0.37744   0.01267  Uiso   1.00
C13    C     0.65142   0.83805   0.41249   0.01267  Uiso   1.00
C14    C     0.66227   0.90876   0.42978   0.01267  Uiso   1.00
C15    C     0.61701   0.93911   0.41041   0.01267  Uiso   1.00
C16    C     0.55955   0.89671   0.37594   0.01267  Uiso   1.00
C17    C     0.72309   0.95475   0.46623   0.01267  Uiso   1.00
C18    C     0.79370   0.95445   0.46686   0.01267  Uiso   1.00
C19    C     0.29097   0.50730   0.31940   0.01267  Uiso   1.00
C20    C     0.27644   0.44941   0.35813   0.01267  Uiso   1.00
C21    C     0.20115   0.40325   0.37744   0.01267  Uiso   1.00
C22    C     0.18663   0.34858   0.41249   0.01267  Uiso   1.00
C23    C     0.24649   0.33773   0.42978   0.01267  Uiso   1.00
C24    C     0.32210   0.38299   0.41041   0.01267  Uiso   1.00
C25    C     0.33716   0.44045   0.37594   0.01267  Uiso   1.00
C26    C     0.23166   0.27691   0.46623   0.01267  Uiso   1.00
C27    C     0.16075   0.20630   0.46686   0.01267  Uiso   1.00
C28    C     0.21633   0.70903   0.18060   0.01267  Uiso   1.00
C29    C     0.17297   0.72356   0.14187   0.01267  Uiso   1.00
C30    C     0.20210   0.79885   0.12256   0.01267  Uiso   1.00
C31    C     0.16195   0.81337   0.08751   0.01267  Uiso   1.00
C32    C     0.09124   0.75351   0.07022   0.01267  Uiso   1.00
C33    C     0.06089   0.67790   0.08959   0.01267  Uiso   1.00
C34    C     0.10329   0.66284   0.12406   0.01267  Uiso   1.00
C35    C     0.04525   0.76834   0.03377   0.01267  Uiso   1.00
C36    C     0.04555   0.83925   0.03314   0.01267  Uiso   1.00
C37    C     0.49270   0.78367   0.18060   0.01267  Uiso   1.00
C38    C     0.55059   0.82703   0.14187   0.01267  Uiso   1.00
C39    C     0.59675   0.79790   0.12256   0.01267  Uiso   1.00
C40    C     0.65142   0.83805   0.08751   0.01267  Uiso   1.00
C41    C     0.66227   0.90876   0.07022   0.01267  Uiso   1.00
C42    C     0.61701   0.93911   0.08959   0.01267  Uiso   1.00
C43    C     0.55955   0.89671   0.12406   0.01267  Uiso   1.00
C44    C     0.72309   0.95475   0.03377   0.01267  Uiso   1.00
C45    C     0.79370   0.95445   0.03314   0.01267  Uiso   1.00
C46    C     0.29097   0.50730   0.18060   0.01267  Uiso   1.00
C47    C     0.27644   0.44941   0.14187   0.01267  Uiso   1.00
C48    C     0.20115   0.40325   0.12256   0.01267  Uiso   1.00
C49    C     0.18663   0.34858   0.08751   0.01267  Uiso   1.00
C50    C     0.24649   0.33773   0.07022   0.01267  Uiso   1.00
C51    C     0.32210   0.38299   0.08959   0.01267  Uiso   1.00
C52    C     0.33716   0.44045   0.12406   0.01267  Uiso   1.00
C53    C     0.23166   0.27691   0.03377   0.01267  Uiso   1.00
C54    C     0.16075   0.20630   0.03314   0.01267  Uiso   1.00
C55    C     0.50730   0.29097   0.68060   0.01267  Uiso   1.00
C56    C     0.44941   0.27644   0.64187   0.01267  Uiso   1.00
C57    C     0.40325   0.20115   0.62256   0.01267  Uiso   1.00
C58    C     0.34858   0.18663   0.58751   0.01267  Uiso   1.00
C59    C     0.33773   0.24649   0.57022   0.01267  Uiso   1.00
C60    C     0.38299   0.32210   0.58959   0.01267  Uiso   1.00
C61    C     0.44045   0.33716   0.62406   0.01267  Uiso   1.00
C62    C     0.27691   0.23166   0.53377   0.01267  Uiso   1.00
C63    C     0.20630   0.16075   0.53314   0.01267  Uiso   1.00
C64    C     0.70903   0.21633   0.68060   0.01267  Uiso   1.00
C65    C     0.72356   0.17297   0.64187   0.01267  Uiso   1.00
C66    C     0.79885   0.20210   0.62256   0.01267  Uiso   1.00
C67    C     0.81337   0.16195   0.58751   0.01267  Uiso   1.00
C68    C     0.75351   0.09124   0.57022   0.01267  Uiso   1.00
C69    C     0.67790   0.06089   0.58959   0.01267  Uiso   1.00
C70    C     0.66284   0.10329   0.62406   0.01267  Uiso   1.00
C71    C     0.76834   0.04525   0.53377   0.01267  Uiso   1.00
C72    C     0.83925   0.04555   0.53314   0.01267  Uiso   1.00
C73    C     0.78367   0.49270   0.68060   0.01267  Uiso   1.00
C74    C     0.82703   0.55059   0.64187   0.01267  Uiso   1.00
C75    C     0.79790   0.59675   0.62256   0.01267  Uiso   1.00
C76    C     0.83805   0.65142   0.58751   0.01267  Uiso   1.00
C77    C     0.90876   0.66227   0.57022   0.01267  Uiso   1.00
C78    C     0.93911   0.61701   0.58959   0.01267  Uiso   1.00
C79    C     0.89671   0.55955   0.62406   0.01267  Uiso   1.00
C80    C     0.95475   0.72309   0.53377   0.01267  Uiso   1.00
C81    C     0.95445   0.79370   0.53314   0.01267  Uiso   1.00
C82    C     0.50730   0.29097   0.81940   0.01267  Uiso   1.00
C83    C     0.44941   0.27644   0.85813   0.01267  Uiso   1.00
C84    C     0.40325   0.20115   0.87744   0.01267  Uiso   1.00
C85    C     0.34858   0.18663   0.91249   0.01267  Uiso   1.00
C86    C     0.33773   0.24649   0.92978   0.01267  Uiso   1.00
C87    C     0.38299   0.32210   0.91041   0.01267  Uiso   1.00
C88    C     0.44045   0.33716   0.87594   0.01267  Uiso   1.00
C89    C     0.27691   0.23166   0.96623   0.01267  Uiso   1.00
C90    C     0.20630   0.16075   0.96686   0.01267  Uiso   1.00
C91    C     0.70903   0.21633   0.81940   0.01267  Uiso   1.00
C92    C     0.72356   0.17297   0.85813   0.01267  Uiso   1.00
C93    C     0.79885   0.20210   0.87744   0.01267  Uiso   1.00
C94    C     0.81337   0.16195   0.91249   0.01267  Uiso   1.00
C95    C     0.75351   0.09124   0.92978   0.01267  Uiso   1.00
C96    C     0.67790   0.06089   0.91041   0.01267  Uiso   1.00
C97    C     0.66284   0.10329   0.87594   0.01267  Uiso   1.00
C98    C     0.76834   0.04525   0.96623   0.01267  Uiso   1.00
C99    C     0.83925   0.04555   0.96686   0.01267  Uiso   1.00
C100   C     0.78367   0.49270   0.81940   0.01267  Uiso   1.00
C101   C     0.82703   0.55059   0.85813   0.01267  Uiso   1.00
C102   C     0.79790   0.59675   0.87744   0.01267  Uiso   1.00
C103   C     0.83805   0.65142   0.91249   0.01267  Uiso   1.00
C104   C     0.90876   0.66227   0.92978   0.01267  Uiso   1.00
C105   C     0.93911   0.61701   0.91041   0.01267  Uiso   1.00
C106   C     0.89671   0.55955   0.87594   0.01267  Uiso   1.00
C107   C     0.95475   0.72309   0.96623   0.01267  Uiso   1.00
C108   C     0.95445   0.79370   0.96686   0.01267  Uiso   1.00
C109   C     0.00000   0.71007   0.50000   0.01267  Uiso   1.00
C110   C     0.00000   0.85303   0.50000   0.01267  Uiso   1.00
C111   C     0.00000   0.92933   0.50000   0.01267  Uiso   1.00
C112   C     0.71007   0.00000   0.50000   0.01267  Uiso   1.00
C113   C     0.85303   0.00000   0.50000   0.01267  Uiso   1.00
C114   C     0.92933   0.00000   0.50000   0.01267  Uiso   1.00
C115   C     0.28993   0.28993   0.50000   0.01267  Uiso   1.00
C116   C     0.14697   0.14697   0.50000   0.01267  Uiso   1.00
C117   C     0.07067   0.07067   0.50000   0.01267  Uiso   1.00
C118   C     0.00000   0.71007   0.00000   0.01267  Uiso   1.00
C119   C     0.00000   0.85303   0.00000   0.01267  Uiso   1.00
C120   C     0.00000   0.92933   0.00000   0.01267  Uiso   1.00
C121   C     0.71007   0.00000   0.00000   0.01267  Uiso   1.00
C122   C     0.85303   0.00000   0.00000   0.01267  Uiso   1.00
C123   C     0.92933   0.00000   0.00000   0.01267  Uiso   1.00
C124   C     0.28993   0.28993   0.00000   0.01267  Uiso   1.00
C125   C     0.14697   0.14697   0.00000   0.01267  Uiso   1.00
C126   C     0.07067   0.07067   0.00000   0.01267  Uiso   1.00
C127   C     0.92966   0.92966   0.50000   0.01267  Uiso   1.00
C128   C     0.00000   0.07034   0.50000   0.01267  Uiso   1.00
C129   C     0.07034   1.00000   0.50000   0.01267  Uiso   1.00
C130   C     0.92966   0.92966   0.00000   0.01267  Uiso   1.00
C131   C     0.00000   0.07034   0.00000   0.01267  Uiso   1.00
C132   C     0.07034   1.00000   0.00000   0.01267  Uiso   1.00
O1     O     0.27891   0.76714   0.30470   0.01267  Uiso   1.00
O2     O     0.18579   0.63933   0.30459   0.01267  Uiso   1.00
O3     O     0.48823   0.72109   0.30470   0.01267  Uiso   1.00
O4     O     0.45354   0.81421   0.30459   0.01267  Uiso   1.00
O5     O     0.23286   0.51177   0.30470   0.01267  Uiso   1.00
O6     O     0.36067   0.54646   0.30459   0.01267  Uiso   1.00
O7     O     0.27891   0.76714   0.19530   0.01267  Uiso   1.00
O8     O     0.18579   0.63933   0.19541   0.01267  Uiso   1.00
O9     O     0.48823   0.72109   0.19530   0.01267  Uiso   1.00
O10    O     0.45354   0.81421   0.19541   0.01267  Uiso   1.00
O11    O     0.23286   0.51177   0.19530   0.01267  Uiso   1.00
O12    O     0.36067   0.54646   0.19541   0.01267  Uiso   1.00
O13    O     0.51177   0.23286   0.69530   0.01267  Uiso   1.00
O14    O     0.54646   0.36067   0.69541   0.01267  Uiso   1.00
O15    O     0.76714   0.27891   0.69530   0.01267  Uiso   1.00
O16    O     0.63933   0.18579   0.69541   0.01267  Uiso   1.00
O17    O     0.72109   0.48823   0.69530   0.01267  Uiso   1.00
O18    O     0.81421   0.45354   0.69541   0.01267  Uiso   1.00
O19    O     0.51177   0.23286   0.80470   0.01267  Uiso   1.00
O20    O     0.54646   0.36067   0.80459   0.01267  Uiso   1.00
O21    O     0.76714   0.27891   0.80470   0.01267  Uiso   1.00
O22    O     0.63933   0.18579   0.80459   0.01267  Uiso   1.00
O23    O     0.72109   0.48823   0.80470   0.01267  Uiso   1.00
O24    O     0.81421   0.45354   0.80459   0.01267  Uiso   1.00
O25    O     0.33333   0.66666   0.25000   0.01267  Uiso   1.00
O26    O     0.66667   0.33334   0.75000   0.01267  Uiso   1.00
