data_image0
_cell_length_a       9.8618
_cell_length_b       11.705
_cell_length_c       17.5577
_cell_angle_alpha    78.366
_cell_angle_beta     84.12
_cell_angle_gamma    84.769

_symmetry_space_group_name_H-M    "P 1"
_symmetry_int_tables_number       1

loop_
  _symmetry_equiv_pos_as_xyz
  'x, y, z'

loop_
  _atom_site_label
  _atom_site_occupancy
  _atom_site_fract_x
  _atom_site_fract_y
  _atom_site_fract_z
  _atom_site_thermal_displace_type
  _atom_site_B_iso_or_equiv
  _atom_site_type_symbol
  Ag1      1.0000 0.43070  0.11595  0.93473  Biso   1.000  Ag
  Ag2      1.0000 0.24097  0.09975  0.52075  Biso   1.000  Ag
  S1       1.0000 0.82942  0.92743  0.93279  Biso   1.000  S
  S2       1.0000 0.92174  0.15501  0.92474  Biso   1.000  S
  S3       1.0000 0.65656  0.09632  0.01522  Biso   1.000  S
  S4       1.0000 0.18892  0.10378  0.82984  Biso   1.000  S
  S5       1.0000 0.07723  0.83781  0.84374  Biso   1.000  S
  S6       1.0000 0.56559  0.39424  0.84337  Biso   1.000  S
  S7       1.0000 0.40018  0.56344  0.91645  Biso   1.000  S
  S8       1.0000 0.32999  0.31487  0.95657  Biso   1.000  S
  S9       1.0000 0.57273  0.76378  0.84528  Biso   1.000  S
  S10      1.0000 0.76301  0.56997  0.75576  Biso   1.000  S
  N1       1.0000 0.11910  0.19390  0.61450  Biso   1.000  N
  N2       1.0000 0.87520  0.92200  0.57690  Biso   1.000  N
  N3       1.0000 0.35660  0.95110  0.59020  Biso   1.000  N
  N4       1.0000 0.66760  0.72570  0.54260  Biso   1.000  N
  C1       1.0000 0.79550  0.06050  0.95860  Biso   1.000  C
  C2       1.0000 0.02910  0.06260  0.87480  Biso   1.000  C
  C3       1.0000 0.98540  0.95420  0.87890  Biso   1.000  C
  C4       1.0000 0.15640  0.25970  0.79480  Biso   1.000  C
  C5       1.0000 0.05190  0.29130  0.73450  Biso   1.000  C
  C6       1.0000 0.08970  0.23840  0.66640  Biso   1.000  C
  C7       1.0000 0.97820  0.82900  0.76350  Biso   1.000  C
  C8       1.0000 0.01070  0.92720  0.69520  Biso   1.000  C
  C9       1.0000 0.93400  0.92420  0.62860  Biso   1.000  C
  C10      1.0000 0.42720  0.42000  0.90660  Biso   1.000  C
  C11      1.0000 0.53630  0.61750  0.85190  Biso   1.000  C
  C12      1.0000 0.61310  0.53820  0.81650  Biso   1.000  C
  C13      1.0000 0.45660  0.83980  0.77470  Biso   1.000  C
  C14      1.0000 0.50990  0.82560  0.69220  Biso   1.000  C
  C15      1.0000 0.42280  0.89430  0.63410  Biso   1.000  C
  C16      1.0000 0.75730  0.48090  0.68250  Biso   1.000  C
  C17      1.0000 0.64420  0.51830  0.62760  Biso   1.000  C
  C18      1.0000 0.65830  0.63490  0.57950  Biso   1.000  C
  H1       1.0000 0.24800  0.28700  0.77200  Biso   1.000  H
  H2       1.0000 0.12800  0.29700  0.83800  Biso   1.000  H
  H3       1.0000 0.04400  0.37100  0.71800  Biso   1.000  H
  H4       1.0000 0.96500  0.26700  0.75600  Biso   1.000  H
  H5       1.0000 0.88300  0.83300  0.78000  Biso   1.000  H
  H6       1.0000 0.00400  0.75700  0.75300  Biso   1.000  H
  H7       1.0000 0.10100  0.92200  0.68000  Biso   1.000  H
  H8       1.0000 0.99200  0.00100  0.71000  Biso   1.000  H
  H9       1.0000 0.45600  0.92100  0.78000  Biso   1.000  H
  H10      1.0000 0.37100  0.81000  0.79000  Biso   1.000  H
  H11      1.0000 0.51100  0.74700  0.68900  Biso   1.000  H
  H12      1.0000 0.59400  0.85300  0.67900  Biso   1.000  H
  H13      1.0000 0.75000  0.39300  0.70700  Biso   1.000  H
  H14      1.0000 0.83800  0.49000  0.65200  Biso   1.000  H
  H15      1.0000 0.55900  0.51900  0.65500  Biso   1.000  H
  H16      1.0000 0.64900  0.46600  0.59300  Biso   1.000  H
  Ag3      1.0000 0.56930  0.88405  0.06527  Biso   1.000  Ag
  Ag4      1.0000 0.75903  0.90025  0.47925  Biso   1.000  Ag
  S11      1.0000 0.17058  0.07257  0.06721  Biso   1.000  S
  S12      1.0000 0.07826  0.84499  0.07526  Biso   1.000  S
  S13      1.0000 0.34344  0.90368  0.98478  Biso   1.000  S
  S14      1.0000 0.81108  0.89622  0.17016  Biso   1.000  S
  S15      1.0000 0.92277  0.16219  0.15626  Biso   1.000  S
  S16      1.0000 0.43441  0.60576  0.15663  Biso   1.000  S
  S17      1.0000 0.59982  0.43656  0.08355  Biso   1.000  S
  S18      1.0000 0.67001  0.68513  0.04343  Biso   1.000  S
  S19      1.0000 0.42727  0.23622  0.15472  Biso   1.000  S
  S20      1.0000 0.23699  0.43003  0.24424  Biso   1.000  S
  N5       1.0000 0.88090  0.80610  0.38550  Biso   1.000  N
  N6       1.0000 0.12480  0.07800  0.42310  Biso   1.000  N
  N7       1.0000 0.64340  0.04890  0.40980  Biso   1.000  N
  N8       1.0000 0.33240  0.27430  0.45740  Biso   1.000  N
  C19      1.0000 0.20450  0.93950  0.04140  Biso   1.000  C
  C20      1.0000 0.97090  0.93740  0.12520  Biso   1.000  C
  C21      1.0000 0.01460  0.04580  0.12110  Biso   1.000  C
  C22      1.0000 0.84360  0.74030  0.20520  Biso   1.000  C
  C23      1.0000 0.94810  0.70870  0.26550  Biso   1.000  C
  C24      1.0000 0.91030  0.76160  0.33360  Biso   1.000  C
  C25      1.0000 0.02180  0.17100  0.23650  Biso   1.000  C
  C26      1.0000 0.98930  0.07280  0.30480  Biso   1.000  C
  C27      1.0000 0.06600  0.07580  0.37140  Biso   1.000  C
  C28      1.0000 0.57280  0.58000  0.09340  Biso   1.000  C
  C29      1.0000 0.46370  0.38250  0.14810  Biso   1.000  C
  C30      1.0000 0.38690  0.46180  0.18350  Biso   1.000  C
  C31      1.0000 0.54340  0.16020  0.22530  Biso   1.000  C
  C32      1.0000 0.49010  0.17440  0.30780  Biso   1.000  C
  C33      1.0000 0.57720  0.10570  0.36590  Biso   1.000  C
  C34      1.0000 0.24270  0.51910  0.31750  Biso   1.000  C
  C35      1.0000 0.35580  0.48170  0.37240  Biso   1.000  C
  C36      1.0000 0.34170  0.36510  0.42050  Biso   1.000  C
  H17      1.0000 0.75200  0.71300  0.22800  Biso   1.000  H
  H18      1.0000 0.87200  0.70300  0.16200  Biso   1.000  H
  H19      1.0000 0.95600  0.62900  0.28200  Biso   1.000  H
  H20      1.0000 0.03500  0.73300  0.24400  Biso   1.000  H
  H21      1.0000 0.11700  0.16700  0.22000  Biso   1.000  H
  H22      1.0000 0.99600  0.24300  0.24700  Biso   1.000  H
  H23      1.0000 0.89900  0.07800  0.32000  Biso   1.000  H
  H24      1.0000 0.00800  0.99900  0.29000  Biso   1.000  H
  H25      1.0000 0.54400  0.07900  0.22000  Biso   1.000  H
  H26      1.0000 0.62900  0.19000  0.21000  Biso   1.000  H
  H27      1.0000 0.48900  0.25300  0.31100  Biso   1.000  H
  H28      1.0000 0.40600  0.14700  0.32100  Biso   1.000  H
  H29      1.0000 0.25000  0.60700  0.29300  Biso   1.000  H
  H30      1.0000 0.16200  0.51000  0.34800  Biso   1.000  H
  H31      1.0000 0.44100  0.48100  0.34500  Biso   1.000  H
  H32      1.0000 0.35100  0.53400  0.40700  Biso   1.000  H
