data_image0
_cell_length_a       13.0005
_cell_length_b       13.0005
_cell_length_c       30.2002
_cell_angle_alpha    90
_cell_angle_beta     90
_cell_angle_gamma    90

_symmetry_space_group_name_H-M    "P 1"
_symmetry_int_tables_number       1

loop_
  _symmetry_equiv_pos_as_xyz
  'x, y, z'

loop_
  _atom_site_label
  _atom_site_occupancy
  _atom_site_fract_x
  _atom_site_fract_y
  _atom_site_fract_z
  _atom_site_thermal_displace_type
  _atom_site_B_iso_or_equiv
  _atom_site_type_symbol
  Co1      1.0000 0.89540  0.95131  0.45964  Biso   1.000  Co
  C1       1.0000 0.10650  0.91590  0.37830  Biso   1.000  C
  C2       1.0000 0.15020  0.83280  0.40820  Biso   1.000  C
  C3       1.0000 0.07710  0.80900  0.44830  Biso   1.000  C
  C4       1.0000 0.14000  0.73350  0.47670  Biso   1.000  C
  C5       1.0000 0.08010  0.68410  0.51350  Biso   1.000  C
  C6       1.0000 0.97850  0.75570  0.43140  Biso   1.000  C
  O1       1.0000 0.10960  0.00930  0.39071  Biso   1.000  O
  O2       1.0000 0.06970  0.88930  0.34092  Biso   1.000  O
  O3       1.0000 0.05430  0.90110  0.47128  Biso   1.000  O
  O4       1.0000 0.89520  0.80110  0.43768  Biso   1.000  O
  O5       1.0000 0.99070  0.67140  0.41440  Biso   1.000  O
  O6       1.0000 0.03730  0.73680  0.54193  Biso   1.000  O
  O7       1.0000 0.07530  0.58480  0.51430  Biso   1.000  O
  H1       1.0000 0.21710  0.85610  0.41920  Biso   1.000  H
  H2       1.0000 0.15810  0.77010  0.39160  Biso   1.000  H
  H3       1.0000 0.19460  0.77260  0.48990  Biso   1.000  H
  H4       1.0000 0.16970  0.68100  0.45860  Biso   1.000  H
  Co2      1.0000 0.39540  0.45131  0.95964  Biso   1.000  Co
  C7       1.0000 0.60650  0.41590  0.87830  Biso   1.000  C
  C8       1.0000 0.65020  0.33280  0.90820  Biso   1.000  C
  C9       1.0000 0.57710  0.30900  0.94830  Biso   1.000  C
  C10      1.0000 0.64000  0.23350  0.97670  Biso   1.000  C
  C11      1.0000 0.58010  0.18410  0.01350  Biso   1.000  C
  C12      1.0000 0.47850  0.25570  0.93140  Biso   1.000  C
  O8       1.0000 0.60960  0.50930  0.89071  Biso   1.000  O
  O9       1.0000 0.56970  0.38930  0.84092  Biso   1.000  O
  O10      1.0000 0.55430  0.40110  0.97128  Biso   1.000  O
  O11      1.0000 0.39520  0.30110  0.93768  Biso   1.000  O
  O12      1.0000 0.49070  0.17140  0.91440  Biso   1.000  O
  O13      1.0000 0.53730  0.23680  0.04193  Biso   1.000  O
  O14      1.0000 0.57530  0.08480  0.01430  Biso   1.000  O
  H5       1.0000 0.71710  0.35610  0.91920  Biso   1.000  H
  H6       1.0000 0.65810  0.27010  0.89160  Biso   1.000  H
  H7       1.0000 0.69460  0.27260  0.98990  Biso   1.000  H
  H8       1.0000 0.66970  0.18100  0.95860  Biso   1.000  H
  Co3      1.0000 0.10460  0.04869  0.45964  Biso   1.000  Co
  C13      1.0000 0.89350  0.08410  0.37830  Biso   1.000  C
  C14      1.0000 0.84980  0.16720  0.40820  Biso   1.000  C
  C15      1.0000 0.92290  0.19100  0.44830  Biso   1.000  C
  C16      1.0000 0.86000  0.26650  0.47670  Biso   1.000  C
  C17      1.0000 0.91990  0.31590  0.51350  Biso   1.000  C
  C18      1.0000 0.02150  0.24430  0.43140  Biso   1.000  C
  O15      1.0000 0.89040  0.99070  0.39071  Biso   1.000  O
  O16      1.0000 0.93030  0.11070  0.34092  Biso   1.000  O
  O17      1.0000 0.94570  0.09890  0.47128  Biso   1.000  O
  O18      1.0000 0.10480  0.19890  0.43768  Biso   1.000  O
  O19      1.0000 0.00930  0.32860  0.41440  Biso   1.000  O
  O20      1.0000 0.96270  0.26320  0.54193  Biso   1.000  O
  O21      1.0000 0.92470  0.41520  0.51430  Biso   1.000  O
  H9       1.0000 0.78290  0.14390  0.41920  Biso   1.000  H
  H10      1.0000 0.84190  0.22990  0.39160  Biso   1.000  H
  H11      1.0000 0.80540  0.22740  0.48990  Biso   1.000  H
  H12      1.0000 0.83030  0.31900  0.45860  Biso   1.000  H
  Co4      1.0000 0.60460  0.54869  0.95964  Biso   1.000  Co
  C19      1.0000 0.39350  0.58410  0.87830  Biso   1.000  C
  C20      1.0000 0.34980  0.66720  0.90820  Biso   1.000  C
  C21      1.0000 0.42290  0.69100  0.94830  Biso   1.000  C
  C22      1.0000 0.36000  0.76650  0.97670  Biso   1.000  C
  C23      1.0000 0.41990  0.81590  0.01350  Biso   1.000  C
  C24      1.0000 0.52150  0.74430  0.93140  Biso   1.000  C
  O22      1.0000 0.39040  0.49070  0.89071  Biso   1.000  O
  O23      1.0000 0.43030  0.61070  0.84092  Biso   1.000  O
  O24      1.0000 0.44570  0.59890  0.97128  Biso   1.000  O
  O25      1.0000 0.60480  0.69890  0.93768  Biso   1.000  O
  O26      1.0000 0.50930  0.82860  0.91440  Biso   1.000  O
  O27      1.0000 0.46270  0.76320  0.04193  Biso   1.000  O
  O28      1.0000 0.42470  0.91520  0.01430  Biso   1.000  O
  H13      1.0000 0.28290  0.64390  0.91920  Biso   1.000  H
  H14      1.0000 0.34190  0.72990  0.89160  Biso   1.000  H
  H15      1.0000 0.30540  0.72740  0.98990  Biso   1.000  H
  H16      1.0000 0.33030  0.81900  0.95860  Biso   1.000  H
  Co5      1.0000 0.95131  0.10460  0.54036  Biso   1.000  Co
  C25      1.0000 0.91590  0.89350  0.62170  Biso   1.000  C
  C26      1.0000 0.83280  0.84980  0.59180  Biso   1.000  C
  C27      1.0000 0.80900  0.92290  0.55170  Biso   1.000  C
  C28      1.0000 0.73350  0.86000  0.52330  Biso   1.000  C
  C29      1.0000 0.68410  0.91990  0.48650  Biso   1.000  C
  C30      1.0000 0.75570  0.02150  0.56860  Biso   1.000  C
  O29      1.0000 0.00930  0.89040  0.60929  Biso   1.000  O
  O30      1.0000 0.88930  0.93030  0.65908  Biso   1.000  O
  O31      1.0000 0.90110  0.94570  0.52872  Biso   1.000  O
  O32      1.0000 0.80110  0.10480  0.56232  Biso   1.000  O
  O33      1.0000 0.67140  0.00930  0.58560  Biso   1.000  O
  O34      1.0000 0.73680  0.96270  0.45807  Biso   1.000  O
  O35      1.0000 0.58480  0.92470  0.48570  Biso   1.000  O
  H17      1.0000 0.85610  0.78290  0.58080  Biso   1.000  H
  H18      1.0000 0.77010  0.84190  0.60840  Biso   1.000  H
  H19      1.0000 0.77260  0.80540  0.51010  Biso   1.000  H
  H20      1.0000 0.68100  0.83030  0.54140  Biso   1.000  H
  Co6      1.0000 0.45131  0.60460  0.04036  Biso   1.000  Co
  C31      1.0000 0.41590  0.39350  0.12170  Biso   1.000  C
  C32      1.0000 0.33280  0.34980  0.09180  Biso   1.000  C
  C33      1.0000 0.30900  0.42290  0.05170  Biso   1.000  C
  C34      1.0000 0.23350  0.36000  0.02330  Biso   1.000  C
  C35      1.0000 0.18410  0.41990  0.98650  Biso   1.000  C
  C36      1.0000 0.25570  0.52150  0.06860  Biso   1.000  C
  O36      1.0000 0.50930  0.39040  0.10929  Biso   1.000  O
  O37      1.0000 0.38930  0.43030  0.15908  Biso   1.000  O
  O38      1.0000 0.40110  0.44570  0.02872  Biso   1.000  O
  O39      1.0000 0.30110  0.60480  0.06232  Biso   1.000  O
  O40      1.0000 0.17140  0.50930  0.08560  Biso   1.000  O
  O41      1.0000 0.23680  0.46270  0.95807  Biso   1.000  O
  O42      1.0000 0.08480  0.42470  0.98570  Biso   1.000  O
  H21      1.0000 0.35610  0.28290  0.08080  Biso   1.000  H
  H22      1.0000 0.27010  0.34190  0.10840  Biso   1.000  H
  H23      1.0000 0.27260  0.30540  0.01010  Biso   1.000  H
  H24      1.0000 0.18100  0.33030  0.04140  Biso   1.000  H
  Co7      1.0000 0.04869  0.89540  0.54036  Biso   1.000  Co
  C37      1.0000 0.08410  0.10650  0.62170  Biso   1.000  C
  C38      1.0000 0.16720  0.15020  0.59180  Biso   1.000  C
  C39      1.0000 0.19100  0.07710  0.55170  Biso   1.000  C
  C40      1.0000 0.26650  0.14000  0.52330  Biso   1.000  C
  C41      1.0000 0.31590  0.08010  0.48650  Biso   1.000  C
  C42      1.0000 0.24430  0.97850  0.56860  Biso   1.000  C
  O43      1.0000 0.99070  0.10960  0.60929  Biso   1.000  O
  O44      1.0000 0.11070  0.06970  0.65908  Biso   1.000  O
  O45      1.0000 0.09890  0.05430  0.52872  Biso   1.000  O
  O46      1.0000 0.19890  0.89520  0.56232  Biso   1.000  O
  O47      1.0000 0.32860  0.99070  0.58560  Biso   1.000  O
  O48      1.0000 0.26320  0.03730  0.45807  Biso   1.000  O
  O49      1.0000 0.41520  0.07530  0.48570  Biso   1.000  O
  H25      1.0000 0.14390  0.21710  0.58080  Biso   1.000  H
  H26      1.0000 0.22990  0.15810  0.60840  Biso   1.000  H
  H27      1.0000 0.22740  0.19460  0.51010  Biso   1.000  H
  H28      1.0000 0.31900  0.16970  0.54140  Biso   1.000  H
  Co8      1.0000 0.54869  0.39540  0.04036  Biso   1.000  Co
  C43      1.0000 0.58410  0.60650  0.12170  Biso   1.000  C
  C44      1.0000 0.66720  0.65020  0.09180  Biso   1.000  C
  C45      1.0000 0.69100  0.57710  0.05170  Biso   1.000  C
  C46      1.0000 0.76650  0.64000  0.02330  Biso   1.000  C
  C47      1.0000 0.81590  0.58010  0.98650  Biso   1.000  C
  C48      1.0000 0.74430  0.47850  0.06860  Biso   1.000  C
  O50      1.0000 0.49070  0.60960  0.10929  Biso   1.000  O
  O51      1.0000 0.61070  0.56970  0.15908  Biso   1.000  O
  O52      1.0000 0.59890  0.55430  0.02872  Biso   1.000  O
  O53      1.0000 0.69890  0.39520  0.06232  Biso   1.000  O
  O54      1.0000 0.82860  0.49070  0.08560  Biso   1.000  O
  O55      1.0000 0.76320  0.53730  0.95807  Biso   1.000  O
  O56      1.0000 0.91520  0.57530  0.98570  Biso   1.000  O
  H29      1.0000 0.64390  0.71710  0.08080  Biso   1.000  H
  H30      1.0000 0.72990  0.65810  0.10840  Biso   1.000  H
  H31      1.0000 0.72740  0.69460  0.01010  Biso   1.000  H
  H32      1.0000 0.81900  0.66970  0.04140  Biso   1.000  H
  Co9      1.0000 0.60460  0.95131  0.29036  Biso   1.000  Co
  C49      1.0000 0.39350  0.91590  0.37170  Biso   1.000  C
  C50      1.0000 0.34980  0.83280  0.34180  Biso   1.000  C
  C51      1.0000 0.42290  0.80900  0.30170  Biso   1.000  C
  C52      1.0000 0.36000  0.73350  0.27330  Biso   1.000  C
  C53      1.0000 0.41990  0.68410  0.23650  Biso   1.000  C
  C54      1.0000 0.52150  0.75570  0.31860  Biso   1.000  C
  O57      1.0000 0.39040  0.00930  0.35929  Biso   1.000  O
  O58      1.0000 0.43030  0.88930  0.40908  Biso   1.000  O
  O59      1.0000 0.44570  0.90110  0.27872  Biso   1.000  O
  O60      1.0000 0.60480  0.80110  0.31232  Biso   1.000  O
  O61      1.0000 0.50930  0.67140  0.33560  Biso   1.000  O
  O62      1.0000 0.46270  0.73680  0.20807  Biso   1.000  O
  O63      1.0000 0.42470  0.58480  0.23570  Biso   1.000  O
  H33      1.0000 0.28290  0.85610  0.33080  Biso   1.000  H
  H34      1.0000 0.34190  0.77010  0.35840  Biso   1.000  H
  H35      1.0000 0.30540  0.77260  0.26010  Biso   1.000  H
  H36      1.0000 0.33030  0.68100  0.29140  Biso   1.000  H
  Co10     1.0000 0.10460  0.45131  0.79036  Biso   1.000  Co
  C55      1.0000 0.89350  0.41590  0.87170  Biso   1.000  C
  C56      1.0000 0.84980  0.33280  0.84180  Biso   1.000  C
  C57      1.0000 0.92290  0.30900  0.80170  Biso   1.000  C
  C58      1.0000 0.86000  0.23350  0.77330  Biso   1.000  C
  C59      1.0000 0.91990  0.18410  0.73650  Biso   1.000  C
  C60      1.0000 0.02150  0.25570  0.81860  Biso   1.000  C
  O64      1.0000 0.89040  0.50930  0.85929  Biso   1.000  O
  O65      1.0000 0.93030  0.38930  0.90908  Biso   1.000  O
  O66      1.0000 0.94570  0.40110  0.77872  Biso   1.000  O
  O67      1.0000 0.10480  0.30110  0.81232  Biso   1.000  O
  O68      1.0000 0.00930  0.17140  0.83560  Biso   1.000  O
  O69      1.0000 0.96270  0.23680  0.70807  Biso   1.000  O
  O70      1.0000 0.92470  0.08480  0.73570  Biso   1.000  O
  H37      1.0000 0.78290  0.35610  0.83080  Biso   1.000  H
  H38      1.0000 0.84190  0.27010  0.85840  Biso   1.000  H
  H39      1.0000 0.80540  0.27260  0.76010  Biso   1.000  H
  H40      1.0000 0.83030  0.18100  0.79140  Biso   1.000  H
  Co11     1.0000 0.39540  0.04869  0.29036  Biso   1.000  Co
  C61      1.0000 0.60650  0.08410  0.37170  Biso   1.000  C
  C62      1.0000 0.65020  0.16720  0.34180  Biso   1.000  C
  C63      1.0000 0.57710  0.19100  0.30170  Biso   1.000  C
  C64      1.0000 0.64000  0.26650  0.27330  Biso   1.000  C
  C65      1.0000 0.58010  0.31590  0.23650  Biso   1.000  C
  C66      1.0000 0.47850  0.24430  0.31860  Biso   1.000  C
  O71      1.0000 0.60960  0.99070  0.35929  Biso   1.000  O
  O72      1.0000 0.56970  0.11070  0.40908  Biso   1.000  O
  O73      1.0000 0.55430  0.09890  0.27872  Biso   1.000  O
  O74      1.0000 0.39520  0.19890  0.31232  Biso   1.000  O
  O75      1.0000 0.49070  0.32860  0.33560  Biso   1.000  O
  O76      1.0000 0.53730  0.26320  0.20807  Biso   1.000  O
  O77      1.0000 0.57530  0.41520  0.23570  Biso   1.000  O
  H41      1.0000 0.71710  0.14390  0.33080  Biso   1.000  H
  H42      1.0000 0.65810  0.22990  0.35840  Biso   1.000  H
  H43      1.0000 0.69460  0.22740  0.26010  Biso   1.000  H
  H44      1.0000 0.66970  0.31900  0.29140  Biso   1.000  H
  Co12     1.0000 0.89540  0.54869  0.79036  Biso   1.000  Co
  C67      1.0000 0.10650  0.58410  0.87170  Biso   1.000  C
  C68      1.0000 0.15020  0.66720  0.84180  Biso   1.000  C
  C69      1.0000 0.07710  0.69100  0.80170  Biso   1.000  C
  C70      1.0000 0.14000  0.76650  0.77330  Biso   1.000  C
  C71      1.0000 0.08010  0.81590  0.73650  Biso   1.000  C
  C72      1.0000 0.97850  0.74430  0.81860  Biso   1.000  C
  O78      1.0000 0.10960  0.49070  0.85929  Biso   1.000  O
  O79      1.0000 0.06970  0.61070  0.90908  Biso   1.000  O
  O80      1.0000 0.05430  0.59890  0.77872  Biso   1.000  O
  O81      1.0000 0.89520  0.69890  0.81232  Biso   1.000  O
  O82      1.0000 0.99070  0.82860  0.83560  Biso   1.000  O
  O83      1.0000 0.03730  0.76320  0.70807  Biso   1.000  O
  O84      1.0000 0.07530  0.91520  0.73570  Biso   1.000  O
  H45      1.0000 0.21710  0.64390  0.83080  Biso   1.000  H
  H46      1.0000 0.15810  0.72990  0.85840  Biso   1.000  H
  H47      1.0000 0.19460  0.72740  0.76010  Biso   1.000  H
  H48      1.0000 0.16970  0.81900  0.79140  Biso   1.000  H
  Co13     1.0000 0.54869  0.10460  0.20964  Biso   1.000  Co
  C73      1.0000 0.58410  0.89350  0.12830  Biso   1.000  C
  C74      1.0000 0.66720  0.84980  0.15820  Biso   1.000  C
  C75      1.0000 0.69100  0.92290  0.19830  Biso   1.000  C
  C76      1.0000 0.76650  0.86000  0.22670  Biso   1.000  C
  C77      1.0000 0.81590  0.91990  0.26350  Biso   1.000  C
  C78      1.0000 0.74430  0.02150  0.18140  Biso   1.000  C
  O85      1.0000 0.49070  0.89040  0.14071  Biso   1.000  O
  O86      1.0000 0.61070  0.93030  0.09092  Biso   1.000  O
  O87      1.0000 0.59890  0.94570  0.22128  Biso   1.000  O
  O88      1.0000 0.69890  0.10480  0.18768  Biso   1.000  O
  O89      1.0000 0.82860  0.00930  0.16440  Biso   1.000  O
  O90      1.0000 0.76320  0.96270  0.29193  Biso   1.000  O
  O91      1.0000 0.91520  0.92470  0.26430  Biso   1.000  O
  H49      1.0000 0.64390  0.78290  0.16920  Biso   1.000  H
  H50      1.0000 0.72990  0.84190  0.14160  Biso   1.000  H
  H51      1.0000 0.72740  0.80540  0.23990  Biso   1.000  H
  H52      1.0000 0.81900  0.83030  0.20860  Biso   1.000  H
  Co14     1.0000 0.04869  0.60460  0.70964  Biso   1.000  Co
  C79      1.0000 0.08410  0.39350  0.62830  Biso   1.000  C
  C80      1.0000 0.16720  0.34980  0.65820  Biso   1.000  C
  C81      1.0000 0.19100  0.42290  0.69830  Biso   1.000  C
  C82      1.0000 0.26650  0.36000  0.72670  Biso   1.000  C
  C83      1.0000 0.31590  0.41990  0.76350  Biso   1.000  C
  C84      1.0000 0.24430  0.52150  0.68140  Biso   1.000  C
  O92      1.0000 0.99070  0.39040  0.64071  Biso   1.000  O
  O93      1.0000 0.11070  0.43030  0.59092  Biso   1.000  O
  O94      1.0000 0.09890  0.44570  0.72128  Biso   1.000  O
  O95      1.0000 0.19890  0.60480  0.68768  Biso   1.000  O
  O96      1.0000 0.32860  0.50930  0.66440  Biso   1.000  O
  O97      1.0000 0.26320  0.46270  0.79193  Biso   1.000  O
  O98      1.0000 0.41520  0.42470  0.76430  Biso   1.000  O
  H53      1.0000 0.14390  0.28290  0.66920  Biso   1.000  H
  H54      1.0000 0.22990  0.34190  0.64160  Biso   1.000  H
  H55      1.0000 0.22740  0.30540  0.73990  Biso   1.000  H
  H56      1.0000 0.31900  0.33030  0.70860  Biso   1.000  H
  Co15     1.0000 0.45131  0.89540  0.20964  Biso   1.000  Co
  C85      1.0000 0.41590  0.10650  0.12830  Biso   1.000  C
  C86      1.0000 0.33280  0.15020  0.15820  Biso   1.000  C
  C87      1.0000 0.30900  0.07710  0.19830  Biso   1.000  C
  C88      1.0000 0.23350  0.14000  0.22670  Biso   1.000  C
  C89      1.0000 0.18410  0.08010  0.26350  Biso   1.000  C
  C90      1.0000 0.25570  0.97850  0.18140  Biso   1.000  C
  O99      1.0000 0.50930  0.10960  0.14071  Biso   1.000  O
  O100     1.0000 0.38930  0.06970  0.09092  Biso   1.000  O
  O101     1.0000 0.40110  0.05430  0.22128  Biso   1.000  O
  O102     1.0000 0.30110  0.89520  0.18768  Biso   1.000  O
  O103     1.0000 0.17140  0.99070  0.16440  Biso   1.000  O
  O104     1.0000 0.23680  0.03730  0.29193  Biso   1.000  O
  O105     1.0000 0.08480  0.07530  0.26430  Biso   1.000  O
  H57      1.0000 0.35610  0.21710  0.16920  Biso   1.000  H
  H58      1.0000 0.27010  0.15810  0.14160  Biso   1.000  H
  H59      1.0000 0.27260  0.19460  0.23990  Biso   1.000  H
  H60      1.0000 0.18100  0.16970  0.20860  Biso   1.000  H
  Co16     1.0000 0.95131  0.39540  0.70964  Biso   1.000  Co
  C91      1.0000 0.91590  0.60650  0.62830  Biso   1.000  C
  C92      1.0000 0.83280  0.65020  0.65820  Biso   1.000  C
  C93      1.0000 0.80900  0.57710  0.69830  Biso   1.000  C
  C94      1.0000 0.73350  0.64000  0.72670  Biso   1.000  C
  C95      1.0000 0.68410  0.58010  0.76350  Biso   1.000  C
  C96      1.0000 0.75570  0.47850  0.68140  Biso   1.000  C
  O106     1.0000 0.00930  0.60960  0.64071  Biso   1.000  O
  O107     1.0000 0.88930  0.56970  0.59092  Biso   1.000  O
  O108     1.0000 0.90110  0.55430  0.72128  Biso   1.000  O
  O109     1.0000 0.80110  0.39520  0.68768  Biso   1.000  O
  O110     1.0000 0.67140  0.49070  0.66440  Biso   1.000  O
  O111     1.0000 0.73680  0.53730  0.79193  Biso   1.000  O
  O112     1.0000 0.58480  0.57530  0.76430  Biso   1.000  O
  H61      1.0000 0.85610  0.71710  0.66920  Biso   1.000  H
  H62      1.0000 0.77010  0.65810  0.64160  Biso   1.000  H
  H63      1.0000 0.77260  0.69460  0.73990  Biso   1.000  H
  H64      1.0000 0.68100  0.66970  0.70860  Biso   1.000  H
  Co17     1.0000 0.00000  0.00000  0.30781  Biso   1.000  Co
  Co18     1.0000 0.50000  0.50000  0.80781  Biso   1.000  Co
  Co19     1.0000 0.00000  0.00000  0.69219  Biso   1.000  Co
  Co20     1.0000 0.50000  0.50000  0.19219  Biso   1.000  Co
  Co21     1.0000 0.50000  0.00000  0.44219  Biso   1.000  Co
  Co22     1.0000 0.00000  0.50000  0.94219  Biso   1.000  Co
  Co23     1.0000 0.50000  0.00000  0.05781  Biso   1.000  Co
  Co24     1.0000 0.00000  0.50000  0.55781  Biso   1.000  Co
  K1       1.0000 0.75000  0.83690  0.37500  Biso   1.000  K
  K2       1.0000 0.25000  0.33690  0.87500  Biso   1.000  K
  K3       1.0000 0.25000  0.16310  0.37500  Biso   1.000  K
  K4       1.0000 0.75000  0.66310  0.87500  Biso   1.000  K
  K5       1.0000 0.83690  0.25000  0.62500  Biso   1.000  K
  K6       1.0000 0.16310  0.75000  0.62500  Biso   1.000  K
  K7       1.0000 0.66310  0.25000  0.12500  Biso   1.000  K
  K8       1.0000 0.33690  0.75000  0.12500  Biso   1.000  K
