data_RAZYIC_clean
_audit_creation_date              2014-07-02
_audit_creation_method            'Materials Studio'
_symmetry_space_group_name_H-M    'P1'
_symmetry_Int_Tables_number       1
_symmetry_cell_setting            triclinic
loop_
_symmetry_equiv_pos_as_xyz
  x,y,z
_cell_length_a                    13.1261
_cell_length_b                    17.1315
_cell_length_c                    17.1315
_cell_angle_alpha                 81.5605
_cell_angle_beta                  67.4742
_cell_angle_gamma                 67.4743
loop_
_atom_site_label
_atom_site_type_symbol
_atom_site_fract_x
_atom_site_fract_y
_atom_site_fract_z
_atom_site_U_iso_or_equiv
_atom_site_adp_type
_atom_site_occupancy
Cu1    Cu    0.36695   0.25000   0.76610   0.01267  Uiso   1.00
Cu2    Cu    0.88305   0.25000   0.73390   0.01267  Uiso   1.00
Cu3    Cu    0.63305   0.23390   0.75000   0.01267  Uiso   1.00
Cu4    Cu    0.11695   0.26610   0.75000   0.01267  Uiso   1.00
Cu5    Cu    0.63305   0.75000   0.23390   0.01267  Uiso   1.00
Cu6    Cu    0.11695   0.75000   0.26610   0.01267  Uiso   1.00
Cu7    Cu    0.36695   0.76610   0.25000   0.01267  Uiso   1.00
Cu8    Cu    0.88305   0.73390   0.25000   0.01267  Uiso   1.00
H1     H     0.21020   0.18250   0.94570   0.01267  Uiso   1.00
H2     H     0.25730   0.14590   0.85650   0.01267  Uiso   1.00
H3     H     0.26750   0.01600   0.90240   0.01267  Uiso   1.00
H4     H     0.14620   0.07500   0.95860   0.01267  Uiso   1.00
H5     H     0.83840   0.31750   0.55430   0.01267  Uiso   1.00
H6     H     0.75970   0.35410   0.64350   0.01267  Uiso   1.00
H7     H     0.68590   0.48400   0.59760   0.01267  Uiso   1.00
H8     H     0.67980   0.42500   0.54140   0.01267  Uiso   1.00
H9     H     0.65590   0.05430   0.68250   0.01267  Uiso   1.00
H10    H     0.61380   0.14350   0.64590   0.01267  Uiso   1.00
H11    H     0.66990   0.09760   0.51600   0.01267  Uiso   1.00
H12    H     0.60480   0.04140   0.57500   0.01267  Uiso   1.00
H13    H     0.89270   0.44570   0.81750   0.01267  Uiso   1.00
H14    H     0.90320   0.35650   0.85410   0.01267  Uiso   1.00
H15    H     0.78350   0.40240   0.98400   0.01267  Uiso   1.00
H16    H     0.72120   0.45860   0.92500   0.01267  Uiso   1.00
H17    H     0.16160   0.44570   0.68250   0.01267  Uiso   1.00
H18    H     0.24030   0.35650   0.64590   0.01267  Uiso   1.00
H19    H     0.31410   0.40240   0.51600   0.01267  Uiso   1.00
H20    H     0.32020   0.45860   0.57500   0.01267  Uiso   1.00
H21    H     0.78980   0.05430   0.81750   0.01267  Uiso   1.00
H22    H     0.74270   0.14350   0.85410   0.01267  Uiso   1.00
H23    H     0.73250   0.09760   0.98400   0.01267  Uiso   1.00
H24    H     0.85380   0.04140   0.92500   0.01267  Uiso   1.00
H25    H     0.10730   0.18250   0.55430   0.01267  Uiso   1.00
H26    H     0.09680   0.14590   0.64350   0.01267  Uiso   1.00
H27    H     0.21650   0.01600   0.59760   0.01267  Uiso   1.00
H28    H     0.27880   0.07500   0.54140   0.01267  Uiso   1.00
H29    H     0.34410   0.31750   0.94570   0.01267  Uiso   1.00
H30    H     0.38620   0.35410   0.85650   0.01267  Uiso   1.00
H31    H     0.33010   0.48400   0.90240   0.01267  Uiso   1.00
H32    H     0.39520   0.42500   0.95860   0.01267  Uiso   1.00
H33    H     0.78980   0.81750   0.05430   0.01267  Uiso   1.00
H34    H     0.74270   0.85410   0.14350   0.01267  Uiso   1.00
H35    H     0.73250   0.98400   0.09760   0.01267  Uiso   1.00
H36    H     0.85380   0.92500   0.04140   0.01267  Uiso   1.00
H37    H     0.16160   0.68250   0.44570   0.01267  Uiso   1.00
H38    H     0.24030   0.64590   0.35650   0.01267  Uiso   1.00
H39    H     0.31410   0.51600   0.40240   0.01267  Uiso   1.00
H40    H     0.32020   0.57500   0.45860   0.01267  Uiso   1.00
H41    H     0.34410   0.94570   0.31750   0.01267  Uiso   1.00
H42    H     0.38620   0.85650   0.35410   0.01267  Uiso   1.00
H43    H     0.33010   0.90240   0.48400   0.01267  Uiso   1.00
H44    H     0.39520   0.95860   0.42500   0.01267  Uiso   1.00
H45    H     0.10730   0.55430   0.18250   0.01267  Uiso   1.00
H46    H     0.09680   0.64350   0.14590   0.01267  Uiso   1.00
H47    H     0.21650   0.59760   0.01600   0.01267  Uiso   1.00
H48    H     0.27880   0.54140   0.07500   0.01267  Uiso   1.00
H49    H     0.83840   0.55430   0.31750   0.01267  Uiso   1.00
H50    H     0.75970   0.64350   0.35410   0.01267  Uiso   1.00
H51    H     0.68590   0.59760   0.48400   0.01267  Uiso   1.00
H52    H     0.67980   0.54140   0.42500   0.01267  Uiso   1.00
H53    H     0.21020   0.94570   0.18250   0.01267  Uiso   1.00
H54    H     0.25730   0.85650   0.14590   0.01267  Uiso   1.00
H55    H     0.26750   0.90240   0.01600   0.01267  Uiso   1.00
H56    H     0.14620   0.95860   0.07500   0.01267  Uiso   1.00
H57    H     0.89270   0.81750   0.44570   0.01267  Uiso   1.00
H58    H     0.90320   0.85410   0.35650   0.01267  Uiso   1.00
H59    H     0.78350   0.98400   0.40240   0.01267  Uiso   1.00
H60    H     0.72120   0.92500   0.45860   0.01267  Uiso   1.00
H61    H     0.65590   0.68250   0.05430   0.01267  Uiso   1.00
H62    H     0.61380   0.64590   0.14350   0.01267  Uiso   1.00
H63    H     0.66990   0.51600   0.09760   0.01267  Uiso   1.00
H64    H     0.60480   0.57500   0.04140   0.01267  Uiso   1.00
H65    H     0.20780   0.06510   0.06510   0.01267  Uiso   1.00
H66    H     0.83800   0.43490   0.43490   0.01267  Uiso   1.00
H67    H     0.77290   0.93490   0.56510   0.01267  Uiso   1.00
H68    H     0.77290   0.56510   0.93490   0.01267  Uiso   1.00
H69    H     0.16200   0.56510   0.56510   0.01267  Uiso   1.00
H70    H     0.79220   0.93490   0.93490   0.01267  Uiso   1.00
H71    H     0.22710   0.06510   0.43490   0.01267  Uiso   1.00
H72    H     0.22710   0.43490   0.06510   0.01267  Uiso   1.00
C1     C     0.38670   0.11950   0.90170   0.01267  Uiso   1.00
C2     C     0.44130   0.05910   0.95270   0.01267  Uiso   1.00
C3     C     0.26320   0.13430   0.91110   0.01267  Uiso   1.00
C4     C     0.22980   0.05850   0.94470   0.01267  Uiso   1.00
C5     C     0.90790   0.38050   0.59830   0.01267  Uiso   1.00
C6     C     0.95310   0.44090   0.54730   0.01267  Uiso   1.00
C7     C     0.80860   0.36570   0.58890   0.01267  Uiso   1.00
C8     C     0.73300   0.44150   0.55530   0.01267  Uiso   1.00
C9     C     0.78840   0.09830   0.61950   0.01267  Uiso   1.00
C10    C     0.89400   0.04730   0.55910   0.01267  Uiso   1.00
C11    C     0.67430   0.08890   0.63430   0.01267  Uiso   1.00
C12    C     0.67450   0.05530   0.55850   0.01267  Uiso   1.00
C13    C     0.00620   0.40170   0.88050   0.01267  Uiso   1.00
C14    C     0.00040   0.45270   0.94090   0.01267  Uiso   1.00
C15    C     0.89750   0.41110   0.86570   0.01267  Uiso   1.00
C16    C     0.78830   0.44470   0.94150   0.01267  Uiso   1.00
C17    C     0.09210   0.40170   0.61950   0.01267  Uiso   1.00
C18    C     0.04690   0.45270   0.55910   0.01267  Uiso   1.00
C19    C     0.19140   0.41110   0.63430   0.01267  Uiso   1.00
C20    C     0.26700   0.44470   0.55850   0.01267  Uiso   1.00
C21    C     0.61330   0.09830   0.88050   0.01267  Uiso   1.00
C22    C     0.55870   0.04730   0.94090   0.01267  Uiso   1.00
C23    C     0.73680   0.08890   0.86570   0.01267  Uiso   1.00
C24    C     0.77020   0.05530   0.94150   0.01267  Uiso   1.00
C25    C     0.99380   0.11950   0.59830   0.01267  Uiso   1.00
C26    C     0.99960   0.05910   0.54730   0.01267  Uiso   1.00
C27    C     0.10250   0.13430   0.58890   0.01267  Uiso   1.00
C28    C     0.21170   0.05850   0.55530   0.01267  Uiso   1.00
C29    C     0.21160   0.38050   0.90170   0.01267  Uiso   1.00
C30    C     0.10600   0.44090   0.95270   0.01267  Uiso   1.00
C31    C     0.32570   0.36570   0.91110   0.01267  Uiso   1.00
C32    C     0.32550   0.44150   0.94470   0.01267  Uiso   1.00
C33    C     0.61330   0.88050   0.09830   0.01267  Uiso   1.00
C34    C     0.55870   0.94090   0.04730   0.01267  Uiso   1.00
C35    C     0.73680   0.86570   0.08890   0.01267  Uiso   1.00
C36    C     0.77020   0.94150   0.05530   0.01267  Uiso   1.00
C37    C     0.09210   0.61950   0.40170   0.01267  Uiso   1.00
C38    C     0.04690   0.55910   0.45270   0.01267  Uiso   1.00
C39    C     0.19140   0.63430   0.41110   0.01267  Uiso   1.00
C40    C     0.26700   0.55850   0.44470   0.01267  Uiso   1.00
C41    C     0.21160   0.90170   0.38050   0.01267  Uiso   1.00
C42    C     0.10600   0.95270   0.44090   0.01267  Uiso   1.00
C43    C     0.32570   0.91110   0.36570   0.01267  Uiso   1.00
C44    C     0.32550   0.94470   0.44150   0.01267  Uiso   1.00
C45    C     0.99380   0.59830   0.11950   0.01267  Uiso   1.00
C46    C     0.99960   0.54730   0.05910   0.01267  Uiso   1.00
C47    C     0.10250   0.58890   0.13430   0.01267  Uiso   1.00
C48    C     0.21170   0.55530   0.05850   0.01267  Uiso   1.00
C49    C     0.90790   0.59830   0.38050   0.01267  Uiso   1.00
C50    C     0.95310   0.54730   0.44090   0.01267  Uiso   1.00
C51    C     0.80860   0.58890   0.36570   0.01267  Uiso   1.00
C52    C     0.73300   0.55530   0.44150   0.01267  Uiso   1.00
C53    C     0.38670   0.90170   0.11950   0.01267  Uiso   1.00
C54    C     0.44130   0.95270   0.05910   0.01267  Uiso   1.00
C55    C     0.26320   0.91110   0.13430   0.01267  Uiso   1.00
C56    C     0.22980   0.94470   0.05850   0.01267  Uiso   1.00
C57    C     0.00620   0.88050   0.40170   0.01267  Uiso   1.00
C58    C     0.00040   0.94090   0.45270   0.01267  Uiso   1.00
C59    C     0.89750   0.86570   0.41110   0.01267  Uiso   1.00
C60    C     0.78830   0.94150   0.44470   0.01267  Uiso   1.00
C61    C     0.78840   0.61950   0.09830   0.01267  Uiso   1.00
C62    C     0.89400   0.55910   0.04730   0.01267  Uiso   1.00
C63    C     0.67430   0.63430   0.08890   0.01267  Uiso   1.00
C64    C     0.67450   0.55850   0.05530   0.01267  Uiso   1.00
C65    C     0.38070   0.01150   0.01150   0.01267  Uiso   1.00
C66    C     0.25670   0.02280   0.02280   0.01267  Uiso   1.00
C67    C     0.90370   0.48850   0.48850   0.01267  Uiso   1.00
C68    C     0.80230   0.47720   0.47720   0.01267  Uiso   1.00
C69    C     0.89220   0.98850   0.51150   0.01267  Uiso   1.00
C70    C     0.77950   0.97720   0.52280   0.01267  Uiso   1.00
C71    C     0.89220   0.51150   0.98850   0.01267  Uiso   1.00
C72    C     0.77950   0.52280   0.97720   0.01267  Uiso   1.00
C73    C     0.09630   0.51150   0.51150   0.01267  Uiso   1.00
C74    C     0.19770   0.52280   0.52280   0.01267  Uiso   1.00
C75    C     0.61930   0.98850   0.98850   0.01267  Uiso   1.00
C76    C     0.74330   0.97720   0.97720   0.01267  Uiso   1.00
C77    C     0.10780   0.01150   0.48850   0.01267  Uiso   1.00
C78    C     0.22050   0.02280   0.47720   0.01267  Uiso   1.00
C79    C     0.10780   0.48850   0.01150   0.01267  Uiso   1.00
C80    C     0.22050   0.47720   0.02280   0.01267  Uiso   1.00
I1     I     0.50000   0.33278   0.66722   0.01267  Uiso   1.00
I2     I     0.00000   0.16722   0.83278   0.01267  Uiso   1.00
I3     I     0.66722   0.33278   0.83278   0.01267  Uiso   1.00
I4     I     0.33278   0.16722   0.66722   0.01267  Uiso   1.00
I5     I     0.50000   0.66722   0.33278   0.01267  Uiso   1.00
I6     I     0.00000   0.83278   0.16722   0.01267  Uiso   1.00
I7     I     0.33278   0.66722   0.16722   0.01267  Uiso   1.00
I8     I     0.66722   0.83278   0.33278   0.01267  Uiso   1.00
N1     N     0.44160   0.16510   0.84570   0.01267  Uiso   1.00
N2     N     0.95240   0.33490   0.65430   0.01267  Uiso   1.00
N3     N     0.78730   0.15430   0.66510   0.01267  Uiso   1.00
N4     N     0.10670   0.34570   0.83490   0.01267  Uiso   1.00
N5     N     0.04760   0.34570   0.66510   0.01267  Uiso   1.00
N6     N     0.55840   0.15430   0.83490   0.01267  Uiso   1.00
N7     N     0.89330   0.16510   0.65430   0.01267  Uiso   1.00
N8     N     0.21270   0.33490   0.84570   0.01267  Uiso   1.00
N9     N     0.55840   0.83490   0.15430   0.01267  Uiso   1.00
N10    N     0.04760   0.66510   0.34570   0.01267  Uiso   1.00
N11    N     0.21270   0.84570   0.33490   0.01267  Uiso   1.00
N12    N     0.89330   0.65430   0.16510   0.01267  Uiso   1.00
N13    N     0.95240   0.65430   0.33490   0.01267  Uiso   1.00
N14    N     0.44160   0.84570   0.16510   0.01267  Uiso   1.00
N15    N     0.10670   0.83490   0.34570   0.01267  Uiso   1.00
N16    N     0.78730   0.66510   0.15430   0.01267  Uiso   1.00
