data_image0
_cell_length_a       16.7824
_cell_length_b       16.7824
_cell_length_c       16.7824
_cell_angle_alpha    90
_cell_angle_beta     90
_cell_angle_gamma    90

_symmetry_space_group_name_H-M    "P 1"
_symmetry_int_tables_number       1

loop_
  _symmetry_equiv_pos_as_xyz
  'x, y, z'

loop_
  _atom_site_label
  _atom_site_occupancy
  _atom_site_fract_x
  _atom_site_fract_y
  _atom_site_fract_z
  _atom_site_thermal_displace_type
  _atom_site_B_iso_or_equiv
  _atom_site_type_symbol
  O1       1.0000 0.02625  0.59235  0.30515  Biso   1.000  O
  O2       1.0000 0.52625  0.09235  0.80515  Biso   1.000  O
  O3       1.0000 0.97375  0.40765  0.30515  Biso   1.000  O
  O4       1.0000 0.47375  0.90765  0.80515  Biso   1.000  O
  O5       1.0000 0.97375  0.59235  0.69485  Biso   1.000  O
  O6       1.0000 0.47375  0.09235  0.19485  Biso   1.000  O
  O7       1.0000 0.02625  0.40765  0.69485  Biso   1.000  O
  O8       1.0000 0.52625  0.90765  0.19485  Biso   1.000  O
  O9       1.0000 0.30515  0.02625  0.59235  Biso   1.000  O
  O10      1.0000 0.80515  0.52625  0.09235  Biso   1.000  O
  O11      1.0000 0.30515  0.97375  0.40765  Biso   1.000  O
  O12      1.0000 0.80515  0.47375  0.90765  Biso   1.000  O
  O13      1.0000 0.69485  0.97375  0.59235  Biso   1.000  O
  O14      1.0000 0.19485  0.47375  0.09235  Biso   1.000  O
  O15      1.0000 0.69485  0.02625  0.40765  Biso   1.000  O
  O16      1.0000 0.19485  0.52625  0.90765  Biso   1.000  O
  O17      1.0000 0.59235  0.30515  0.02625  Biso   1.000  O
  O18      1.0000 0.09235  0.80515  0.52625  Biso   1.000  O
  O19      1.0000 0.40765  0.30515  0.97375  Biso   1.000  O
  O20      1.0000 0.90765  0.80515  0.47375  Biso   1.000  O
  O21      1.0000 0.59235  0.69485  0.97375  Biso   1.000  O
  O22      1.0000 0.09235  0.19485  0.47375  Biso   1.000  O
  O23      1.0000 0.40765  0.69485  0.02625  Biso   1.000  O
  O24      1.0000 0.90765  0.19485  0.52625  Biso   1.000  O
  O25      1.0000 0.59235  0.02625  0.30515  Biso   1.000  O
  O26      1.0000 0.09235  0.52625  0.80515  Biso   1.000  O
  O27      1.0000 0.40765  0.97375  0.30515  Biso   1.000  O
  O28      1.0000 0.90765  0.47375  0.80515  Biso   1.000  O
  O29      1.0000 0.59235  0.97375  0.69485  Biso   1.000  O
  O30      1.0000 0.09235  0.47375  0.19485  Biso   1.000  O
  O31      1.0000 0.40765  0.02625  0.69485  Biso   1.000  O
  O32      1.0000 0.90765  0.52625  0.19485  Biso   1.000  O
  O33      1.0000 0.02625  0.30515  0.59235  Biso   1.000  O
  O34      1.0000 0.52625  0.80515  0.09235  Biso   1.000  O
  O35      1.0000 0.97375  0.30515  0.40765  Biso   1.000  O
  O36      1.0000 0.47375  0.80515  0.90765  Biso   1.000  O
  O37      1.0000 0.97375  0.69485  0.59235  Biso   1.000  O
  O38      1.0000 0.47375  0.19485  0.09235  Biso   1.000  O
  O39      1.0000 0.02625  0.69485  0.40765  Biso   1.000  O
  O40      1.0000 0.52625  0.19485  0.90765  Biso   1.000  O
  O41      1.0000 0.30515  0.59235  0.02625  Biso   1.000  O
  O42      1.0000 0.80515  0.09235  0.52625  Biso   1.000  O
  O43      1.0000 0.30515  0.40765  0.97375  Biso   1.000  O
  O44      1.0000 0.80515  0.90765  0.47375  Biso   1.000  O
  O45      1.0000 0.69485  0.59235  0.97375  Biso   1.000  O
  O46      1.0000 0.19485  0.09235  0.47375  Biso   1.000  O
  O47      1.0000 0.69485  0.40765  0.02625  Biso   1.000  O
  O48      1.0000 0.19485  0.90765  0.52625  Biso   1.000  O
  Al1      1.0000 0.00000  0.50000  0.50000  Biso   1.000  Al
  Al2      1.0000 0.50000  0.00000  0.00000  Biso   1.000  Al
  Al3      1.0000 0.50000  0.00000  0.50000  Biso   1.000  Al
  Al4      1.0000 0.00000  0.50000  0.00000  Biso   1.000  Al
  Al5      1.0000 0.50000  0.50000  0.00000  Biso   1.000  Al
  Al6      1.0000 0.00000  0.00000  0.50000  Biso   1.000  Al
  Mg1      1.0000 0.00000  0.50000  0.25000  Biso   1.000  Mg
  Mg2      1.0000 0.00000  0.50000  0.75000  Biso   1.000  Mg
  Mg3      1.0000 0.50000  0.00000  0.25000  Biso   1.000  Mg
  Mg4      1.0000 0.25000  0.00000  0.50000  Biso   1.000  Mg
  Mg5      1.0000 0.75000  0.00000  0.50000  Biso   1.000  Mg
  Mg6      1.0000 0.25000  0.50000  0.00000  Biso   1.000  Mg
  Mg7      1.0000 0.50000  0.25000  0.00000  Biso   1.000  Mg
  Mg8      1.0000 0.50000  0.75000  0.00000  Biso   1.000  Mg
  Mg9      1.0000 0.00000  0.25000  0.50000  Biso   1.000  Mg
  Mg10     1.0000 0.50000  0.00000  0.75000  Biso   1.000  Mg
  Mg11     1.0000 0.00000  0.75000  0.50000  Biso   1.000  Mg
  Mg12     1.0000 0.75000  0.50000  0.00000  Biso   1.000  Mg
  P1       1.0000 0.07057  0.62188  0.37812  Biso   1.000  P
  O49      1.0000 0.15690  0.64080  0.35920  Biso   1.000  O
  O50      1.0000 0.06720  0.55688  0.44312  Biso   1.000  O
  P2       1.0000 0.57057  0.12188  0.87812  Biso   1.000  P
  O51      1.0000 0.65690  0.14080  0.85920  Biso   1.000  O
  O52      1.0000 0.56720  0.05688  0.94312  Biso   1.000  O
  P3       1.0000 0.92943  0.37812  0.37812  Biso   1.000  P
  O53      1.0000 0.84310  0.35920  0.35920  Biso   1.000  O
  O54      1.0000 0.93280  0.44312  0.44312  Biso   1.000  O
  P4       1.0000 0.42943  0.87812  0.87812  Biso   1.000  P
  O55      1.0000 0.34310  0.85920  0.85920  Biso   1.000  O
  O56      1.0000 0.43280  0.94312  0.94312  Biso   1.000  O
  P5       1.0000 0.92943  0.62188  0.62188  Biso   1.000  P
  O57      1.0000 0.84310  0.64080  0.64080  Biso   1.000  O
  O58      1.0000 0.93280  0.55688  0.55688  Biso   1.000  O
  P6       1.0000 0.42943  0.12188  0.12188  Biso   1.000  P
  O59      1.0000 0.34310  0.14080  0.14080  Biso   1.000  O
  O60      1.0000 0.43280  0.05688  0.05688  Biso   1.000  O
  P7       1.0000 0.07057  0.37812  0.62188  Biso   1.000  P
  O61      1.0000 0.15690  0.35920  0.64080  Biso   1.000  O
  O62      1.0000 0.06720  0.44312  0.55688  Biso   1.000  O
  P8       1.0000 0.57057  0.87812  0.12188  Biso   1.000  P
  O63      1.0000 0.65690  0.85920  0.14080  Biso   1.000  O
  O64      1.0000 0.56720  0.94312  0.05688  Biso   1.000  O
  P9       1.0000 0.37812  0.07057  0.62188  Biso   1.000  P
  O65      1.0000 0.35920  0.15690  0.64080  Biso   1.000  O
  O66      1.0000 0.44312  0.06720  0.55688  Biso   1.000  O
  P10      1.0000 0.87812  0.57057  0.12188  Biso   1.000  P
  O67      1.0000 0.85920  0.65690  0.14080  Biso   1.000  O
  O68      1.0000 0.94312  0.56720  0.05688  Biso   1.000  O
  P11      1.0000 0.37812  0.92943  0.37812  Biso   1.000  P
  O69      1.0000 0.35920  0.84310  0.35920  Biso   1.000  O
  O70      1.0000 0.44312  0.93280  0.44312  Biso   1.000  O
  P12      1.0000 0.87812  0.42943  0.87812  Biso   1.000  P
  O71      1.0000 0.85920  0.34310  0.85920  Biso   1.000  O
  O72      1.0000 0.94312  0.43280  0.94312  Biso   1.000  O
  P13      1.0000 0.62188  0.92943  0.62188  Biso   1.000  P
  O73      1.0000 0.64080  0.84310  0.64080  Biso   1.000  O
  O74      1.0000 0.55688  0.93280  0.55688  Biso   1.000  O
  P14      1.0000 0.12188  0.42943  0.12188  Biso   1.000  P
  O75      1.0000 0.14080  0.34310  0.14080  Biso   1.000  O
  O76      1.0000 0.05688  0.43280  0.05688  Biso   1.000  O
  P15      1.0000 0.62188  0.07057  0.37812  Biso   1.000  P
  O77      1.0000 0.64080  0.15690  0.35920  Biso   1.000  O
  O78      1.0000 0.55688  0.06720  0.44312  Biso   1.000  O
  P16      1.0000 0.12188  0.57057  0.87812  Biso   1.000  P
  O79      1.0000 0.14080  0.65690  0.85920  Biso   1.000  O
  O80      1.0000 0.05688  0.56720  0.94312  Biso   1.000  O
  P17      1.0000 0.62188  0.37812  0.07057  Biso   1.000  P
  O81      1.0000 0.64080  0.35920  0.15690  Biso   1.000  O
  O82      1.0000 0.55688  0.44312  0.06720  Biso   1.000  O
  P18      1.0000 0.12188  0.87812  0.57057  Biso   1.000  P
  O83      1.0000 0.14080  0.85920  0.65690  Biso   1.000  O
  O84      1.0000 0.05688  0.94312  0.56720  Biso   1.000  O
  P19      1.0000 0.37812  0.37812  0.92943  Biso   1.000  P
  O85      1.0000 0.35920  0.35920  0.84310  Biso   1.000  O
  O86      1.0000 0.44312  0.44312  0.93280  Biso   1.000  O
  P20      1.0000 0.87812  0.87812  0.42943  Biso   1.000  P
  O87      1.0000 0.85920  0.85920  0.34310  Biso   1.000  O
  O88      1.0000 0.94312  0.94312  0.43280  Biso   1.000  O
  P21      1.0000 0.62188  0.62188  0.92943  Biso   1.000  P
  O89      1.0000 0.64080  0.64080  0.84310  Biso   1.000  O
  O90      1.0000 0.55688  0.55688  0.93280  Biso   1.000  O
  P22      1.0000 0.12188  0.12188  0.42943  Biso   1.000  P
  O91      1.0000 0.14080  0.14080  0.34310  Biso   1.000  O
  O92      1.0000 0.05688  0.05688  0.43280  Biso   1.000  O
  P23      1.0000 0.37812  0.62188  0.07057  Biso   1.000  P
  O93      1.0000 0.35920  0.64080  0.15690  Biso   1.000  O
  O94      1.0000 0.44312  0.55688  0.06720  Biso   1.000  O
  P24      1.0000 0.87812  0.12188  0.57057  Biso   1.000  P
  O95      1.0000 0.85920  0.14080  0.65690  Biso   1.000  O
  O96      1.0000 0.94312  0.05688  0.56720  Biso   1.000  O
