data_image0
_cell_length_a       16.8375
_cell_length_b       16.8375
_cell_length_c       16.8375
_cell_angle_alpha    90
_cell_angle_beta     90
_cell_angle_gamma    90

_symmetry_space_group_name_H-M    "P 1"
_symmetry_int_tables_number       1

loop_
  _symmetry_equiv_pos_as_xyz
  'x, y, z'

loop_
  _atom_site_label
  _atom_site_occupancy
  _atom_site_fract_x
  _atom_site_fract_y
  _atom_site_fract_z
  _atom_site_thermal_displace_type
  _atom_site_B_iso_or_equiv
  _atom_site_type_symbol
  O1       1.0000 0.80497  0.51783  0.90602  Biso   1.000  O
  O2       1.0000 0.30497  0.01783  0.40602  Biso   1.000  O
  O3       1.0000 0.19503  0.48217  0.90602  Biso   1.000  O
  O4       1.0000 0.69503  0.98217  0.40602  Biso   1.000  O
  O5       1.0000 0.19503  0.51783  0.09398  Biso   1.000  O
  O6       1.0000 0.69503  0.01783  0.59398  Biso   1.000  O
  O7       1.0000 0.80497  0.48217  0.09398  Biso   1.000  O
  O8       1.0000 0.30497  0.98217  0.59398  Biso   1.000  O
  O9       1.0000 0.90602  0.80497  0.51783  Biso   1.000  O
  O10      1.0000 0.40602  0.30497  0.01783  Biso   1.000  O
  O11      1.0000 0.90602  0.19503  0.48217  Biso   1.000  O
  O12      1.0000 0.40602  0.69503  0.98217  Biso   1.000  O
  O13      1.0000 0.09398  0.19503  0.51783  Biso   1.000  O
  O14      1.0000 0.59398  0.69503  0.01783  Biso   1.000  O
  O15      1.0000 0.09398  0.80497  0.48217  Biso   1.000  O
  O16      1.0000 0.59398  0.30497  0.98217  Biso   1.000  O
  O17      1.0000 0.51783  0.90602  0.80497  Biso   1.000  O
  O18      1.0000 0.01783  0.40602  0.30497  Biso   1.000  O
  O19      1.0000 0.48217  0.90602  0.19503  Biso   1.000  O
  O20      1.0000 0.98217  0.40602  0.69503  Biso   1.000  O
  O21      1.0000 0.51783  0.09398  0.19503  Biso   1.000  O
  O22      1.0000 0.01783  0.59398  0.69503  Biso   1.000  O
  O23      1.0000 0.48217  0.09398  0.80497  Biso   1.000  O
  O24      1.0000 0.98217  0.59398  0.30497  Biso   1.000  O
  O25      1.0000 0.51783  0.80497  0.90602  Biso   1.000  O
  O26      1.0000 0.01783  0.30497  0.40602  Biso   1.000  O
  O27      1.0000 0.48217  0.19503  0.90602  Biso   1.000  O
  O28      1.0000 0.98217  0.69503  0.40602  Biso   1.000  O
  O29      1.0000 0.51783  0.19503  0.09398  Biso   1.000  O
  O30      1.0000 0.01783  0.69503  0.59398  Biso   1.000  O
  O31      1.0000 0.48217  0.80497  0.09398  Biso   1.000  O
  O32      1.0000 0.98217  0.30497  0.59398  Biso   1.000  O
  O33      1.0000 0.80497  0.90602  0.51783  Biso   1.000  O
  O34      1.0000 0.30497  0.40602  0.01783  Biso   1.000  O
  O35      1.0000 0.19503  0.90602  0.48217  Biso   1.000  O
  O36      1.0000 0.69503  0.40602  0.98217  Biso   1.000  O
  O37      1.0000 0.19503  0.09398  0.51783  Biso   1.000  O
  O38      1.0000 0.69503  0.59398  0.01783  Biso   1.000  O
  O39      1.0000 0.80497  0.09398  0.48217  Biso   1.000  O
  O40      1.0000 0.30497  0.59398  0.98217  Biso   1.000  O
  O41      1.0000 0.90602  0.51783  0.80497  Biso   1.000  O
  O42      1.0000 0.40602  0.01783  0.30497  Biso   1.000  O
  O43      1.0000 0.90602  0.48217  0.19503  Biso   1.000  O
  O44      1.0000 0.40602  0.98217  0.69503  Biso   1.000  O
  O45      1.0000 0.09398  0.51783  0.19503  Biso   1.000  O
  O46      1.0000 0.59398  0.01783  0.69503  Biso   1.000  O
  O47      1.0000 0.09398  0.48217  0.80497  Biso   1.000  O
  O48      1.0000 0.59398  0.98217  0.30497  Biso   1.000  O
  Ga1      1.0000 0.00000  0.50000  0.00000  Biso   1.000  Ga
  Ga2      1.0000 0.50000  0.00000  0.50000  Biso   1.000  Ga
  Ga3      1.0000 0.00000  0.00000  0.50000  Biso   1.000  Ga
  Ga4      1.0000 0.50000  0.50000  0.00000  Biso   1.000  Ga
  Ga5      1.0000 0.50000  0.00000  0.00000  Biso   1.000  Ga
  Ga6      1.0000 0.00000  0.50000  0.50000  Biso   1.000  Ga
  Zn1      1.0000 0.75000  0.50000  0.00000  Biso   1.000  Zn
  Zn2      1.0000 0.25000  0.50000  0.00000  Biso   1.000  Zn
  Zn3      1.0000 0.00000  0.75000  0.50000  Biso   1.000  Zn
  Zn4      1.0000 0.00000  0.25000  0.50000  Biso   1.000  Zn
  Zn5      1.0000 0.50000  0.00000  0.75000  Biso   1.000  Zn
  Zn6      1.0000 0.50000  0.00000  0.25000  Biso   1.000  Zn
  Zn7      1.0000 0.50000  0.75000  0.00000  Biso   1.000  Zn
  Zn8      1.0000 0.50000  0.25000  0.00000  Biso   1.000  Zn
  Zn9      1.0000 0.75000  0.00000  0.50000  Biso   1.000  Zn
  Zn10     1.0000 0.25000  0.00000  0.50000  Biso   1.000  Zn
  Zn11     1.0000 0.00000  0.50000  0.75000  Biso   1.000  Zn
  Zn12     1.0000 0.00000  0.50000  0.25000  Biso   1.000  Zn
  P1       1.0000 0.87638  0.56648  0.87638  Biso   1.000  P
  O49      1.0000 0.85285  0.65002  0.85285  Biso   1.000  O
  O50      1.0000 0.94072  0.57099  0.94072  Biso   1.000  O
  P2       1.0000 0.37638  0.06648  0.37638  Biso   1.000  P
  O51      1.0000 0.35285  0.15002  0.35285  Biso   1.000  O
  O52      1.0000 0.44072  0.07099  0.44072  Biso   1.000  O
  P3       1.0000 0.12362  0.43352  0.87638  Biso   1.000  P
  O53      1.0000 0.14715  0.34998  0.85285  Biso   1.000  O
  O54      1.0000 0.05928  0.42901  0.94072  Biso   1.000  O
  P4       1.0000 0.62362  0.93352  0.37638  Biso   1.000  P
  O55      1.0000 0.64715  0.84998  0.35285  Biso   1.000  O
  O56      1.0000 0.55928  0.92901  0.44072  Biso   1.000  O
  P5       1.0000 0.12362  0.56648  0.12362  Biso   1.000  P
  O57      1.0000 0.14715  0.65002  0.14715  Biso   1.000  O
  O58      1.0000 0.05928  0.57099  0.05928  Biso   1.000  O
  P6       1.0000 0.62362  0.06648  0.62362  Biso   1.000  P
  O59      1.0000 0.64715  0.15002  0.64715  Biso   1.000  O
  O60      1.0000 0.55928  0.07099  0.55928  Biso   1.000  O
  P7       1.0000 0.87638  0.43352  0.12362  Biso   1.000  P
  O61      1.0000 0.85285  0.34998  0.14715  Biso   1.000  O
  O62      1.0000 0.94072  0.42901  0.05928  Biso   1.000  O
  P8       1.0000 0.37638  0.93352  0.62362  Biso   1.000  P
  O63      1.0000 0.35285  0.84998  0.64715  Biso   1.000  O
  O64      1.0000 0.44072  0.92901  0.55928  Biso   1.000  O
  P9       1.0000 0.87638  0.87638  0.56648  Biso   1.000  P
  O65      1.0000 0.85285  0.85285  0.65002  Biso   1.000  O
  O66      1.0000 0.94072  0.94072  0.57099  Biso   1.000  O
  P10      1.0000 0.37638  0.37638  0.06648  Biso   1.000  P
  O67      1.0000 0.35285  0.35285  0.15002  Biso   1.000  O
  O68      1.0000 0.44072  0.44072  0.07099  Biso   1.000  O
  P11      1.0000 0.87638  0.12362  0.43352  Biso   1.000  P
  O69      1.0000 0.85285  0.14715  0.34998  Biso   1.000  O
  O70      1.0000 0.94072  0.05928  0.42901  Biso   1.000  O
  P12      1.0000 0.37638  0.62362  0.93352  Biso   1.000  P
  O71      1.0000 0.35285  0.64715  0.84998  Biso   1.000  O
  O72      1.0000 0.44072  0.55928  0.92901  Biso   1.000  O
  P13      1.0000 0.12362  0.12362  0.56648  Biso   1.000  P
  O73      1.0000 0.14715  0.14715  0.65002  Biso   1.000  O
  O74      1.0000 0.05928  0.05928  0.57099  Biso   1.000  O
  P14      1.0000 0.62362  0.62362  0.06648  Biso   1.000  P
  O75      1.0000 0.64715  0.64715  0.15002  Biso   1.000  O
  O76      1.0000 0.55928  0.55928  0.07099  Biso   1.000  O
  P15      1.0000 0.12362  0.87638  0.43352  Biso   1.000  P
  O77      1.0000 0.14715  0.85285  0.34998  Biso   1.000  O
  O78      1.0000 0.05928  0.94072  0.42901  Biso   1.000  O
  P16      1.0000 0.62362  0.37638  0.93352  Biso   1.000  P
  O79      1.0000 0.64715  0.35285  0.84998  Biso   1.000  O
  O80      1.0000 0.55928  0.44072  0.92901  Biso   1.000  O
  P17      1.0000 0.56648  0.87638  0.87638  Biso   1.000  P
  O81      1.0000 0.65002  0.85285  0.85285  Biso   1.000  O
  O82      1.0000 0.57099  0.94072  0.94072  Biso   1.000  O
  P18      1.0000 0.06648  0.37638  0.37638  Biso   1.000  P
  O83      1.0000 0.15002  0.35285  0.35285  Biso   1.000  O
  O84      1.0000 0.07099  0.44072  0.44072  Biso   1.000  O
  P19      1.0000 0.43352  0.87638  0.12362  Biso   1.000  P
  O85      1.0000 0.34998  0.85285  0.14715  Biso   1.000  O
  O86      1.0000 0.42901  0.94072  0.05928  Biso   1.000  O
  P20      1.0000 0.93352  0.37638  0.62362  Biso   1.000  P
  O87      1.0000 0.84998  0.35285  0.64715  Biso   1.000  O
  O88      1.0000 0.92901  0.44072  0.55928  Biso   1.000  O
  P21      1.0000 0.56648  0.12362  0.12362  Biso   1.000  P
  O89      1.0000 0.65002  0.14715  0.14715  Biso   1.000  O
  O90      1.0000 0.57099  0.05928  0.05928  Biso   1.000  O
  P22      1.0000 0.06648  0.62362  0.62362  Biso   1.000  P
  O91      1.0000 0.15002  0.64715  0.64715  Biso   1.000  O
  O92      1.0000 0.07099  0.55928  0.55928  Biso   1.000  O
  P23      1.0000 0.43352  0.12362  0.87638  Biso   1.000  P
  O93      1.0000 0.34998  0.14715  0.85285  Biso   1.000  O
  O94      1.0000 0.42901  0.05928  0.94072  Biso   1.000  O
  P24      1.0000 0.93352  0.62362  0.37638  Biso   1.000  P
  O95      1.0000 0.84998  0.64715  0.35285  Biso   1.000  O
  O96      1.0000 0.92901  0.55928  0.44072  Biso   1.000  O
