data_REDYEG_clean
_audit_creation_date              2014-07-02
_audit_creation_method            'Materials Studio'
_symmetry_space_group_name_H-M    'P1'
_symmetry_Int_Tables_number       1
_symmetry_cell_setting            triclinic
loop_
_symmetry_equiv_pos_as_xyz
  x,y,z
_cell_length_a                    8.1471
_cell_length_b                    11.6977
_cell_length_c                    11.6977
_cell_angle_alpha                 109.5530
_cell_angle_beta                  104.7340
_cell_angle_gamma                 75.2658
loop_
_atom_site_label
_atom_site_type_symbol
_atom_site_fract_x
_atom_site_fract_y
_atom_site_fract_z
_atom_site_U_iso_or_equiv
_atom_site_adp_type
_atom_site_occupancy
Zn1    Zn    0.43687   0.07863   0.90023   0.01267  Uiso   1.00
Zn2    Zn    0.06313   0.90023   0.07863   0.01267  Uiso   1.00
Zn3    Zn    0.56313   0.92137   0.09977   0.01267  Uiso   1.00
Zn4    Zn    0.93687   0.09977   0.92137   0.01267  Uiso   1.00
Zn5    Zn    0.75000   0.13198   0.13198   0.01267  Uiso   1.00
Zn6    Zn    0.25000   0.86802   0.86802   0.01267  Uiso   1.00
H1     H     0.76600   0.68910   0.96490   0.01267  Uiso   1.00
H2     H     0.52090   0.74280   0.22960   0.01267  Uiso   1.00
H3     H     0.59650   0.53750   0.22010   0.01267  Uiso   1.00
H4     H     0.84180   0.48210   0.94510   0.01267  Uiso   1.00
H5     H     0.73400   0.96490   0.68910   0.01267  Uiso   1.00
H6     H     0.97910   0.22960   0.74280   0.01267  Uiso   1.00
H7     H     0.90350   0.22010   0.53750   0.01267  Uiso   1.00
H8     H     0.65820   0.94510   0.48210   0.01267  Uiso   1.00
H9     H     0.23400   0.31090   0.03510   0.01267  Uiso   1.00
H10    H     0.47910   0.25720   0.77040   0.01267  Uiso   1.00
H11    H     0.40350   0.46250   0.77990   0.01267  Uiso   1.00
H12    H     0.15820   0.51790   0.05490   0.01267  Uiso   1.00
H13    H     0.26600   0.03510   0.31090   0.01267  Uiso   1.00
H14    H     0.02090   0.77040   0.25720   0.01267  Uiso   1.00
H15    H     0.09650   0.77990   0.46250   0.01267  Uiso   1.00
H16    H     0.34180   0.05490   0.51790   0.01267  Uiso   1.00
C1     C     0.73070   0.65815   0.01645   0.01267  Uiso   1.00
C2     C     0.58760   0.68965   0.17235   0.01267  Uiso   1.00
C3     C     0.63200   0.56623   0.16697   0.01267  Uiso   1.00
C4     C     0.77780   0.53372   0.00468   0.01267  Uiso   1.00
C5     C     0.72970   0.48592   0.08168   0.01267  Uiso   1.00
C6     C     0.78050   0.34883   0.06977   0.01267  Uiso   1.00
C7     C     0.76930   0.01645   0.65815   0.01267  Uiso   1.00
C8     C     0.91240   0.17235   0.68965   0.01267  Uiso   1.00
C9     C     0.86800   0.16697   0.56623   0.01267  Uiso   1.00
C10    C     0.72220   0.00468   0.53372   0.01267  Uiso   1.00
C11    C     0.77030   0.08168   0.48592   0.01267  Uiso   1.00
C12    C     0.71950   0.06977   0.34883   0.01267  Uiso   1.00
C13    C     0.26930   0.34185   0.98355   0.01267  Uiso   1.00
C14    C     0.41240   0.31035   0.82765   0.01267  Uiso   1.00
C15    C     0.36800   0.43377   0.83303   0.01267  Uiso   1.00
C16    C     0.22220   0.46628   0.99532   0.01267  Uiso   1.00
C17    C     0.27030   0.51408   0.91832   0.01267  Uiso   1.00
C18    C     0.21950   0.65117   0.93023   0.01267  Uiso   1.00
C19    C     0.23070   0.98355   0.34185   0.01267  Uiso   1.00
C20    C     0.08760   0.82765   0.31035   0.01267  Uiso   1.00
C21    C     0.13200   0.83303   0.43377   0.01267  Uiso   1.00
C22    C     0.27780   0.99532   0.46628   0.01267  Uiso   1.00
C23    C     0.22970   0.91832   0.51408   0.01267  Uiso   1.00
C24    C     0.28050   0.93023   0.65117   0.01267  Uiso   1.00
N1     N     0.63650   0.73632   0.09874   0.01267  Uiso   1.00
N2     N     0.86350   0.09874   0.73632   0.01267  Uiso   1.00
N3     N     0.36350   0.26368   0.90126   0.01267  Uiso   1.00
N4     N     0.13650   0.90126   0.26368   0.01267  Uiso   1.00
O1     O     0.72200   0.31105   0.13733   0.01267  Uiso   1.00
O2     O     0.87530   0.28689   0.99213   0.01267  Uiso   1.00
O3     O     0.77800   0.13733   0.31105   0.01267  Uiso   1.00
O4     O     0.62470   0.99213   0.28689   0.01267  Uiso   1.00
O5     O     0.27800   0.68895   0.86267   0.01267  Uiso   1.00
O6     O     0.12470   0.71311   0.00787   0.01267  Uiso   1.00
O7     O     0.22200   0.86267   0.68895   0.01267  Uiso   1.00
O8     O     0.37530   0.00787   0.71311   0.01267  Uiso   1.00
F1     F     0.50500   0.10884   0.09052   0.01267  Uiso   1.00
F2     F     0.69140   0.08530   0.92556   0.01267  Uiso   1.00
F3     F     0.99500   0.09052   0.10884   0.01267  Uiso   1.00
F4     F     0.80860   0.92556   0.08530   0.01267  Uiso   1.00
F5     F     0.49500   0.89116   0.90948   0.01267  Uiso   1.00
F6     F     0.30860   0.91470   0.07444   0.01267  Uiso   1.00
F7     F     0.00500   0.90948   0.89116   0.01267  Uiso   1.00
F8     F     0.19140   0.07444   0.91470   0.01267  Uiso   1.00
