data_REFJET_clean
_audit_creation_date              2014-07-02
_audit_creation_method            'Materials Studio'
_symmetry_space_group_name_H-M    'P1'
_symmetry_Int_Tables_number       1
_symmetry_cell_setting            triclinic
loop_
_symmetry_equiv_pos_as_xyz
  x,y,z
_cell_length_a                    7.3628
_cell_length_b                    18.1110
_cell_length_c                    18.1110
_cell_angle_alpha                 99.1384
_cell_angle_beta                  94.8840
_cell_angle_gamma                 85.1160
loop_
_atom_site_label
_atom_site_type_symbol
_atom_site_fract_x
_atom_site_fract_y
_atom_site_fract_z
_atom_site_U_iso_or_equiv
_atom_site_adp_type
_atom_site_occupancy
K1     K     0.78291   0.00916   0.42384   0.01267  Uiso   1.00
K2     K     0.71709   0.42384   0.00916   0.01267  Uiso   1.00
K3     K     0.21709   0.99084   0.57616   0.01267  Uiso   1.00
K4     K     0.28291   0.57616   0.99084   0.01267  Uiso   1.00
In1    In    0.70259   0.86188   0.55229   0.01267  Uiso   1.00
In2    In    0.79741   0.55229   0.86188   0.01267  Uiso   1.00
In3    In    0.29741   0.13812   0.44771   0.01267  Uiso   1.00
In4    In    0.20259   0.44771   0.13812   0.01267  Uiso   1.00
H1     H     0.54350   0.25740   0.68520   0.01267  Uiso   1.00
H2     H     0.94470   0.68890   0.71150   0.01267  Uiso   1.00
H3     H     0.84190   0.04490   0.75550   0.01267  Uiso   1.00
H4     H     0.95650   0.68520   0.25740   0.01267  Uiso   1.00
H5     H     0.55530   0.71150   0.68890   0.01267  Uiso   1.00
H6     H     0.65810   0.75550   0.04490   0.01267  Uiso   1.00
H7     H     0.45650   0.74260   0.31480   0.01267  Uiso   1.00
H8     H     0.05530   0.31110   0.28850   0.01267  Uiso   1.00
H9     H     0.15810   0.95510   0.24450   0.01267  Uiso   1.00
H10    H     0.04350   0.31480   0.74260   0.01267  Uiso   1.00
H11    H     0.44470   0.28850   0.31110   0.01267  Uiso   1.00
H12    H     0.34190   0.24450   0.95510   0.01267  Uiso   1.00
C1     C     0.60130   0.21411   0.70049   0.01267  Uiso   1.00
C2     C     0.69620   0.08365   0.67035   0.01267  Uiso   1.00
C3     C     0.70940   0.01064   0.61996   0.01267  Uiso   1.00
C4     C     0.11770   0.74000   0.66000   0.01267  Uiso   1.00
C5     C     0.60240   0.14848   0.64972   0.01267  Uiso   1.00
C6     C     0.06810   0.69341   0.70719   0.01267  Uiso   1.00
C7     C     0.30240   0.74833   0.65327   0.01267  Uiso   1.00
C8     C     0.36500   0.79840   0.60340   0.01267  Uiso   1.00
C9     C     0.96590   0.78062   0.61838   0.01267  Uiso   1.00
C10    C     0.49800   0.14800   0.57540   0.01267  Uiso   1.00
C11    C     0.77880   0.08787   0.74173   0.01267  Uiso   1.00
C12    C     0.68150   0.21890   0.77270   0.01267  Uiso   1.00
C13    C     0.77340   0.15251   0.79429   0.01267  Uiso   1.00
C14    C     0.65680   0.29640   0.81840   0.01267  Uiso   1.00
C15    C     0.86760   0.14270   0.87010   0.01267  Uiso   1.00
C16    C     0.89870   0.70049   0.21411   0.01267  Uiso   1.00
C17    C     0.80380   0.67035   0.08365   0.01267  Uiso   1.00
C18    C     0.79060   0.61996   0.01064   0.01267  Uiso   1.00
C19    C     0.38230   0.66000   0.74000   0.01267  Uiso   1.00
C20    C     0.89760   0.64972   0.14848   0.01267  Uiso   1.00
C21    C     0.43190   0.70719   0.69341   0.01267  Uiso   1.00
C22    C     0.19760   0.65327   0.74833   0.01267  Uiso   1.00
C23    C     0.13500   0.60340   0.79840   0.01267  Uiso   1.00
C24    C     0.53410   0.61838   0.78062   0.01267  Uiso   1.00
C25    C     0.00200   0.57540   0.14800   0.01267  Uiso   1.00
C26    C     0.72120   0.74173   0.08787   0.01267  Uiso   1.00
C27    C     0.81850   0.77270   0.21890   0.01267  Uiso   1.00
C28    C     0.72660   0.79429   0.15251   0.01267  Uiso   1.00
C29    C     0.84320   0.81840   0.29640   0.01267  Uiso   1.00
C30    C     0.63240   0.87010   0.14270   0.01267  Uiso   1.00
C31    C     0.39870   0.78589   0.29951   0.01267  Uiso   1.00
C32    C     0.30380   0.91635   0.32965   0.01267  Uiso   1.00
C33    C     0.29060   0.98936   0.38004   0.01267  Uiso   1.00
C34    C     0.88230   0.26000   0.34000   0.01267  Uiso   1.00
C35    C     0.39760   0.85152   0.35028   0.01267  Uiso   1.00
C36    C     0.93190   0.30659   0.29281   0.01267  Uiso   1.00
C37    C     0.69760   0.25167   0.34673   0.01267  Uiso   1.00
C38    C     0.63500   0.20160   0.39660   0.01267  Uiso   1.00
C39    C     0.03410   0.21938   0.38162   0.01267  Uiso   1.00
C40    C     0.50200   0.85200   0.42460   0.01267  Uiso   1.00
C41    C     0.22120   0.91213   0.25827   0.01267  Uiso   1.00
C42    C     0.31850   0.78110   0.22730   0.01267  Uiso   1.00
C43    C     0.22660   0.84749   0.20571   0.01267  Uiso   1.00
C44    C     0.34320   0.70360   0.18160   0.01267  Uiso   1.00
C45    C     0.13240   0.85730   0.12990   0.01267  Uiso   1.00
C46    C     0.10130   0.29951   0.78589   0.01267  Uiso   1.00
C47    C     0.19620   0.32965   0.91635   0.01267  Uiso   1.00
C48    C     0.20940   0.38004   0.98936   0.01267  Uiso   1.00
C49    C     0.61770   0.34000   0.26000   0.01267  Uiso   1.00
C50    C     0.10240   0.35028   0.85152   0.01267  Uiso   1.00
C51    C     0.56810   0.29281   0.30659   0.01267  Uiso   1.00
C52    C     0.80240   0.34673   0.25167   0.01267  Uiso   1.00
C53    C     0.86500   0.39660   0.20160   0.01267  Uiso   1.00
C54    C     0.46590   0.38162   0.21938   0.01267  Uiso   1.00
C55    C     0.99800   0.42460   0.85200   0.01267  Uiso   1.00
C56    C     0.27880   0.25827   0.91213   0.01267  Uiso   1.00
C57    C     0.18150   0.22730   0.78110   0.01267  Uiso   1.00
C58    C     0.27340   0.20571   0.84749   0.01267  Uiso   1.00
C59    C     0.15680   0.18160   0.70360   0.01267  Uiso   1.00
C60    C     0.36760   0.12990   0.85730   0.01267  Uiso   1.00
O1     O     0.59990   0.96251   0.62851   0.01267  Uiso   1.00
O2     O     0.71090   0.30770   0.88694   0.01267  Uiso   1.00
O3     O     0.88440   0.74603   0.56197   0.01267  Uiso   1.00
O4     O     0.42600   0.20716   0.55530   0.01267  Uiso   1.00
O5     O     0.91950   0.84775   0.64253   0.01267  Uiso   1.00
O6     O     0.83160   0.99567   0.57711   0.01267  Uiso   1.00
O7     O     0.25500   0.83060   0.56280   0.01267  Uiso   1.00
O8     O     0.47480   0.08545   0.53391   0.01267  Uiso   1.00
O9     O     0.53510   0.80470   0.61108   0.01267  Uiso   1.00
O10    O     0.57940   0.34679   0.78681   0.01267  Uiso   1.00
O11    O     0.86540   0.19724   0.92436   0.01267  Uiso   1.00
O12    O     0.94990   0.08305   0.87715   0.01267  Uiso   1.00
O13    O     0.90010   0.62851   0.96251   0.01267  Uiso   1.00
O14    O     0.78910   0.88694   0.30770   0.01267  Uiso   1.00
O15    O     0.61560   0.56197   0.74603   0.01267  Uiso   1.00
O16    O     0.07400   0.55530   0.20716   0.01267  Uiso   1.00
O17    O     0.58050   0.64253   0.84775   0.01267  Uiso   1.00
O18    O     0.66840   0.57711   0.99567   0.01267  Uiso   1.00
O19    O     0.24500   0.56280   0.83060   0.01267  Uiso   1.00
O20    O     0.02520   0.53391   0.08545   0.01267  Uiso   1.00
O21    O     0.96490   0.61108   0.80470   0.01267  Uiso   1.00
O22    O     0.92060   0.78681   0.34679   0.01267  Uiso   1.00
O23    O     0.63460   0.92436   0.19724   0.01267  Uiso   1.00
O24    O     0.55010   0.87715   0.08305   0.01267  Uiso   1.00
O25    O     0.40010   0.03749   0.37149   0.01267  Uiso   1.00
O26    O     0.28910   0.69230   0.11306   0.01267  Uiso   1.00
O27    O     0.11560   0.25397   0.43803   0.01267  Uiso   1.00
O28    O     0.57400   0.79284   0.44470   0.01267  Uiso   1.00
O29    O     0.08050   0.15225   0.35747   0.01267  Uiso   1.00
O30    O     0.16840   0.00433   0.42289   0.01267  Uiso   1.00
O31    O     0.74500   0.16940   0.43720   0.01267  Uiso   1.00
O32    O     0.52520   0.91455   0.46609   0.01267  Uiso   1.00
O33    O     0.46490   0.19530   0.38892   0.01267  Uiso   1.00
O34    O     0.42060   0.65321   0.21319   0.01267  Uiso   1.00
O35    O     0.13460   0.80276   0.07564   0.01267  Uiso   1.00
O36    O     0.05010   0.91695   0.12285   0.01267  Uiso   1.00
O37    O     0.09990   0.37149   0.03749   0.01267  Uiso   1.00
O38    O     0.21090   0.11306   0.69230   0.01267  Uiso   1.00
O39    O     0.38440   0.43803   0.25397   0.01267  Uiso   1.00
O40    O     0.92600   0.44470   0.79284   0.01267  Uiso   1.00
O41    O     0.41950   0.35747   0.15225   0.01267  Uiso   1.00
O42    O     0.33160   0.42289   0.00433   0.01267  Uiso   1.00
O43    O     0.75500   0.43720   0.16940   0.01267  Uiso   1.00
O44    O     0.97480   0.46609   0.91455   0.01267  Uiso   1.00
O45    O     0.03510   0.38892   0.19530   0.01267  Uiso   1.00
O46    O     0.07940   0.21319   0.65321   0.01267  Uiso   1.00
O47    O     0.36540   0.07564   0.80276   0.01267  Uiso   1.00
O48    O     0.44990   0.12285   0.91695   0.01267  Uiso   1.00
