data_REFTUT_clean
_audit_creation_date              2014-07-02
_audit_creation_method            'Materials Studio'
_symmetry_space_group_name_H-M    'P1'
_symmetry_Int_Tables_number       1
_symmetry_cell_setting            triclinic
loop_
_symmetry_equiv_pos_as_xyz
  x,y,z
_cell_length_a                    7.3585
_cell_length_b                    18.7029
_cell_length_c                    23.5965
_cell_angle_alpha                 90.0000
_cell_angle_beta                  90.0000
_cell_angle_gamma                 90.0000
loop_
_atom_site_label
_atom_site_type_symbol
_atom_site_fract_x
_atom_site_fract_y
_atom_site_fract_z
_atom_site_U_iso_or_equiv
_atom_site_adp_type
_atom_site_occupancy
Ca1    Ca    0.50000   0.50000   0.00000   0.01267  Uiso   1.00
Ca2    Ca    0.00000   0.00000   0.00000   0.01267  Uiso   1.00
Ca3    Ca    0.50000   0.50000   0.50000   0.01267  Uiso   1.00
Ca4    Ca    0.00000   0.00000   0.50000   0.01267  Uiso   1.00
Zn1    Zn    0.85800   0.54915   0.91328   0.01267  Uiso   1.00
Zn2    Zn    0.64200   0.04915   0.08672   0.01267  Uiso   1.00
Zn3    Zn    0.14200   0.45085   0.41328   0.01267  Uiso   1.00
Zn4    Zn    0.35800   0.95085   0.58672   0.01267  Uiso   1.00
Zn5    Zn    0.14200   0.45085   0.08672   0.01267  Uiso   1.00
Zn6    Zn    0.35800   0.95085   0.91328   0.01267  Uiso   1.00
Zn7    Zn    0.85800   0.54915   0.58672   0.01267  Uiso   1.00
Zn8    Zn    0.64200   0.04915   0.41328   0.01267  Uiso   1.00
H1     H     0.77380   0.29680   0.02240   0.01267  Uiso   1.00
H2     H     0.99740   0.33090   0.86980   0.01267  Uiso   1.00
H3     H     0.90570   0.13060   0.92270   0.01267  Uiso   1.00
H4     H     0.92900   0.18840   0.80650   0.01267  Uiso   1.00
H5     H     0.10840   0.23260   0.81360   0.01267  Uiso   1.00
H6     H     0.09720   0.15440   0.83710   0.01267  Uiso   1.00
H7     H     0.20430   0.45500   0.83500   0.01267  Uiso   1.00
H8     H     0.90730   0.44350   0.77520   0.01267  Uiso   1.00
H9     H     0.72620   0.79680   0.97760   0.01267  Uiso   1.00
H10    H     0.50260   0.83090   0.13020   0.01267  Uiso   1.00
H11    H     0.59430   0.63060   0.07730   0.01267  Uiso   1.00
H12    H     0.57100   0.68840   0.19350   0.01267  Uiso   1.00
H13    H     0.39160   0.73260   0.18640   0.01267  Uiso   1.00
H14    H     0.40280   0.65440   0.16290   0.01267  Uiso   1.00
H15    H     0.29570   0.95500   0.16500   0.01267  Uiso   1.00
H16    H     0.59270   0.94350   0.22480   0.01267  Uiso   1.00
H17    H     0.22620   0.70320   0.52240   0.01267  Uiso   1.00
H18    H     0.00260   0.66910   0.36980   0.01267  Uiso   1.00
H19    H     0.09430   0.86940   0.42270   0.01267  Uiso   1.00
H20    H     0.07100   0.81160   0.30650   0.01267  Uiso   1.00
H21    H     0.89160   0.76740   0.31360   0.01267  Uiso   1.00
H22    H     0.90280   0.84560   0.33710   0.01267  Uiso   1.00
H23    H     0.79570   0.54500   0.33500   0.01267  Uiso   1.00
H24    H     0.09270   0.55650   0.27520   0.01267  Uiso   1.00
H25    H     0.27380   0.20320   0.47760   0.01267  Uiso   1.00
H26    H     0.49740   0.16910   0.63020   0.01267  Uiso   1.00
H27    H     0.40570   0.36940   0.57730   0.01267  Uiso   1.00
H28    H     0.42900   0.31160   0.69350   0.01267  Uiso   1.00
H29    H     0.60840   0.26740   0.68640   0.01267  Uiso   1.00
H30    H     0.59720   0.34560   0.66290   0.01267  Uiso   1.00
H31    H     0.70430   0.04500   0.66500   0.01267  Uiso   1.00
H32    H     0.40730   0.05650   0.72480   0.01267  Uiso   1.00
H33    H     0.22620   0.70320   0.97760   0.01267  Uiso   1.00
H34    H     0.00260   0.66910   0.13020   0.01267  Uiso   1.00
H35    H     0.09430   0.86940   0.07730   0.01267  Uiso   1.00
H36    H     0.07100   0.81160   0.19350   0.01267  Uiso   1.00
H37    H     0.89160   0.76740   0.18640   0.01267  Uiso   1.00
H38    H     0.90280   0.84560   0.16290   0.01267  Uiso   1.00
H39    H     0.79570   0.54500   0.16500   0.01267  Uiso   1.00
H40    H     0.09270   0.55650   0.22480   0.01267  Uiso   1.00
H41    H     0.27380   0.20320   0.02240   0.01267  Uiso   1.00
H42    H     0.49740   0.16910   0.86980   0.01267  Uiso   1.00
H43    H     0.40570   0.36940   0.92270   0.01267  Uiso   1.00
H44    H     0.42900   0.31160   0.80650   0.01267  Uiso   1.00
H45    H     0.60840   0.26740   0.81360   0.01267  Uiso   1.00
H46    H     0.59720   0.34560   0.83710   0.01267  Uiso   1.00
H47    H     0.70430   0.04500   0.83500   0.01267  Uiso   1.00
H48    H     0.40730   0.05650   0.77520   0.01267  Uiso   1.00
H49    H     0.77380   0.29680   0.47760   0.01267  Uiso   1.00
H50    H     0.99740   0.33090   0.63020   0.01267  Uiso   1.00
H51    H     0.90570   0.13060   0.57730   0.01267  Uiso   1.00
H52    H     0.92900   0.18840   0.69350   0.01267  Uiso   1.00
H53    H     0.10840   0.23260   0.68640   0.01267  Uiso   1.00
H54    H     0.09720   0.15440   0.66290   0.01267  Uiso   1.00
H55    H     0.20430   0.45500   0.66500   0.01267  Uiso   1.00
H56    H     0.90730   0.44350   0.72480   0.01267  Uiso   1.00
H57    H     0.72620   0.79680   0.52240   0.01267  Uiso   1.00
H58    H     0.50260   0.83090   0.36980   0.01267  Uiso   1.00
H59    H     0.59430   0.63060   0.42270   0.01267  Uiso   1.00
H60    H     0.57100   0.68840   0.30650   0.01267  Uiso   1.00
H61    H     0.39160   0.73260   0.31360   0.01267  Uiso   1.00
H62    H     0.40280   0.65440   0.33710   0.01267  Uiso   1.00
H63    H     0.29570   0.95500   0.33500   0.01267  Uiso   1.00
H64    H     0.59270   0.94350   0.27520   0.01267  Uiso   1.00
H65    H     0.63090   0.53430   0.75000   0.01267  Uiso   1.00
H66    H     0.86910   0.03430   0.25000   0.01267  Uiso   1.00
H67    H     0.36910   0.46570   0.25000   0.01267  Uiso   1.00
H68    H     0.13090   0.96570   0.75000   0.01267  Uiso   1.00
C1     C     0.82190   0.27914   0.98873   0.01267  Uiso   1.00
C2     C     0.87930   0.32587   0.94707   0.01267  Uiso   1.00
C3     C     0.95350   0.29920   0.89692   0.01267  Uiso   1.00
C4     C     0.84830   0.40480   0.95424   0.01267  Uiso   1.00
C5     C     0.77170   0.15700   0.02649   0.01267  Uiso   1.00
C6     C     0.83600   0.20552   0.98042   0.01267  Uiso   1.00
C7     C     0.90200   0.17961   0.92902   0.01267  Uiso   1.00
C8     C     0.96260   0.22610   0.88699   0.01267  Uiso   1.00
C9     C     0.03050   0.19780   0.83092   0.01267  Uiso   1.00
C10    C     0.52930   0.51385   0.85533   0.01267  Uiso   1.00
C11    C     0.43260   0.49724   0.80098   0.01267  Uiso   1.00
C12    C     0.26070   0.46570   0.80070   0.01267  Uiso   1.00
C13    C     0.67810   0.77914   0.01127   0.01267  Uiso   1.00
C14    C     0.62070   0.82587   0.05293   0.01267  Uiso   1.00
C15    C     0.54650   0.79920   0.10308   0.01267  Uiso   1.00
C16    C     0.65170   0.90480   0.04576   0.01267  Uiso   1.00
C17    C     0.72830   0.65700   0.97351   0.01267  Uiso   1.00
C18    C     0.66400   0.70552   0.01958   0.01267  Uiso   1.00
C19    C     0.59800   0.67961   0.07098   0.01267  Uiso   1.00
C20    C     0.53740   0.72610   0.11301   0.01267  Uiso   1.00
C21    C     0.46950   0.69780   0.16908   0.01267  Uiso   1.00
C22    C     0.97070   0.01385   0.14467   0.01267  Uiso   1.00
C23    C     0.06740   0.99724   0.19902   0.01267  Uiso   1.00
C24    C     0.23930   0.96570   0.19930   0.01267  Uiso   1.00
C25    C     0.17810   0.72086   0.48873   0.01267  Uiso   1.00
C26    C     0.12070   0.67413   0.44707   0.01267  Uiso   1.00
C27    C     0.04650   0.70080   0.39692   0.01267  Uiso   1.00
C28    C     0.15170   0.59520   0.45424   0.01267  Uiso   1.00
C29    C     0.22830   0.84300   0.52649   0.01267  Uiso   1.00
C30    C     0.16400   0.79448   0.48042   0.01267  Uiso   1.00
C31    C     0.09800   0.82039   0.42902   0.01267  Uiso   1.00
C32    C     0.03740   0.77390   0.38699   0.01267  Uiso   1.00
C33    C     0.96950   0.80220   0.33092   0.01267  Uiso   1.00
C34    C     0.47070   0.48615   0.35533   0.01267  Uiso   1.00
C35    C     0.56740   0.50276   0.30098   0.01267  Uiso   1.00
C36    C     0.73930   0.53430   0.30070   0.01267  Uiso   1.00
C37    C     0.32190   0.22086   0.51127   0.01267  Uiso   1.00
C38    C     0.37930   0.17413   0.55293   0.01267  Uiso   1.00
C39    C     0.45350   0.20080   0.60308   0.01267  Uiso   1.00
C40    C     0.34830   0.09520   0.54576   0.01267  Uiso   1.00
C41    C     0.27170   0.34300   0.47351   0.01267  Uiso   1.00
C42    C     0.33600   0.29448   0.51958   0.01267  Uiso   1.00
C43    C     0.40200   0.32039   0.57098   0.01267  Uiso   1.00
C44    C     0.46260   0.27390   0.61301   0.01267  Uiso   1.00
C45    C     0.53050   0.30220   0.66908   0.01267  Uiso   1.00
C46    C     0.02930   0.98615   0.64467   0.01267  Uiso   1.00
C47    C     0.93260   0.00276   0.69902   0.01267  Uiso   1.00
C48    C     0.76070   0.03430   0.69930   0.01267  Uiso   1.00
C49    C     0.17810   0.72086   0.01127   0.01267  Uiso   1.00
C50    C     0.12070   0.67413   0.05293   0.01267  Uiso   1.00
C51    C     0.04650   0.70080   0.10308   0.01267  Uiso   1.00
C52    C     0.15170   0.59520   0.04576   0.01267  Uiso   1.00
C53    C     0.22830   0.84300   0.97351   0.01267  Uiso   1.00
C54    C     0.16400   0.79448   0.01958   0.01267  Uiso   1.00
C55    C     0.09800   0.82039   0.07098   0.01267  Uiso   1.00
C56    C     0.03740   0.77390   0.11301   0.01267  Uiso   1.00
C57    C     0.96950   0.80220   0.16908   0.01267  Uiso   1.00
C58    C     0.47070   0.48615   0.14467   0.01267  Uiso   1.00
C59    C     0.56740   0.50276   0.19902   0.01267  Uiso   1.00
C60    C     0.73930   0.53430   0.19930   0.01267  Uiso   1.00
C61    C     0.32190   0.22086   0.98873   0.01267  Uiso   1.00
C62    C     0.37930   0.17413   0.94707   0.01267  Uiso   1.00
C63    C     0.45350   0.20080   0.89692   0.01267  Uiso   1.00
C64    C     0.34830   0.09520   0.95424   0.01267  Uiso   1.00
C65    C     0.27170   0.34300   0.02649   0.01267  Uiso   1.00
C66    C     0.33600   0.29448   0.98042   0.01267  Uiso   1.00
C67    C     0.40200   0.32039   0.92902   0.01267  Uiso   1.00
C68    C     0.46260   0.27390   0.88699   0.01267  Uiso   1.00
C69    C     0.53050   0.30220   0.83092   0.01267  Uiso   1.00
C70    C     0.02930   0.98615   0.85533   0.01267  Uiso   1.00
C71    C     0.93260   0.00276   0.80098   0.01267  Uiso   1.00
C72    C     0.76070   0.03430   0.80070   0.01267  Uiso   1.00
C73    C     0.82190   0.27914   0.51127   0.01267  Uiso   1.00
C74    C     0.87930   0.32587   0.55293   0.01267  Uiso   1.00
C75    C     0.95350   0.29920   0.60308   0.01267  Uiso   1.00
C76    C     0.84830   0.40480   0.54576   0.01267  Uiso   1.00
C77    C     0.77170   0.15700   0.47351   0.01267  Uiso   1.00
C78    C     0.83600   0.20552   0.51958   0.01267  Uiso   1.00
C79    C     0.90200   0.17961   0.57098   0.01267  Uiso   1.00
C80    C     0.96260   0.22610   0.61301   0.01267  Uiso   1.00
C81    C     0.03050   0.19780   0.66908   0.01267  Uiso   1.00
C82    C     0.52930   0.51385   0.64467   0.01267  Uiso   1.00
C83    C     0.43260   0.49724   0.69902   0.01267  Uiso   1.00
C84    C     0.26070   0.46570   0.69930   0.01267  Uiso   1.00
C85    C     0.67810   0.77914   0.48873   0.01267  Uiso   1.00
C86    C     0.62070   0.82587   0.44707   0.01267  Uiso   1.00
C87    C     0.54650   0.79920   0.39692   0.01267  Uiso   1.00
C88    C     0.65170   0.90480   0.45424   0.01267  Uiso   1.00
C89    C     0.72830   0.65700   0.52649   0.01267  Uiso   1.00
C90    C     0.66400   0.70552   0.48042   0.01267  Uiso   1.00
C91    C     0.59800   0.67961   0.42902   0.01267  Uiso   1.00
C92    C     0.53740   0.72610   0.38699   0.01267  Uiso   1.00
C93    C     0.46950   0.69780   0.33092   0.01267  Uiso   1.00
C94    C     0.97070   0.01385   0.35533   0.01267  Uiso   1.00
C95    C     0.06740   0.99724   0.30098   0.01267  Uiso   1.00
C96    C     0.23930   0.96570   0.30070   0.01267  Uiso   1.00
C97    C     0.51670   0.51290   0.75000   0.01267  Uiso   1.00
C98    C     0.17170   0.44970   0.75000   0.01267  Uiso   1.00
C99    C     0.98460   0.41710   0.75000   0.01267  Uiso   1.00
C100   C     0.98330   0.01290   0.25000   0.01267  Uiso   1.00
C101   C     0.32830   0.94970   0.25000   0.01267  Uiso   1.00
C102   C     0.51540   0.91710   0.25000   0.01267  Uiso   1.00
C103   C     0.48330   0.48710   0.25000   0.01267  Uiso   1.00
C104   C     0.82830   0.55030   0.25000   0.01267  Uiso   1.00
C105   C     0.01540   0.58290   0.25000   0.01267  Uiso   1.00
C106   C     0.01670   0.98710   0.75000   0.01267  Uiso   1.00
C107   C     0.67170   0.05030   0.75000   0.01267  Uiso   1.00
C108   C     0.48460   0.08290   0.75000   0.01267  Uiso   1.00
O1     O     0.74480   0.42513   0.99269   0.01267  Uiso   1.00
O2     O     0.92610   0.44661   0.91943   0.01267  Uiso   1.00
O3     O     0.77320   0.08850   0.01777   0.01267  Uiso   1.00
O4     O     0.71400   0.18102   0.07176   0.01267  Uiso   1.00
O5     O     0.45510   0.50032   0.90172   0.01267  Uiso   1.00
O6     O     0.68650   0.54102   0.85009   0.01267  Uiso   1.00
O7     O     0.75520   0.92513   0.00731   0.01267  Uiso   1.00
O8     O     0.57390   0.94661   0.08057   0.01267  Uiso   1.00
O9     O     0.72680   0.58850   0.98223   0.01267  Uiso   1.00
O10    O     0.78600   0.68102   0.92824   0.01267  Uiso   1.00
O11    O     0.04490   0.00032   0.09828   0.01267  Uiso   1.00
O12    O     0.81350   0.04102   0.14991   0.01267  Uiso   1.00
O13    O     0.25520   0.57487   0.49269   0.01267  Uiso   1.00
O14    O     0.07390   0.55339   0.41943   0.01267  Uiso   1.00
O15    O     0.22680   0.91150   0.51777   0.01267  Uiso   1.00
O16    O     0.28600   0.81898   0.57176   0.01267  Uiso   1.00
O17    O     0.54490   0.49968   0.40172   0.01267  Uiso   1.00
O18    O     0.31350   0.45898   0.35009   0.01267  Uiso   1.00
O19    O     0.24480   0.07487   0.50731   0.01267  Uiso   1.00
O20    O     0.42610   0.05339   0.58057   0.01267  Uiso   1.00
O21    O     0.27320   0.41150   0.48223   0.01267  Uiso   1.00
O22    O     0.21400   0.31898   0.42824   0.01267  Uiso   1.00
O23    O     0.95510   0.99968   0.59828   0.01267  Uiso   1.00
O24    O     0.18650   0.95898   0.64991   0.01267  Uiso   1.00
O25    O     0.25520   0.57487   0.00731   0.01267  Uiso   1.00
O26    O     0.07390   0.55339   0.08057   0.01267  Uiso   1.00
O27    O     0.22680   0.91150   0.98223   0.01267  Uiso   1.00
O28    O     0.28600   0.81898   0.92824   0.01267  Uiso   1.00
O29    O     0.54490   0.49968   0.09828   0.01267  Uiso   1.00
O30    O     0.31350   0.45898   0.14991   0.01267  Uiso   1.00
O31    O     0.24480   0.07487   0.99269   0.01267  Uiso   1.00
O32    O     0.42610   0.05339   0.91943   0.01267  Uiso   1.00
O33    O     0.27320   0.41150   0.01777   0.01267  Uiso   1.00
O34    O     0.21400   0.31898   0.07176   0.01267  Uiso   1.00
O35    O     0.95510   0.99968   0.90172   0.01267  Uiso   1.00
O36    O     0.18650   0.95898   0.85009   0.01267  Uiso   1.00
O37    O     0.74480   0.42513   0.50731   0.01267  Uiso   1.00
O38    O     0.92610   0.44661   0.58057   0.01267  Uiso   1.00
O39    O     0.77320   0.08850   0.48223   0.01267  Uiso   1.00
O40    O     0.71400   0.18102   0.42824   0.01267  Uiso   1.00
O41    O     0.45510   0.50032   0.59828   0.01267  Uiso   1.00
O42    O     0.68650   0.54102   0.64991   0.01267  Uiso   1.00
O43    O     0.75520   0.92513   0.49269   0.01267  Uiso   1.00
O44    O     0.57390   0.94661   0.41943   0.01267  Uiso   1.00
O45    O     0.72680   0.58850   0.51777   0.01267  Uiso   1.00
O46    O     0.78600   0.68102   0.57176   0.01267  Uiso   1.00
O47    O     0.04490   0.00032   0.40172   0.01267  Uiso   1.00
O48    O     0.81350   0.04102   0.35009   0.01267  Uiso   1.00
