data_REGJIW_clean
_audit_creation_date              2014-07-02
_audit_creation_method            'Materials Studio'
_symmetry_space_group_name_H-M    'P1'
_symmetry_Int_Tables_number       1
_symmetry_cell_setting            triclinic
loop_
_symmetry_equiv_pos_as_xyz
  x,y,z
_cell_length_a                    5.5060
_cell_length_b                    7.9460
_cell_length_c                    7.9460
_cell_angle_alpha                 108.1000
_cell_angle_beta                  90.2231
_cell_angle_gamma                 90.2231
loop_
_atom_site_label
_atom_site_type_symbol
_atom_site_fract_x
_atom_site_fract_y
_atom_site_fract_z
_atom_site_U_iso_or_equiv
_atom_site_adp_type
_atom_site_occupancy
Co1    Co    0.50000   0.00000   0.00000   0.01267  Uiso   1.00
Co2    Co    0.00000   0.12055   0.87945   0.01267  Uiso   1.00
Co3    Co    0.00000   0.87945   0.12055   0.01267  Uiso   1.00
H1     H     0.16420   0.82130   0.82130   0.01267  Uiso   1.00
H2     H     0.83580   0.17870   0.17870   0.01267  Uiso   1.00
C1     C     0.34170   0.05170   0.56710   0.01267  Uiso   1.00
C2     C     0.57500   0.99230   0.61570   0.01267  Uiso   1.00
C3     C     0.65830   0.43290   0.94830   0.01267  Uiso   1.00
C4     C     0.42500   0.38430   0.00770   0.01267  Uiso   1.00
C5     C     0.65830   0.94830   0.43290   0.01267  Uiso   1.00
C6     C     0.42500   0.00770   0.38430   0.01267  Uiso   1.00
C7     C     0.34170   0.56710   0.05170   0.01267  Uiso   1.00
C8     C     0.57500   0.61570   0.99230   0.01267  Uiso   1.00
O1     O     0.15090   0.11760   0.64320   0.01267  Uiso   1.00
O2     O     0.67140   0.98145   0.75675   0.01267  Uiso   1.00
O3     O     0.84910   0.35680   0.88240   0.01267  Uiso   1.00
O4     O     0.32860   0.24325   0.01855   0.01267  Uiso   1.00
O5     O     0.84910   0.88240   0.35680   0.01267  Uiso   1.00
O6     O     0.32860   0.01855   0.24325   0.01267  Uiso   1.00
O7     O     0.15090   0.64320   0.11760   0.01267  Uiso   1.00
O8     O     0.67140   0.75675   0.98145   0.01267  Uiso   1.00
O9     O     0.17530   0.89860   0.89860   0.01267  Uiso   1.00
O10    O     0.82470   0.10140   0.10140   0.01267  Uiso   1.00
