data_REGJIW01_clean
_audit_creation_date              2014-07-02
_audit_creation_method            'Materials Studio'
_symmetry_space_group_name_H-M    'P1'
_symmetry_Int_Tables_number       1
_symmetry_cell_setting            triclinic
loop_
_symmetry_equiv_pos_as_xyz
  x,y,z
_cell_length_a                    5.4998
_cell_length_b                    7.9357
_cell_length_c                    7.9357
_cell_angle_alpha                 108.2880
_cell_angle_beta                  90.3122
_cell_angle_gamma                 90.3122
loop_
_atom_site_label
_atom_site_type_symbol
_atom_site_fract_x
_atom_site_fract_y
_atom_site_fract_z
_atom_site_U_iso_or_equiv
_atom_site_adp_type
_atom_site_occupancy
Co1    Co    0.50000  -0.00000  -0.00000   0.01267  Uiso   1.00
Co2    Co    0.00000   0.87986   0.12014   0.01267  Uiso   1.00
Co3    Co    0.00000   0.12014   0.87986   0.01267  Uiso   1.00
H1     H     0.84400   0.18200   0.18200   0.01267  Uiso   1.00
H2     H     0.15600   0.81800   0.81800   0.01267  Uiso   1.00
C1     C     0.65850   0.94770   0.43270   0.01267  Uiso   1.00
C2     C     0.42460   0.00820   0.38400   0.01267  Uiso   1.00
C3     C     0.34150   0.56730   0.05230   0.01267  Uiso   1.00
C4     C     0.57540   0.61600   0.99180   0.01267  Uiso   1.00
C5     C     0.34150   0.05230   0.56730   0.01267  Uiso   1.00
C6     C     0.57540   0.99180   0.61600   0.01267  Uiso   1.00
C7     C     0.65850   0.43270   0.94770   0.01267  Uiso   1.00
C8     C     0.42460   0.38400   0.00820   0.01267  Uiso   1.00
O1     O     0.84920   0.88194   0.35666   0.01267  Uiso   1.00
O2     O     0.32850   0.01930   0.24310   0.01267  Uiso   1.00
O3     O     0.15080   0.64334   0.11806   0.01267  Uiso   1.00
O4     O     0.67150   0.75690   0.98070   0.01267  Uiso   1.00
O5     O     0.15080   0.11806   0.64334   0.01267  Uiso   1.00
O6     O     0.67150   0.98070   0.75690   0.01267  Uiso   1.00
O7     O     0.84920   0.35666   0.88194   0.01267  Uiso   1.00
O8     O     0.32850   0.24310   0.01930   0.01267  Uiso   1.00
O9     O     0.82610   0.10210   0.10210   0.01267  Uiso   1.00
O10    O     0.17390   0.89790   0.89790   0.01267  Uiso   1.00
