data_image0
_cell_length_a       13.543
_cell_length_b       12.338
_cell_length_c       40.267
_cell_angle_alpha    90
_cell_angle_beta     108.395
_cell_angle_gamma    90

_symmetry_space_group_name_H-M    "P 1"
_symmetry_int_tables_number       1

loop_
  _symmetry_equiv_pos_as_xyz
  'x, y, z'

loop_
  _atom_site_label
  _atom_site_occupancy
  _atom_site_fract_x
  _atom_site_fract_y
  _atom_site_fract_z
  _atom_site_thermal_displace_type
  _atom_site_B_iso_or_equiv
  _atom_site_type_symbol
  Co1      1.0000 0.32068  0.38794  0.19318  Biso   1.000  Co
  Co2      1.0000 0.12711  0.40886  0.42064  Biso   1.000  Co
  O1       1.0000 0.06060  0.53310  0.44687  Biso   1.000  O
  O2       1.0000 0.07930  0.59540  0.50098  Biso   1.000  O
  O3       1.0000 0.22320  0.26630  0.42180  Biso   1.000  O
  O4       1.0000 0.32780  0.14940  0.45861  Biso   1.000  O
  O5       1.0000 0.26125  0.27230  0.69500  Biso   1.000  O
  O6       1.0000 0.20280  0.42120  0.66280  Biso   1.000  O
  O7       1.0000 0.36500  0.97940  0.66371  Biso   1.000  O
  O8       1.0000 0.40220  0.94730  0.61430  Biso   1.000  O
  N1       1.0000 0.29040  0.16960  0.64310  Biso   1.000  N
  N2       1.0000 0.17720  0.36510  0.47180  Biso   1.000  N
  N3       1.0000 0.64510  0.33460  0.21176  Biso   1.000  N
  N4       1.0000 0.47750  0.33230  0.20443  Biso   1.000  N
  N5       1.0000 0.94560  0.08920  0.32286  Biso   1.000  N
  N6       1.0000 0.82860  0.95960  0.31871  Biso   1.000  N
  N7       1.0000 0.96880  0.05820  0.17630  Biso   1.000  N
  N8       1.0000 0.91070  0.94960  0.13126  Biso   1.000  N
  N9       1.0000 0.46530  0.47350  0.29849  Biso   1.000  N
  N10      1.0000 0.36060  0.43280  0.24585  Biso   1.000  N
  N11      1.0000 0.41890  0.57750  0.43914  Biso   1.000  N
  N12      1.0000 0.26150  0.51190  0.43004  Biso   1.000  N
  N13      1.0000 0.83450  0.26460  0.41583  Biso   1.000  N
  N14      1.0000 0.98860  0.31690  0.41373  Biso   1.000  N
  C1       1.0000 0.08990  0.52650  0.48015  Biso   1.000  C
  C2       1.0000 0.26470  0.22620  0.45137  Biso   1.000  C
  C3       1.0000 0.23590  0.32820  0.66673  Biso   1.000  C
  C4       1.0000 0.36340  0.00230  0.63319  Biso   1.000  C
  C5       1.0000 0.14720  0.42310  0.49501  Biso   1.000  C
  C6       1.0000 0.17180  0.38880  0.52948  Biso   1.000  C
  H1       1.0000 0.14990  0.42990  0.54580  Biso   1.000  H
  C7       1.0000 0.22840  0.29400  0.53993  Biso   1.000  C
  C8       1.0000 0.26300  0.23830  0.51510  Biso   1.000  C
  H2       1.0000 0.30550  0.17570  0.52160  Biso   1.000  H
  C9       1.0000 0.23400  0.27640  0.48128  Biso   1.000  C
  C10      1.0000 0.25320  0.27000  0.63569  Biso   1.000  C
  C11      1.0000 0.23370  0.31430  0.60278  Biso   1.000  C
  H3       1.0000 0.20820  0.38630  0.59810  Biso   1.000  H
  C12      1.0000 0.25250  0.25070  0.57631  Biso   1.000  C
  C13      1.0000 0.29400  0.14770  0.58515  Biso   1.000  C
  H4       1.0000 0.30930  0.10350  0.56810  Biso   1.000  H
  C14      1.0000 0.31290  0.10980  0.61875  Biso   1.000  C
  C15      1.0000 0.83690  0.31060  0.22868  Biso   1.000  C
  C16      1.0000 0.87390  0.29530  0.26478  Biso   1.000  C
  C17      1.0000 0.95640  0.22280  0.27886  Biso   1.000  C
  C18      1.0000 0.00590  0.17260  0.25710  Biso   1.000  C
  C19      1.0000 0.97140  0.19490  0.22150  Biso   1.000  C
  C20      1.0000 0.88500  0.26010  0.20670  Biso   1.000  C
  C21      1.0000 0.74600  0.38490  0.21285  Biso   1.000  C
  H5       1.0000 0.75590  0.45260  0.22670  Biso   1.000  H
  H6       1.0000 0.74380  0.40410  0.18880  Biso   1.000  H
  C22      1.0000 0.55420  0.38410  0.19781  Biso   1.000  C
  H7       1.0000 0.54560  0.44920  0.18460  Biso   1.000  H
  C23      1.0000 0.52260  0.24530  0.22445  Biso   1.000  C
  H8       1.0000 0.48700  0.19330  0.23380  Biso   1.000  H
  C24      1.0000 0.62620  0.24470  0.22887  Biso   1.000  C
  H9       1.0000 0.67570  0.19260  0.24130  Biso   1.000  H
  C25      1.0000 0.82410  0.35220  0.28854  Biso   1.000  C
  H10      1.0000 0.76920  0.40070  0.27470  Biso   1.000  H
  H11      1.0000 0.87680  0.39450  0.30600  Biso   1.000  H
  H12      1.0000 0.79390  0.29840  0.30040  Biso   1.000  H
  C26      1.0000 0.99050  0.19380  0.31748  Biso   1.000  C
  H13      1.0000 0.06740  0.18950  0.32650  Biso   1.000  H
  H14      1.0000 0.96770  0.25110  0.33060  Biso   1.000  H
  C27      1.0000 0.84840  0.05440  0.30684  Biso   1.000  C
  H15      1.0000 0.79890  0.09370  0.28890  Biso   1.000  H
  C28      1.0000 0.91970  0.93380  0.34453  Biso   1.000  C
  H16      1.0000 0.93030  0.87050  0.35860  Biso   1.000  H
  C29      1.0000 0.99230  0.01190  0.34696  Biso   1.000  C
  H17      1.0000 0.06180  0.01270  0.36240  Biso   1.000  H
  C30      1.0000 0.09310  0.09430  0.27243  Biso   1.000  C
  H18      1.0000 0.15970  0.13270  0.27850  Biso   1.000  H
  H19      1.0000 0.09160  0.03740  0.25530  Biso   1.000  H
  H20      1.0000 0.08480  0.06140  0.29350  Biso   1.000  H
  C31      1.0000 0.02850  0.14700  0.19804  Biso   1.000  C
  H21      1.0000 0.04100  0.20450  0.18270  Biso   1.000  H
  H22      1.0000 0.09700  0.11910  0.21270  Biso   1.000  H
  C32      1.0000 0.97380  0.02930  0.14487  Biso   1.000  C
  H23      1.0000 0.01810  0.06290  0.13370  Biso   1.000  H
  C33      1.0000 0.86200  0.92520  0.15552  Biso   1.000  C
  H24      1.0000 0.81070  0.87050  0.15300  Biso   1.000  H
  C34      1.0000 0.89830  0.99100  0.18336  Biso   1.000  C
  H25      1.0000 0.87850  0.99060  0.20400  Biso   1.000  H
  C35      1.0000 0.84200  0.27470  0.16692  Biso   1.000  C
  H26      1.0000 0.89050  0.24290  0.15600  Biso   1.000  H
  H27      1.0000 0.83350  0.35210  0.16130  Biso   1.000  H
  H28      1.0000 0.77440  0.23840  0.15800  Biso   1.000  H
  C36      1.0000 0.57730  0.48080  0.36134  Biso   1.000  C
  C37      1.0000 0.54040  0.54440  0.38414  Biso   1.000  C
  C38      1.0000 0.56570  0.51350  0.41922  Biso   1.000  C
  C39      1.0000 0.62560  0.42120  0.43180  Biso   1.000  C
  C40      1.0000 0.66630  0.36090  0.40932  Biso   1.000  C
  C41      1.0000 0.63790  0.38850  0.37377  Biso   1.000  C
  C42      1.0000 0.56000  0.51790  0.32448  Biso   1.000  C
  H29      1.0000 0.55550  0.59800  0.32390  Biso   1.000  H
  H30      1.0000 0.62120  0.49700  0.31750  Biso   1.000  H
  C43      1.0000 0.45430  0.46720  0.26423  Biso   1.000  C
  H31      1.0000 0.50740  0.48530  0.25440  Biso   1.000  H
  C44      1.0000 0.30970  0.41770  0.27000  Biso   1.000  C
  H32      1.0000 0.23990  0.39320  0.26470  Biso   1.000  H
  C45      1.0000 0.37270  0.44240  0.30235  Biso   1.000  C
  H33      1.0000 0.35620  0.43890  0.32360  Biso   1.000  H
  C46      1.0000 0.47530  0.64430  0.37072  Biso   1.000  C
  H34      1.0000 0.41800  0.64740  0.38060  Biso   1.000  H
  H35      1.0000 0.44710  0.64110  0.34510  Biso   1.000  H
  H36      1.0000 0.51880  0.70910  0.37770  Biso   1.000  H
  C47      1.0000 0.53090  0.58710  0.44357  Biso   1.000  C
  H37      1.0000 0.57120  0.56930  0.46810  Biso   1.000  H
  H38      1.0000 0.54660  0.66320  0.43920  Biso   1.000  H
  C48      1.0000 0.35940  0.48900  0.43249  Biso   1.000  C
  H39      1.0000 0.38390  0.41840  0.42980  Biso   1.000  H
  C49      1.0000 0.26090  0.62100  0.43547  Biso   1.000  C
  H40      1.0000 0.20120  0.66170  0.43530  Biso   1.000  H
  C50      1.0000 0.35640  0.66310  0.44111  Biso   1.000  C
  H41      1.0000 0.37640  0.73680  0.44550  Biso   1.000  H
  C51      1.0000 0.64360  0.38340  0.46917  Biso   1.000  C
  H42      1.0000 0.59320  0.41850  0.47860  Biso   1.000  H
  H43      1.0000 0.71430  0.40280  0.48360  Biso   1.000  H
  H44      1.0000 0.63500  0.30460  0.46950  Biso   1.000  H
  C52      1.0000 0.73440  0.26400  0.42301  Biso   1.000  C
  H45      1.0000 0.74850  0.25980  0.44860  Biso   1.000  H
  H46      1.0000 0.69570  0.19780  0.41260  Biso   1.000  H
  C53      1.0000 0.90120  0.34620  0.41947  Biso   1.000  C
  H47      1.0000 0.88770  0.41780  0.42550  Biso   1.000  H
  C54      1.0000 0.97720  0.20890  0.40628  Biso   1.000  C
  H48      1.0000 0.02720  0.16420  0.40090  Biso   1.000  H
  C55      1.0000 0.88280  0.17510  0.40769  Biso   1.000  C
  H49      1.0000 0.85560  0.10350  0.40380  Biso   1.000  H
  C56      1.0000 0.67370  0.32030  0.34863  Biso   1.000  C
  H50      1.0000 0.74030  0.34800  0.34750  Biso   1.000  H
  H51      1.0000 0.62180  0.32350  0.32530  Biso   1.000  H
  H52      1.0000 0.68230  0.24500  0.35680  Biso   1.000  H
  Co3      1.0000 0.67932  0.88794  0.30682  Biso   1.000  Co
  Co4      1.0000 0.87289  0.90886  0.07936  Biso   1.000  Co
  O9       1.0000 0.93940  0.03310  0.05313  Biso   1.000  O
  O10      1.0000 0.92070  0.09540  0.99902  Biso   1.000  O
  O11      1.0000 0.77680  0.76630  0.07820  Biso   1.000  O
  O12      1.0000 0.67220  0.64940  0.04139  Biso   1.000  O
  O13      1.0000 0.73875  0.77230  0.80500  Biso   1.000  O
  O14      1.0000 0.79720  0.92120  0.83720  Biso   1.000  O
  O15      1.0000 0.63500  0.47940  0.83629  Biso   1.000  O
  O16      1.0000 0.59780  0.44730  0.88570  Biso   1.000  O
  N15      1.0000 0.70960  0.66960  0.85690  Biso   1.000  N
  N16      1.0000 0.82280  0.86510  0.02820  Biso   1.000  N
  N17      1.0000 0.35490  0.83460  0.28824  Biso   1.000  N
  N18      1.0000 0.52250  0.83230  0.29557  Biso   1.000  N
  N19      1.0000 0.05440  0.58920  0.17714  Biso   1.000  N
  N20      1.0000 0.17140  0.45960  0.18129  Biso   1.000  N
  N21      1.0000 0.03120  0.55820  0.32370  Biso   1.000  N
  N22      1.0000 0.08930  0.44960  0.36874  Biso   1.000  N
  N23      1.0000 0.53470  0.97350  0.20151  Biso   1.000  N
  N24      1.0000 0.63940  0.93280  0.25415  Biso   1.000  N
  N25      1.0000 0.58110  0.07750  0.06086  Biso   1.000  N
  N26      1.0000 0.73850  0.01190  0.06996  Biso   1.000  N
  N27      1.0000 0.16550  0.76460  0.08417  Biso   1.000  N
  N28      1.0000 0.01140  0.81690  0.08627  Biso   1.000  N
  C57      1.0000 0.91010  0.02650  0.01985  Biso   1.000  C
  C58      1.0000 0.73530  0.72620  0.04863  Biso   1.000  C
  C59      1.0000 0.76410  0.82820  0.83327  Biso   1.000  C
  C60      1.0000 0.63660  0.50230  0.86681  Biso   1.000  C
  C61      1.0000 0.85280  0.92310  0.00499  Biso   1.000  C
  C62      1.0000 0.82820  0.88880  0.97052  Biso   1.000  C
  H53      1.0000 0.85010  0.92990  0.95420  Biso   1.000  H
  C63      1.0000 0.77160  0.79400  0.96007  Biso   1.000  C
  C64      1.0000 0.73700  0.73830  0.98490  Biso   1.000  C
  H54      1.0000 0.69450  0.67570  0.97840  Biso   1.000  H
  C65      1.0000 0.76600  0.77640  0.01872  Biso   1.000  C
  C66      1.0000 0.74680  0.77000  0.86431  Biso   1.000  C
  C67      1.0000 0.76630  0.81430  0.89722  Biso   1.000  C
  H55      1.0000 0.79180  0.88630  0.90190  Biso   1.000  H
  C68      1.0000 0.74750  0.75070  0.92369  Biso   1.000  C
  C69      1.0000 0.70600  0.64770  0.91485  Biso   1.000  C
  H56      1.0000 0.69070  0.60350  0.93190  Biso   1.000  H
  C70      1.0000 0.68710  0.60980  0.88125  Biso   1.000  C
  C71      1.0000 0.16310  0.81060  0.27132  Biso   1.000  C
  C72      1.0000 0.12610  0.79530  0.23522  Biso   1.000  C
  C73      1.0000 0.04360  0.72280  0.22114  Biso   1.000  C
  C74      1.0000 0.99410  0.67260  0.24290  Biso   1.000  C
  C75      1.0000 0.02860  0.69490  0.27850  Biso   1.000  C
  C76      1.0000 0.11500  0.76010  0.29330  Biso   1.000  C
  C77      1.0000 0.25400  0.88490  0.28715  Biso   1.000  C
  H57      1.0000 0.24410  0.95260  0.27330  Biso   1.000  H
  H58      1.0000 0.25620  0.90410  0.31120  Biso   1.000  H
  C78      1.0000 0.44580  0.88410  0.30219  Biso   1.000  C
  H59      1.0000 0.45440  0.94920  0.31540  Biso   1.000  H
  C79      1.0000 0.47740  0.74530  0.27555  Biso   1.000  C
  H60      1.0000 0.51300  0.69330  0.26620  Biso   1.000  H
  C80      1.0000 0.37380  0.74470  0.27113  Biso   1.000  C
  H61      1.0000 0.32430  0.69260  0.25870  Biso   1.000  H
  C81      1.0000 0.17590  0.85220  0.21146  Biso   1.000  C
  H62      1.0000 0.23080  0.90070  0.22530  Biso   1.000  H
  H63      1.0000 0.12320  0.89450  0.19400  Biso   1.000  H
  H64      1.0000 0.20610  0.79840  0.19960  Biso   1.000  H
  C82      1.0000 0.00950  0.69380  0.18252  Biso   1.000  C
  H65      1.0000 0.93260  0.68950  0.17350  Biso   1.000  H
  H66      1.0000 0.03230  0.75110  0.16940  Biso   1.000  H
  C83      1.0000 0.15160  0.55440  0.19316  Biso   1.000  C
  H67      1.0000 0.20110  0.59370  0.21110  Biso   1.000  H
  C84      1.0000 0.08030  0.43380  0.15547  Biso   1.000  C
  H68      1.0000 0.06970  0.37050  0.14140  Biso   1.000  H
  C85      1.0000 0.00770  0.51190  0.15304  Biso   1.000  C
  H69      1.0000 0.93820  0.51270  0.13760  Biso   1.000  H
  C86      1.0000 0.90690  0.59430  0.22757  Biso   1.000  C
  H70      1.0000 0.84030  0.63270  0.22150  Biso   1.000  H
  H71      1.0000 0.90840  0.53740  0.24470  Biso   1.000  H
  H72      1.0000 0.91520  0.56140  0.20650  Biso   1.000  H
  C87      1.0000 0.97150  0.64700  0.30196  Biso   1.000  C
  H73      1.0000 0.95900  0.70450  0.31730  Biso   1.000  H
  H74      1.0000 0.90300  0.61910  0.28730  Biso   1.000  H
  C88      1.0000 0.02620  0.52930  0.35513  Biso   1.000  C
  H75      1.0000 0.98190  0.56290  0.36630  Biso   1.000  H
  C89      1.0000 0.13800  0.42520  0.34448  Biso   1.000  C
  H76      1.0000 0.18930  0.37050  0.34700  Biso   1.000  H
  C90      1.0000 0.10170  0.49100  0.31664  Biso   1.000  C
  H77      1.0000 0.12150  0.49060  0.29600  Biso   1.000  H
  C91      1.0000 0.15800  0.77470  0.33308  Biso   1.000  C
  H78      1.0000 0.10950  0.74290  0.34400  Biso   1.000  H
  H79      1.0000 0.16650  0.85210  0.33870  Biso   1.000  H
  H80      1.0000 0.22560  0.73840  0.34200  Biso   1.000  H
  C92      1.0000 0.42270  0.98080  0.13866  Biso   1.000  C
  C93      1.0000 0.45960  0.04440  0.11586  Biso   1.000  C
  C94      1.0000 0.43430  0.01350  0.08078  Biso   1.000  C
  C95      1.0000 0.37440  0.92120  0.06820  Biso   1.000  C
  C96      1.0000 0.33370  0.86090  0.09068  Biso   1.000  C
  C97      1.0000 0.36210  0.88850  0.12623  Biso   1.000  C
  C98      1.0000 0.44000  0.01790  0.17552  Biso   1.000  C
  H81      1.0000 0.44450  0.09800  0.17610  Biso   1.000  H
  H82      1.0000 0.37880  0.99700  0.18250  Biso   1.000  H
  C99      1.0000 0.54570  0.96720  0.23577  Biso   1.000  C
  H83      1.0000 0.49260  0.98530  0.24560  Biso   1.000  H
  C100     1.0000 0.69030  0.91770  0.23000  Biso   1.000  C
  H84      1.0000 0.76010  0.89320  0.23530  Biso   1.000  H
  C101     1.0000 0.62730  0.94240  0.19765  Biso   1.000  C
  H85      1.0000 0.64380  0.93890  0.17640  Biso   1.000  H
  C102     1.0000 0.52470  0.14430  0.12928  Biso   1.000  C
  H86      1.0000 0.58200  0.14740  0.11940  Biso   1.000  H
  H87      1.0000 0.55290  0.14110  0.15490  Biso   1.000  H
  H88      1.0000 0.48120  0.20910  0.12230  Biso   1.000  H
  C103     1.0000 0.46910  0.08710  0.05643  Biso   1.000  C
  H89      1.0000 0.42880  0.06930  0.03190  Biso   1.000  H
  H90      1.0000 0.45340  0.16320  0.06080  Biso   1.000  H
  C104     1.0000 0.64060  0.98900  0.06751  Biso   1.000  C
  H91      1.0000 0.61610  0.91840  0.07020  Biso   1.000  H
  C105     1.0000 0.73910  0.12100  0.06453  Biso   1.000  C
  H92      1.0000 0.79880  0.16170  0.06470  Biso   1.000  H
  C106     1.0000 0.64360  0.16310  0.05889  Biso   1.000  C
  H93      1.0000 0.62360  0.23680  0.05450  Biso   1.000  H
  C107     1.0000 0.35640  0.88340  0.03083  Biso   1.000  C
  H94      1.0000 0.40680  0.91850  0.02140  Biso   1.000  H
  H95      1.0000 0.28570  0.90280  0.01640  Biso   1.000  H
  H96      1.0000 0.36500  0.80460  0.03050  Biso   1.000  H
  C108     1.0000 0.26560  0.76400  0.07699  Biso   1.000  C
  H97      1.0000 0.25150  0.75980  0.05140  Biso   1.000  H
  H98      1.0000 0.30430  0.69780  0.08740  Biso   1.000  H
  C109     1.0000 0.09880  0.84620  0.08053  Biso   1.000  C
  H99      1.0000 0.11230  0.91780  0.07450  Biso   1.000  H
  C110     1.0000 0.02280  0.70890  0.09372  Biso   1.000  C
  H100     1.0000 0.97280  0.66420  0.09910  Biso   1.000  H
  C111     1.0000 0.11720  0.67510  0.09231  Biso   1.000  C
  H101     1.0000 0.14440  0.60350  0.09620  Biso   1.000  H
  C112     1.0000 0.32630  0.82030  0.15137  Biso   1.000  C
  H102     1.0000 0.25970  0.84800  0.15250  Biso   1.000  H
  H103     1.0000 0.37820  0.82350  0.17470  Biso   1.000  H
  H104     1.0000 0.31770  0.74500  0.14320  Biso   1.000  H
  Co5      1.0000 0.67932  0.61206  0.80682  Biso   1.000  Co
  Co6      1.0000 0.87289  0.59114  0.57936  Biso   1.000  Co
  O17      1.0000 0.93940  0.46690  0.55313  Biso   1.000  O
  O18      1.0000 0.92070  0.40460  0.49902  Biso   1.000  O
  O19      1.0000 0.77680  0.73370  0.57820  Biso   1.000  O
  O20      1.0000 0.67220  0.85060  0.54139  Biso   1.000  O
  O21      1.0000 0.73875  0.72770  0.30500  Biso   1.000  O
  O22      1.0000 0.79720  0.57880  0.33720  Biso   1.000  O
  O23      1.0000 0.63500  0.02060  0.33629  Biso   1.000  O
  O24      1.0000 0.59780  0.05270  0.38570  Biso   1.000  O
  N29      1.0000 0.70960  0.83040  0.35690  Biso   1.000  N
  N30      1.0000 0.82280  0.63490  0.52820  Biso   1.000  N
  N31      1.0000 0.35490  0.66540  0.78824  Biso   1.000  N
  N32      1.0000 0.52250  0.66770  0.79557  Biso   1.000  N
  N33      1.0000 0.05440  0.91080  0.67714  Biso   1.000  N
  N34      1.0000 0.17140  0.04040  0.68129  Biso   1.000  N
  N35      1.0000 0.03120  0.94180  0.82370  Biso   1.000  N
  N36      1.0000 0.08930  0.05040  0.86874  Biso   1.000  N
  N37      1.0000 0.53470  0.52650  0.70151  Biso   1.000  N
  N38      1.0000 0.63940  0.56720  0.75415  Biso   1.000  N
  N39      1.0000 0.58110  0.42250  0.56086  Biso   1.000  N
  N40      1.0000 0.73850  0.48810  0.56996  Biso   1.000  N
  N41      1.0000 0.16550  0.73540  0.58417  Biso   1.000  N
  N42      1.0000 0.01140  0.68310  0.58627  Biso   1.000  N
  C113     1.0000 0.91010  0.47350  0.51985  Biso   1.000  C
  C114     1.0000 0.73530  0.77380  0.54863  Biso   1.000  C
  C115     1.0000 0.76410  0.67180  0.33327  Biso   1.000  C
  C116     1.0000 0.63660  0.99770  0.36681  Biso   1.000  C
  C117     1.0000 0.85280  0.57690  0.50499  Biso   1.000  C
  C118     1.0000 0.82820  0.61120  0.47052  Biso   1.000  C
  H105     1.0000 0.85010  0.57010  0.45420  Biso   1.000  H
  C119     1.0000 0.77160  0.70600  0.46007  Biso   1.000  C
  C120     1.0000 0.73700  0.76170  0.48490  Biso   1.000  C
  H106     1.0000 0.69450  0.82430  0.47840  Biso   1.000  H
  C121     1.0000 0.76600  0.72360  0.51872  Biso   1.000  C
  C122     1.0000 0.74680  0.73000  0.36431  Biso   1.000  C
  C123     1.0000 0.76630  0.68570  0.39722  Biso   1.000  C
  H107     1.0000 0.79180  0.61370  0.40190  Biso   1.000  H
  C124     1.0000 0.74750  0.74930  0.42369  Biso   1.000  C
  C125     1.0000 0.70600  0.85230  0.41485  Biso   1.000  C
  H108     1.0000 0.69070  0.89650  0.43190  Biso   1.000  H
  C126     1.0000 0.68710  0.89020  0.38125  Biso   1.000  C
  C127     1.0000 0.16310  0.68940  0.77132  Biso   1.000  C
  C128     1.0000 0.12610  0.70470  0.73522  Biso   1.000  C
  C129     1.0000 0.04360  0.77720  0.72114  Biso   1.000  C
  C130     1.0000 0.99410  0.82740  0.74290  Biso   1.000  C
  C131     1.0000 0.02860  0.80510  0.77850  Biso   1.000  C
  C132     1.0000 0.11500  0.73990  0.79330  Biso   1.000  C
  C133     1.0000 0.25400  0.61510  0.78715  Biso   1.000  C
  H109     1.0000 0.24410  0.54740  0.77330  Biso   1.000  H
  H110     1.0000 0.25620  0.59590  0.81120  Biso   1.000  H
  C134     1.0000 0.44580  0.61590  0.80219  Biso   1.000  C
  H111     1.0000 0.45440  0.55080  0.81540  Biso   1.000  H
  C135     1.0000 0.47740  0.75470  0.77555  Biso   1.000  C
  H112     1.0000 0.51300  0.80670  0.76620  Biso   1.000  H
  C136     1.0000 0.37380  0.75530  0.77113  Biso   1.000  C
  H113     1.0000 0.32430  0.80740  0.75870  Biso   1.000  H
  C137     1.0000 0.17590  0.64780  0.71146  Biso   1.000  C
  H114     1.0000 0.23080  0.59930  0.72530  Biso   1.000  H
  H115     1.0000 0.12320  0.60550  0.69400  Biso   1.000  H
  H116     1.0000 0.20610  0.70160  0.69960  Biso   1.000  H
  C138     1.0000 0.00950  0.80620  0.68252  Biso   1.000  C
  H117     1.0000 0.93260  0.81050  0.67350  Biso   1.000  H
  H118     1.0000 0.03230  0.74890  0.66940  Biso   1.000  H
  C139     1.0000 0.15160  0.94560  0.69316  Biso   1.000  C
  H119     1.0000 0.20110  0.90630  0.71110  Biso   1.000  H
  C140     1.0000 0.08030  0.06620  0.65547  Biso   1.000  C
  H120     1.0000 0.06970  0.12950  0.64140  Biso   1.000  H
  C141     1.0000 0.00770  0.98810  0.65304  Biso   1.000  C
  H121     1.0000 0.93820  0.98730  0.63760  Biso   1.000  H
  C142     1.0000 0.90690  0.90570  0.72757  Biso   1.000  C
  H122     1.0000 0.84030  0.86730  0.72150  Biso   1.000  H
  H123     1.0000 0.90840  0.96260  0.74470  Biso   1.000  H
  H124     1.0000 0.91520  0.93860  0.70650  Biso   1.000  H
  C143     1.0000 0.97150  0.85300  0.80196  Biso   1.000  C
  H125     1.0000 0.95900  0.79550  0.81730  Biso   1.000  H
  H126     1.0000 0.90300  0.88090  0.78730  Biso   1.000  H
  C144     1.0000 0.02620  0.97070  0.85513  Biso   1.000  C
  H127     1.0000 0.98190  0.93710  0.86630  Biso   1.000  H
  C145     1.0000 0.13800  0.07480  0.84448  Biso   1.000  C
  H128     1.0000 0.18930  0.12950  0.84700  Biso   1.000  H
  C146     1.0000 0.10170  0.00900  0.81664  Biso   1.000  C
  H129     1.0000 0.12150  0.00940  0.79600  Biso   1.000  H
  C147     1.0000 0.15800  0.72530  0.83308  Biso   1.000  C
  H130     1.0000 0.10950  0.75710  0.84400  Biso   1.000  H
  H131     1.0000 0.16650  0.64790  0.83870  Biso   1.000  H
  H132     1.0000 0.22560  0.76160  0.84200  Biso   1.000  H
  C148     1.0000 0.42270  0.51920  0.63866  Biso   1.000  C
  C149     1.0000 0.45960  0.45560  0.61586  Biso   1.000  C
  C150     1.0000 0.43430  0.48650  0.58078  Biso   1.000  C
  C151     1.0000 0.37440  0.57880  0.56820  Biso   1.000  C
  C152     1.0000 0.33370  0.63910  0.59068  Biso   1.000  C
  C153     1.0000 0.36210  0.61150  0.62623  Biso   1.000  C
  C154     1.0000 0.44000  0.48210  0.67552  Biso   1.000  C
  H133     1.0000 0.44450  0.40200  0.67610  Biso   1.000  H
  H134     1.0000 0.37880  0.50300  0.68250  Biso   1.000  H
  C155     1.0000 0.54570  0.53280  0.73577  Biso   1.000  C
  H135     1.0000 0.49260  0.51470  0.74560  Biso   1.000  H
  C156     1.0000 0.69030  0.58230  0.73000  Biso   1.000  C
  H136     1.0000 0.76010  0.60680  0.73530  Biso   1.000  H
  C157     1.0000 0.62730  0.55760  0.69765  Biso   1.000  C
  H137     1.0000 0.64380  0.56110  0.67640  Biso   1.000  H
  C158     1.0000 0.52470  0.35570  0.62928  Biso   1.000  C
  H138     1.0000 0.58200  0.35260  0.61940  Biso   1.000  H
  H139     1.0000 0.55290  0.35890  0.65490  Biso   1.000  H
  H140     1.0000 0.48120  0.29090  0.62230  Biso   1.000  H
  C159     1.0000 0.46910  0.41290  0.55643  Biso   1.000  C
  H141     1.0000 0.42880  0.43070  0.53190  Biso   1.000  H
  H142     1.0000 0.45340  0.33680  0.56080  Biso   1.000  H
  C160     1.0000 0.64060  0.51100  0.56751  Biso   1.000  C
  H143     1.0000 0.61610  0.58160  0.57020  Biso   1.000  H
  C161     1.0000 0.73910  0.37900  0.56453  Biso   1.000  C
  H144     1.0000 0.79880  0.33830  0.56470  Biso   1.000  H
  C162     1.0000 0.64360  0.33690  0.55889  Biso   1.000  C
  H145     1.0000 0.62360  0.26320  0.55450  Biso   1.000  H
  C163     1.0000 0.35640  0.61660  0.53083  Biso   1.000  C
  H146     1.0000 0.40680  0.58150  0.52140  Biso   1.000  H
  H147     1.0000 0.28570  0.59720  0.51640  Biso   1.000  H
  H148     1.0000 0.36500  0.69540  0.53050  Biso   1.000  H
  C164     1.0000 0.26560  0.73600  0.57699  Biso   1.000  C
  H149     1.0000 0.25150  0.74020  0.55140  Biso   1.000  H
  H150     1.0000 0.30430  0.80220  0.58740  Biso   1.000  H
  C165     1.0000 0.09880  0.65380  0.58053  Biso   1.000  C
  H151     1.0000 0.11230  0.58220  0.57450  Biso   1.000  H
  C166     1.0000 0.02280  0.79110  0.59372  Biso   1.000  C
  H152     1.0000 0.97280  0.83580  0.59910  Biso   1.000  H
  C167     1.0000 0.11720  0.82490  0.59231  Biso   1.000  C
  H153     1.0000 0.14440  0.89650  0.59620  Biso   1.000  H
  C168     1.0000 0.32630  0.67970  0.65137  Biso   1.000  C
  H154     1.0000 0.25970  0.65200  0.65250  Biso   1.000  H
  H155     1.0000 0.37820  0.67650  0.67470  Biso   1.000  H
  H156     1.0000 0.31770  0.75500  0.64320  Biso   1.000  H
  Co7      1.0000 0.32068  0.11206  0.69318  Biso   1.000  Co
  Co8      1.0000 0.12711  0.09114  0.92064  Biso   1.000  Co
  O25      1.0000 0.06060  0.96690  0.94687  Biso   1.000  O
  O26      1.0000 0.07930  0.90460  0.00098  Biso   1.000  O
  O27      1.0000 0.22320  0.23370  0.92180  Biso   1.000  O
  O28      1.0000 0.32780  0.35060  0.95861  Biso   1.000  O
  O29      1.0000 0.26125  0.22770  0.19500  Biso   1.000  O
  O30      1.0000 0.20280  0.07880  0.16280  Biso   1.000  O
  O31      1.0000 0.36500  0.52060  0.16371  Biso   1.000  O
  O32      1.0000 0.40220  0.55270  0.11430  Biso   1.000  O
  N43      1.0000 0.29040  0.33040  0.14310  Biso   1.000  N
  N44      1.0000 0.17720  0.13490  0.97180  Biso   1.000  N
  N45      1.0000 0.64510  0.16540  0.71176  Biso   1.000  N
  N46      1.0000 0.47750  0.16770  0.70443  Biso   1.000  N
  N47      1.0000 0.94560  0.41080  0.82286  Biso   1.000  N
  N48      1.0000 0.82860  0.54040  0.81871  Biso   1.000  N
  N49      1.0000 0.96880  0.44180  0.67630  Biso   1.000  N
  N50      1.0000 0.91070  0.55040  0.63126  Biso   1.000  N
  N51      1.0000 0.46530  0.02650  0.79849  Biso   1.000  N
  N52      1.0000 0.36060  0.06720  0.74585  Biso   1.000  N
  N53      1.0000 0.41890  0.92250  0.93914  Biso   1.000  N
  N54      1.0000 0.26150  0.98810  0.93004  Biso   1.000  N
  N55      1.0000 0.83450  0.23540  0.91583  Biso   1.000  N
  N56      1.0000 0.98860  0.18310  0.91373  Biso   1.000  N
  C169     1.0000 0.08990  0.97350  0.98015  Biso   1.000  C
  C170     1.0000 0.26470  0.27380  0.95137  Biso   1.000  C
  C171     1.0000 0.23590  0.17180  0.16673  Biso   1.000  C
  C172     1.0000 0.36340  0.49770  0.13319  Biso   1.000  C
  C173     1.0000 0.14720  0.07690  0.99501  Biso   1.000  C
  C174     1.0000 0.17180  0.11120  0.02948  Biso   1.000  C
  H157     1.0000 0.14990  0.07010  0.04580  Biso   1.000  H
  C175     1.0000 0.22840  0.20600  0.03993  Biso   1.000  C
  C176     1.0000 0.26300  0.26170  0.01510  Biso   1.000  C
  H158     1.0000 0.30550  0.32430  0.02160  Biso   1.000  H
  C177     1.0000 0.23400  0.22360  0.98128  Biso   1.000  C
  C178     1.0000 0.25320  0.23000  0.13569  Biso   1.000  C
  C179     1.0000 0.23370  0.18570  0.10278  Biso   1.000  C
  H159     1.0000 0.20820  0.11370  0.09810  Biso   1.000  H
  C180     1.0000 0.25250  0.24930  0.07631  Biso   1.000  C
  C181     1.0000 0.29400  0.35230  0.08515  Biso   1.000  C
  H160     1.0000 0.30930  0.39650  0.06810  Biso   1.000  H
  C182     1.0000 0.31290  0.39020  0.11875  Biso   1.000  C
  C183     1.0000 0.83690  0.18940  0.72868  Biso   1.000  C
  C184     1.0000 0.87390  0.20470  0.76478  Biso   1.000  C
  C185     1.0000 0.95640  0.27720  0.77886  Biso   1.000  C
  C186     1.0000 0.00590  0.32740  0.75710  Biso   1.000  C
  C187     1.0000 0.97140  0.30510  0.72150  Biso   1.000  C
  C188     1.0000 0.88500  0.23990  0.70670  Biso   1.000  C
  C189     1.0000 0.74600  0.11510  0.71285  Biso   1.000  C
  H161     1.0000 0.75590  0.04740  0.72670  Biso   1.000  H
  H162     1.0000 0.74380  0.09590  0.68880  Biso   1.000  H
  C190     1.0000 0.55420  0.11590  0.69781  Biso   1.000  C
  H163     1.0000 0.54560  0.05080  0.68460  Biso   1.000  H
  C191     1.0000 0.52260  0.25470  0.72445  Biso   1.000  C
  H164     1.0000 0.48700  0.30670  0.73380  Biso   1.000  H
  C192     1.0000 0.62620  0.25530  0.72887  Biso   1.000  C
  H165     1.0000 0.67570  0.30740  0.74130  Biso   1.000  H
  C193     1.0000 0.82410  0.14780  0.78854  Biso   1.000  C
  H166     1.0000 0.76920  0.09930  0.77470  Biso   1.000  H
  H167     1.0000 0.87680  0.10550  0.80600  Biso   1.000  H
  H168     1.0000 0.79390  0.20160  0.80040  Biso   1.000  H
  C194     1.0000 0.99050  0.30620  0.81748  Biso   1.000  C
  H169     1.0000 0.06740  0.31050  0.82650  Biso   1.000  H
  H170     1.0000 0.96770  0.24890  0.83060  Biso   1.000  H
  C195     1.0000 0.84840  0.44560  0.80684  Biso   1.000  C
  H171     1.0000 0.79890  0.40630  0.78890  Biso   1.000  H
  C196     1.0000 0.91970  0.56620  0.84453  Biso   1.000  C
  H172     1.0000 0.93030  0.62950  0.85860  Biso   1.000  H
  C197     1.0000 0.99230  0.48810  0.84696  Biso   1.000  C
  H173     1.0000 0.06180  0.48730  0.86240  Biso   1.000  H
  C198     1.0000 0.09310  0.40570  0.77243  Biso   1.000  C
  H174     1.0000 0.15970  0.36730  0.77850  Biso   1.000  H
  H175     1.0000 0.09160  0.46260  0.75530  Biso   1.000  H
  H176     1.0000 0.08480  0.43860  0.79350  Biso   1.000  H
  C199     1.0000 0.02850  0.35300  0.69804  Biso   1.000  C
  H177     1.0000 0.04100  0.29550  0.68270  Biso   1.000  H
  H178     1.0000 0.09700  0.38090  0.71270  Biso   1.000  H
  C200     1.0000 0.97380  0.47070  0.64487  Biso   1.000  C
  H179     1.0000 0.01810  0.43710  0.63370  Biso   1.000  H
  C201     1.0000 0.86200  0.57480  0.65552  Biso   1.000  C
  H180     1.0000 0.81070  0.62950  0.65300  Biso   1.000  H
  C202     1.0000 0.89830  0.50900  0.68336  Biso   1.000  C
  H181     1.0000 0.87850  0.50940  0.70400  Biso   1.000  H
  C203     1.0000 0.84200  0.22530  0.66692  Biso   1.000  C
  H182     1.0000 0.89050  0.25710  0.65600  Biso   1.000  H
  H183     1.0000 0.83350  0.14790  0.66130  Biso   1.000  H
  H184     1.0000 0.77440  0.26160  0.65800  Biso   1.000  H
  C204     1.0000 0.57730  0.01920  0.86134  Biso   1.000  C
  C205     1.0000 0.54040  0.95560  0.88414  Biso   1.000  C
  C206     1.0000 0.56570  0.98650  0.91922  Biso   1.000  C
  C207     1.0000 0.62560  0.07880  0.93180  Biso   1.000  C
  C208     1.0000 0.66630  0.13910  0.90932  Biso   1.000  C
  C209     1.0000 0.63790  0.11150  0.87377  Biso   1.000  C
  C210     1.0000 0.56000  0.98210  0.82448  Biso   1.000  C
  H185     1.0000 0.55550  0.90200  0.82390  Biso   1.000  H
  H186     1.0000 0.62120  0.00300  0.81750  Biso   1.000  H
  C211     1.0000 0.45430  0.03280  0.76423  Biso   1.000  C
  H187     1.0000 0.50740  0.01470  0.75440  Biso   1.000  H
  C212     1.0000 0.30970  0.08230  0.77000  Biso   1.000  C
  H188     1.0000 0.23990  0.10680  0.76470  Biso   1.000  H
  C213     1.0000 0.37270  0.05760  0.80235  Biso   1.000  C
  H189     1.0000 0.35620  0.06110  0.82360  Biso   1.000  H
  C214     1.0000 0.47530  0.85570  0.87072  Biso   1.000  C
  H190     1.0000 0.41800  0.85260  0.88060  Biso   1.000  H
  H191     1.0000 0.44710  0.85890  0.84510  Biso   1.000  H
  H192     1.0000 0.51880  0.79090  0.87770  Biso   1.000  H
  C215     1.0000 0.53090  0.91290  0.94357  Biso   1.000  C
  H193     1.0000 0.57120  0.93070  0.96810  Biso   1.000  H
  H194     1.0000 0.54660  0.83680  0.93920  Biso   1.000  H
  C216     1.0000 0.35940  0.01100  0.93249  Biso   1.000  C
  H195     1.0000 0.38390  0.08160  0.92980  Biso   1.000  H
  C217     1.0000 0.26090  0.87900  0.93547  Biso   1.000  C
  H196     1.0000 0.20120  0.83830  0.93530  Biso   1.000  H
  C218     1.0000 0.35640  0.83690  0.94111  Biso   1.000  C
  H197     1.0000 0.37640  0.76320  0.94550  Biso   1.000  H
  C219     1.0000 0.64360  0.11660  0.96917  Biso   1.000  C
  H198     1.0000 0.59320  0.08150  0.97860  Biso   1.000  H
  H199     1.0000 0.71430  0.09720  0.98360  Biso   1.000  H
  H200     1.0000 0.63500  0.19540  0.96950  Biso   1.000  H
  C220     1.0000 0.73440  0.23600  0.92301  Biso   1.000  C
  H201     1.0000 0.74850  0.24020  0.94860  Biso   1.000  H
  H202     1.0000 0.69570  0.30220  0.91260  Biso   1.000  H
  C221     1.0000 0.90120  0.15380  0.91947  Biso   1.000  C
  H203     1.0000 0.88770  0.08220  0.92550  Biso   1.000  H
  C222     1.0000 0.97720  0.29110  0.90628  Biso   1.000  C
  H204     1.0000 0.02720  0.33580  0.90090  Biso   1.000  H
  C223     1.0000 0.88280  0.32490  0.90769  Biso   1.000  C
  H205     1.0000 0.85560  0.39650  0.90380  Biso   1.000  H
  C224     1.0000 0.67370  0.17970  0.84863  Biso   1.000  C
  H206     1.0000 0.74030  0.15200  0.84750  Biso   1.000  H
  H207     1.0000 0.62180  0.17650  0.82530  Biso   1.000  H
  H208     1.0000 0.68230  0.25500  0.85680  Biso   1.000  H
