data_image0
_cell_length_a       20.57
_cell_length_b       9.901
_cell_length_c       27.211
_cell_angle_alpha    90
_cell_angle_beta     108.526
_cell_angle_gamma    90

_symmetry_space_group_name_H-M    "P 1"
_symmetry_int_tables_number       1

loop_
  _symmetry_equiv_pos_as_xyz
  'x, y, z'

loop_
  _atom_site_label
  _atom_site_occupancy
  _atom_site_fract_x
  _atom_site_fract_y
  _atom_site_fract_z
  _atom_site_thermal_displace_type
  _atom_site_B_iso_or_equiv
  _atom_site_type_symbol
  Co1      1.0000 0.13610  0.55592  0.17428  Biso   1.000  Co
  O1       1.0000 0.04672  0.68749  0.16198  Biso   1.000  O
  O2       1.0000 0.14398  0.78787  0.16952  Biso   1.000  O
  O3       1.0000 0.05904  0.40961  0.16669  Biso   1.000  O
  O4       1.0000 0.15603  0.29903  0.18086  Biso   1.000  O
  N1       1.0000 0.74673  0.06251  0.18840  Biso   1.000  N
  N2       1.0000 0.14946  0.56574  0.25629  Biso   1.000  N
  N3       1.0000 0.12319  0.46750  0.59299  Biso   1.000  N
  C1       1.0000 0.95285  0.05480  0.17935  Biso   1.000  C
  C2       1.0000 0.98375  0.93160  0.17466  Biso   1.000  C
  H1       1.0000 0.95980  0.84960  0.17480  Biso   1.000  H
  C3       1.0000 0.04935  0.92750  0.16979  Biso   1.000  C
  C4       1.0000 0.08520  0.04710  0.17027  Biso   1.000  C
  H2       1.0000 0.13030  0.04420  0.16800  Biso   1.000  H
  C5       1.0000 0.05505  0.17110  0.17406  Biso   1.000  C
  C6       1.0000 0.98921  0.17420  0.17883  Biso   1.000  C
  H3       1.0000 0.96890  0.25860  0.18180  Biso   1.000  H
  C7       1.0000 0.78748  0.95460  0.20378  Biso   1.000  C
  H4       1.0000 0.76980  0.87850  0.21660  Biso   1.000  H
  C8       1.0000 0.85429  0.94800  0.20196  Biso   1.000  C
  H5       1.0000 0.88060  0.86820  0.21280  Biso   1.000  H
  C9       1.0000 0.88266  0.05880  0.18414  Biso   1.000  C
  C10      1.0000 0.84104  0.17260  0.17031  Biso   1.000  C
  H6       1.0000 0.85800  0.25180  0.15890  Biso   1.000  H
  C11      1.0000 0.77482  0.17090  0.17312  Biso   1.000  C
  H7       1.0000 0.74790  0.25040  0.16380  Biso   1.000  H
  C12      1.0000 0.15691  0.55870  0.41579  Biso   1.000  C
  H8       1.0000 0.19760  0.59020  0.44100  Biso   1.000  H
  C13      1.0000 0.20794  0.58830  0.29484  Biso   1.000  C
  H9       1.0000 0.24850  0.60470  0.28620  Biso   1.000  H
  C14      1.0000 0.21202  0.58900  0.34678  Biso   1.000  C
  H10      1.0000 0.25470  0.60540  0.37270  Biso   1.000  H
  C15      1.0000 0.15338  0.56550  0.36092  Biso   1.000  C
  C16      1.0000 0.09198  0.54700  0.32068  Biso   1.000  C
  H11      1.0000 0.05020  0.53470  0.32800  Biso   1.000  H
  C17      1.0000 0.09257  0.54700  0.27011  Biso   1.000  C
  H12      1.0000 0.05030  0.53290  0.24340  Biso   1.000  H
  C18      1.0000 0.10677  0.51110  0.43261  Biso   1.000  C
  H13      1.0000 0.06540  0.48240  0.40740  Biso   1.000  H
  C19      1.0000 0.08180  0.79330  0.16645  Biso   1.000  C
  C20      1.0000 0.07850  0.39500  0.55580  Biso   1.000  C
  H14      1.0000 0.05060  0.33100  0.56570  Biso   1.000  H
  C21      1.0000 0.07090  0.40860  0.50335  Biso   1.000  C
  H15      1.0000 0.03810  0.35560  0.47840  Biso   1.000  H
  C22      1.0000 0.11175  0.50060  0.48772  Biso   1.000  C
  C23      1.0000 0.15697  0.57830  0.52636  Biso   1.000  C
  H16      1.0000 0.18490  0.64430  0.51750  Biso   1.000  H
  C24      1.0000 0.16105  0.55930  0.57750  Biso   1.000  C
  H17      1.0000 0.19220  0.61360  0.60310  Biso   1.000  H
  C25      1.0000 0.09319  0.30110  0.17392  Biso   1.000  C
  Co2      1.0000 0.63610  0.05592  0.17428  Biso   1.000  Co
  O5       1.0000 0.54672  0.18749  0.16198  Biso   1.000  O
  O6       1.0000 0.64398  0.28787  0.16952  Biso   1.000  O
  O7       1.0000 0.55904  0.90961  0.16669  Biso   1.000  O
  O8       1.0000 0.65603  0.79903  0.18086  Biso   1.000  O
  N4       1.0000 0.24673  0.56251  0.18840  Biso   1.000  N
  N5       1.0000 0.64946  0.06574  0.25629  Biso   1.000  N
  N6       1.0000 0.62319  0.96750  0.59299  Biso   1.000  N
  C26      1.0000 0.45285  0.55480  0.17935  Biso   1.000  C
  C27      1.0000 0.48375  0.43160  0.17466  Biso   1.000  C
  H18      1.0000 0.45980  0.34960  0.17480  Biso   1.000  H
  C28      1.0000 0.54935  0.42750  0.16979  Biso   1.000  C
  C29      1.0000 0.58520  0.54710  0.17027  Biso   1.000  C
  H19      1.0000 0.63030  0.54420  0.16800  Biso   1.000  H
  C30      1.0000 0.55505  0.67110  0.17406  Biso   1.000  C
  C31      1.0000 0.48921  0.67420  0.17883  Biso   1.000  C
  H20      1.0000 0.46890  0.75860  0.18180  Biso   1.000  H
  C32      1.0000 0.28748  0.45460  0.20378  Biso   1.000  C
  H21      1.0000 0.26980  0.37850  0.21660  Biso   1.000  H
  C33      1.0000 0.35429  0.44800  0.20196  Biso   1.000  C
  H22      1.0000 0.38060  0.36820  0.21280  Biso   1.000  H
  C34      1.0000 0.38266  0.55880  0.18414  Biso   1.000  C
  C35      1.0000 0.34104  0.67260  0.17031  Biso   1.000  C
  H23      1.0000 0.35800  0.75180  0.15890  Biso   1.000  H
  C36      1.0000 0.27482  0.67090  0.17312  Biso   1.000  C
  H24      1.0000 0.24790  0.75040  0.16380  Biso   1.000  H
  C37      1.0000 0.65691  0.05870  0.41579  Biso   1.000  C
  H25      1.0000 0.69760  0.09020  0.44100  Biso   1.000  H
  C38      1.0000 0.70794  0.08830  0.29484  Biso   1.000  C
  H26      1.0000 0.74850  0.10470  0.28620  Biso   1.000  H
  C39      1.0000 0.71202  0.08900  0.34678  Biso   1.000  C
  H27      1.0000 0.75470  0.10540  0.37270  Biso   1.000  H
  C40      1.0000 0.65338  0.06550  0.36092  Biso   1.000  C
  C41      1.0000 0.59198  0.04700  0.32068  Biso   1.000  C
  H28      1.0000 0.55020  0.03470  0.32800  Biso   1.000  H
  C42      1.0000 0.59257  0.04700  0.27011  Biso   1.000  C
  H29      1.0000 0.55030  0.03290  0.24340  Biso   1.000  H
  C43      1.0000 0.60677  0.01110  0.43261  Biso   1.000  C
  H30      1.0000 0.56540  0.98240  0.40740  Biso   1.000  H
  C44      1.0000 0.58180  0.29330  0.16645  Biso   1.000  C
  C45      1.0000 0.57850  0.89500  0.55580  Biso   1.000  C
  H31      1.0000 0.55060  0.83100  0.56570  Biso   1.000  H
  C46      1.0000 0.57090  0.90860  0.50335  Biso   1.000  C
  H32      1.0000 0.53810  0.85560  0.47840  Biso   1.000  H
  C47      1.0000 0.61175  0.00060  0.48772  Biso   1.000  C
  C48      1.0000 0.65697  0.07830  0.52636  Biso   1.000  C
  H33      1.0000 0.68490  0.14430  0.51750  Biso   1.000  H
  C49      1.0000 0.66105  0.05930  0.57750  Biso   1.000  C
  H34      1.0000 0.69220  0.11360  0.60310  Biso   1.000  H
  C50      1.0000 0.59319  0.80110  0.17392  Biso   1.000  C
  Co3      1.0000 0.13610  0.44408  0.67428  Biso   1.000  Co
  O9       1.0000 0.04672  0.31251  0.66198  Biso   1.000  O
  O10      1.0000 0.14398  0.21213  0.66952  Biso   1.000  O
  O11      1.0000 0.05904  0.59039  0.66669  Biso   1.000  O
  O12      1.0000 0.15603  0.70097  0.68086  Biso   1.000  O
  N7       1.0000 0.74673  0.93749  0.68840  Biso   1.000  N
  N8       1.0000 0.14946  0.43426  0.75629  Biso   1.000  N
  N9       1.0000 0.12319  0.53250  0.09299  Biso   1.000  N
  C51      1.0000 0.95285  0.94520  0.67935  Biso   1.000  C
  C52      1.0000 0.98375  0.06840  0.67466  Biso   1.000  C
  H35      1.0000 0.95980  0.15040  0.67480  Biso   1.000  H
  C53      1.0000 0.04935  0.07250  0.66979  Biso   1.000  C
  C54      1.0000 0.08520  0.95290  0.67027  Biso   1.000  C
  H36      1.0000 0.13030  0.95580  0.66800  Biso   1.000  H
  C55      1.0000 0.05505  0.82890  0.67406  Biso   1.000  C
  C56      1.0000 0.98921  0.82580  0.67883  Biso   1.000  C
  H37      1.0000 0.96890  0.74140  0.68180  Biso   1.000  H
  C57      1.0000 0.78748  0.04540  0.70378  Biso   1.000  C
  H38      1.0000 0.76980  0.12150  0.71660  Biso   1.000  H
  C58      1.0000 0.85429  0.05200  0.70196  Biso   1.000  C
  H39      1.0000 0.88060  0.13180  0.71280  Biso   1.000  H
  C59      1.0000 0.88266  0.94120  0.68414  Biso   1.000  C
  C60      1.0000 0.84104  0.82740  0.67031  Biso   1.000  C
  H40      1.0000 0.85800  0.74820  0.65890  Biso   1.000  H
  C61      1.0000 0.77482  0.82910  0.67312  Biso   1.000  C
  H41      1.0000 0.74790  0.74960  0.66380  Biso   1.000  H
  C62      1.0000 0.15691  0.44130  0.91579  Biso   1.000  C
  H42      1.0000 0.19760  0.40980  0.94100  Biso   1.000  H
  C63      1.0000 0.20794  0.41170  0.79484  Biso   1.000  C
  H43      1.0000 0.24850  0.39530  0.78620  Biso   1.000  H
  C64      1.0000 0.21202  0.41100  0.84678  Biso   1.000  C
  H44      1.0000 0.25470  0.39460  0.87270  Biso   1.000  H
  C65      1.0000 0.15338  0.43450  0.86092  Biso   1.000  C
  C66      1.0000 0.09198  0.45300  0.82068  Biso   1.000  C
  H45      1.0000 0.05020  0.46530  0.82800  Biso   1.000  H
  C67      1.0000 0.09257  0.45300  0.77011  Biso   1.000  C
  H46      1.0000 0.05030  0.46710  0.74340  Biso   1.000  H
  C68      1.0000 0.10677  0.48890  0.93261  Biso   1.000  C
  H47      1.0000 0.06540  0.51760  0.90740  Biso   1.000  H
  C69      1.0000 0.08180  0.20670  0.66645  Biso   1.000  C
  C70      1.0000 0.07850  0.60500  0.05580  Biso   1.000  C
  H48      1.0000 0.05060  0.66900  0.06570  Biso   1.000  H
  C71      1.0000 0.07090  0.59140  0.00335  Biso   1.000  C
  H49      1.0000 0.03810  0.64440  0.97840  Biso   1.000  H
  C72      1.0000 0.11175  0.49940  0.98772  Biso   1.000  C
  C73      1.0000 0.15697  0.42170  0.02636  Biso   1.000  C
  H50      1.0000 0.18490  0.35570  0.01750  Biso   1.000  H
  C74      1.0000 0.16105  0.44070  0.07750  Biso   1.000  C
  H51      1.0000 0.19220  0.38640  0.10310  Biso   1.000  H
  C75      1.0000 0.09319  0.69890  0.67392  Biso   1.000  C
  Co4      1.0000 0.63610  0.94408  0.67428  Biso   1.000  Co
  O13      1.0000 0.54672  0.81251  0.66198  Biso   1.000  O
  O14      1.0000 0.64398  0.71213  0.66952  Biso   1.000  O
  O15      1.0000 0.55904  0.09039  0.66669  Biso   1.000  O
  O16      1.0000 0.65603  0.20097  0.68086  Biso   1.000  O
  N10      1.0000 0.24673  0.43749  0.68840  Biso   1.000  N
  N11      1.0000 0.64946  0.93426  0.75629  Biso   1.000  N
  N12      1.0000 0.62319  0.03250  0.09299  Biso   1.000  N
  C76      1.0000 0.45285  0.44520  0.67935  Biso   1.000  C
  C77      1.0000 0.48375  0.56840  0.67466  Biso   1.000  C
  H52      1.0000 0.45980  0.65040  0.67480  Biso   1.000  H
  C78      1.0000 0.54935  0.57250  0.66979  Biso   1.000  C
  C79      1.0000 0.58520  0.45290  0.67027  Biso   1.000  C
  H53      1.0000 0.63030  0.45580  0.66800  Biso   1.000  H
  C80      1.0000 0.55505  0.32890  0.67406  Biso   1.000  C
  C81      1.0000 0.48921  0.32580  0.67883  Biso   1.000  C
  H54      1.0000 0.46890  0.24140  0.68180  Biso   1.000  H
  C82      1.0000 0.28748  0.54540  0.70378  Biso   1.000  C
  H55      1.0000 0.26980  0.62150  0.71660  Biso   1.000  H
  C83      1.0000 0.35429  0.55200  0.70196  Biso   1.000  C
  H56      1.0000 0.38060  0.63180  0.71280  Biso   1.000  H
  C84      1.0000 0.38266  0.44120  0.68414  Biso   1.000  C
  C85      1.0000 0.34104  0.32740  0.67031  Biso   1.000  C
  H57      1.0000 0.35800  0.24820  0.65890  Biso   1.000  H
  C86      1.0000 0.27482  0.32910  0.67312  Biso   1.000  C
  H58      1.0000 0.24790  0.24960  0.66380  Biso   1.000  H
  C87      1.0000 0.65691  0.94130  0.91579  Biso   1.000  C
  H59      1.0000 0.69760  0.90980  0.94100  Biso   1.000  H
  C88      1.0000 0.70794  0.91170  0.79484  Biso   1.000  C
  H60      1.0000 0.74850  0.89530  0.78620  Biso   1.000  H
  C89      1.0000 0.71202  0.91100  0.84678  Biso   1.000  C
  H61      1.0000 0.75470  0.89460  0.87270  Biso   1.000  H
  C90      1.0000 0.65338  0.93450  0.86092  Biso   1.000  C
  C91      1.0000 0.59198  0.95300  0.82068  Biso   1.000  C
  H62      1.0000 0.55020  0.96530  0.82800  Biso   1.000  H
  C92      1.0000 0.59257  0.95300  0.77011  Biso   1.000  C
  H63      1.0000 0.55030  0.96710  0.74340  Biso   1.000  H
  C93      1.0000 0.60677  0.98890  0.93261  Biso   1.000  C
  H64      1.0000 0.56540  0.01760  0.90740  Biso   1.000  H
  C94      1.0000 0.58180  0.70670  0.66645  Biso   1.000  C
  C95      1.0000 0.57850  0.10500  0.05580  Biso   1.000  C
  H65      1.0000 0.55060  0.16900  0.06570  Biso   1.000  H
  C96      1.0000 0.57090  0.09140  0.00335  Biso   1.000  C
  H66      1.0000 0.53810  0.14440  0.97840  Biso   1.000  H
  C97      1.0000 0.61175  0.99940  0.98772  Biso   1.000  C
  C98      1.0000 0.65697  0.92170  0.02636  Biso   1.000  C
  H67      1.0000 0.68490  0.85570  0.01750  Biso   1.000  H
  C99      1.0000 0.66105  0.94070  0.07750  Biso   1.000  C
  H68      1.0000 0.69220  0.88640  0.10310  Biso   1.000  H
  C100     1.0000 0.59319  0.19890  0.67392  Biso   1.000  C
  Co5      1.0000 0.86390  0.55592  0.32572  Biso   1.000  Co
  O17      1.0000 0.95328  0.68749  0.33802  Biso   1.000  O
  O18      1.0000 0.85602  0.78787  0.33048  Biso   1.000  O
  O19      1.0000 0.94096  0.40961  0.33331  Biso   1.000  O
  O20      1.0000 0.84397  0.29903  0.31914  Biso   1.000  O
  N13      1.0000 0.25327  0.06251  0.31160  Biso   1.000  N
  N14      1.0000 0.85054  0.56574  0.24371  Biso   1.000  N
  N15      1.0000 0.87681  0.46750  0.90701  Biso   1.000  N
  C101     1.0000 0.04715  0.05480  0.32065  Biso   1.000  C
  C102     1.0000 0.01625  0.93160  0.32534  Biso   1.000  C
  H69      1.0000 0.04020  0.84960  0.32520  Biso   1.000  H
  C103     1.0000 0.95065  0.92750  0.33021  Biso   1.000  C
  C104     1.0000 0.91480  0.04710  0.32973  Biso   1.000  C
  H70      1.0000 0.86970  0.04420  0.33200  Biso   1.000  H
  C105     1.0000 0.94495  0.17110  0.32594  Biso   1.000  C
  C106     1.0000 0.01079  0.17420  0.32117  Biso   1.000  C
  H71      1.0000 0.03110  0.25860  0.31820  Biso   1.000  H
  C107     1.0000 0.21252  0.95460  0.29622  Biso   1.000  C
  H72      1.0000 0.23020  0.87850  0.28340  Biso   1.000  H
  C108     1.0000 0.14571  0.94800  0.29804  Biso   1.000  C
  H73      1.0000 0.11940  0.86820  0.28720  Biso   1.000  H
  C109     1.0000 0.11734  0.05880  0.31586  Biso   1.000  C
  C110     1.0000 0.15896  0.17260  0.32969  Biso   1.000  C
  H74      1.0000 0.14200  0.25180  0.34110  Biso   1.000  H
  C111     1.0000 0.22518  0.17090  0.32688  Biso   1.000  C
  H75      1.0000 0.25210  0.25040  0.33620  Biso   1.000  H
  C112     1.0000 0.84309  0.55870  0.08421  Biso   1.000  C
  H76      1.0000 0.80240  0.59020  0.05900  Biso   1.000  H
  C113     1.0000 0.79206  0.58830  0.20516  Biso   1.000  C
  H77      1.0000 0.75150  0.60470  0.21380  Biso   1.000  H
  C114     1.0000 0.78798  0.58900  0.15322  Biso   1.000  C
  H78      1.0000 0.74530  0.60540  0.12730  Biso   1.000  H
  C115     1.0000 0.84662  0.56550  0.13908  Biso   1.000  C
  C116     1.0000 0.90802  0.54700  0.17932  Biso   1.000  C
  H79      1.0000 0.94980  0.53470  0.17200  Biso   1.000  H
  C117     1.0000 0.90743  0.54700  0.22989  Biso   1.000  C
  H80      1.0000 0.94970  0.53290  0.25660  Biso   1.000  H
  C118     1.0000 0.89323  0.51110  0.06739  Biso   1.000  C
  H81      1.0000 0.93460  0.48240  0.09260  Biso   1.000  H
  C119     1.0000 0.91820  0.79330  0.33355  Biso   1.000  C
  C120     1.0000 0.92150  0.39500  0.94420  Biso   1.000  C
  H82      1.0000 0.94940  0.33100  0.93430  Biso   1.000  H
  C121     1.0000 0.92910  0.40860  0.99665  Biso   1.000  C
  H83      1.0000 0.96190  0.35560  0.02160  Biso   1.000  H
  C122     1.0000 0.88825  0.50060  0.01228  Biso   1.000  C
  C123     1.0000 0.84303  0.57830  0.97364  Biso   1.000  C
  H84      1.0000 0.81510  0.64430  0.98250  Biso   1.000  H
  C124     1.0000 0.83895  0.55930  0.92250  Biso   1.000  C
  H85      1.0000 0.80780  0.61360  0.89690  Biso   1.000  H
  C125     1.0000 0.90681  0.30110  0.32608  Biso   1.000  C
  Co6      1.0000 0.36390  0.05592  0.32572  Biso   1.000  Co
  O21      1.0000 0.45328  0.18749  0.33802  Biso   1.000  O
  O22      1.0000 0.35602  0.28787  0.33048  Biso   1.000  O
  O23      1.0000 0.44096  0.90961  0.33331  Biso   1.000  O
  O24      1.0000 0.34397  0.79903  0.31914  Biso   1.000  O
  N16      1.0000 0.75327  0.56251  0.31160  Biso   1.000  N
  N17      1.0000 0.35054  0.06574  0.24371  Biso   1.000  N
  N18      1.0000 0.37681  0.96750  0.90701  Biso   1.000  N
  C126     1.0000 0.54715  0.55480  0.32065  Biso   1.000  C
  C127     1.0000 0.51625  0.43160  0.32534  Biso   1.000  C
  H86      1.0000 0.54020  0.34960  0.32520  Biso   1.000  H
  C128     1.0000 0.45065  0.42750  0.33021  Biso   1.000  C
  C129     1.0000 0.41480  0.54710  0.32973  Biso   1.000  C
  H87      1.0000 0.36970  0.54420  0.33200  Biso   1.000  H
  C130     1.0000 0.44495  0.67110  0.32594  Biso   1.000  C
  C131     1.0000 0.51079  0.67420  0.32117  Biso   1.000  C
  H88      1.0000 0.53110  0.75860  0.31820  Biso   1.000  H
  C132     1.0000 0.71252  0.45460  0.29622  Biso   1.000  C
  H89      1.0000 0.73020  0.37850  0.28340  Biso   1.000  H
  C133     1.0000 0.64571  0.44800  0.29804  Biso   1.000  C
  H90      1.0000 0.61940  0.36820  0.28720  Biso   1.000  H
  C134     1.0000 0.61734  0.55880  0.31586  Biso   1.000  C
  C135     1.0000 0.65896  0.67260  0.32969  Biso   1.000  C
  H91      1.0000 0.64200  0.75180  0.34110  Biso   1.000  H
  C136     1.0000 0.72518  0.67090  0.32688  Biso   1.000  C
  H92      1.0000 0.75210  0.75040  0.33620  Biso   1.000  H
  C137     1.0000 0.34309  0.05870  0.08421  Biso   1.000  C
  H93      1.0000 0.30240  0.09020  0.05900  Biso   1.000  H
  C138     1.0000 0.29206  0.08830  0.20516  Biso   1.000  C
  H94      1.0000 0.25150  0.10470  0.21380  Biso   1.000  H
  C139     1.0000 0.28798  0.08900  0.15322  Biso   1.000  C
  H95      1.0000 0.24530  0.10540  0.12730  Biso   1.000  H
  C140     1.0000 0.34662  0.06550  0.13908  Biso   1.000  C
  C141     1.0000 0.40802  0.04700  0.17932  Biso   1.000  C
  H96      1.0000 0.44980  0.03470  0.17200  Biso   1.000  H
  C142     1.0000 0.40743  0.04700  0.22989  Biso   1.000  C
  H97      1.0000 0.44970  0.03290  0.25660  Biso   1.000  H
  C143     1.0000 0.39323  0.01110  0.06739  Biso   1.000  C
  H98      1.0000 0.43460  0.98240  0.09260  Biso   1.000  H
  C144     1.0000 0.41820  0.29330  0.33355  Biso   1.000  C
  C145     1.0000 0.42150  0.89500  0.94420  Biso   1.000  C
  H99      1.0000 0.44940  0.83100  0.93430  Biso   1.000  H
  C146     1.0000 0.42910  0.90860  0.99665  Biso   1.000  C
  H100     1.0000 0.46190  0.85560  0.02160  Biso   1.000  H
  C147     1.0000 0.38825  0.00060  0.01228  Biso   1.000  C
  C148     1.0000 0.34303  0.07830  0.97364  Biso   1.000  C
  H101     1.0000 0.31510  0.14430  0.98250  Biso   1.000  H
  C149     1.0000 0.33895  0.05930  0.92250  Biso   1.000  C
  H102     1.0000 0.30780  0.11360  0.89690  Biso   1.000  H
  C150     1.0000 0.40681  0.80110  0.32608  Biso   1.000  C
  Co7      1.0000 0.86390  0.44408  0.82572  Biso   1.000  Co
  O25      1.0000 0.95328  0.31251  0.83802  Biso   1.000  O
  O26      1.0000 0.85602  0.21213  0.83048  Biso   1.000  O
  O27      1.0000 0.94096  0.59039  0.83331  Biso   1.000  O
  O28      1.0000 0.84397  0.70097  0.81914  Biso   1.000  O
  N19      1.0000 0.25327  0.93749  0.81160  Biso   1.000  N
  N20      1.0000 0.85054  0.43426  0.74371  Biso   1.000  N
  N21      1.0000 0.87681  0.53250  0.40701  Biso   1.000  N
  C151     1.0000 0.04715  0.94520  0.82065  Biso   1.000  C
  C152     1.0000 0.01625  0.06840  0.82534  Biso   1.000  C
  H103     1.0000 0.04020  0.15040  0.82520  Biso   1.000  H
  C153     1.0000 0.95065  0.07250  0.83021  Biso   1.000  C
  C154     1.0000 0.91480  0.95290  0.82973  Biso   1.000  C
  H104     1.0000 0.86970  0.95580  0.83200  Biso   1.000  H
  C155     1.0000 0.94495  0.82890  0.82594  Biso   1.000  C
  C156     1.0000 0.01079  0.82580  0.82117  Biso   1.000  C
  H105     1.0000 0.03110  0.74140  0.81820  Biso   1.000  H
  C157     1.0000 0.21252  0.04540  0.79622  Biso   1.000  C
  H106     1.0000 0.23020  0.12150  0.78340  Biso   1.000  H
  C158     1.0000 0.14571  0.05200  0.79804  Biso   1.000  C
  H107     1.0000 0.11940  0.13180  0.78720  Biso   1.000  H
  C159     1.0000 0.11734  0.94120  0.81586  Biso   1.000  C
  C160     1.0000 0.15896  0.82740  0.82969  Biso   1.000  C
  H108     1.0000 0.14200  0.74820  0.84110  Biso   1.000  H
  C161     1.0000 0.22518  0.82910  0.82688  Biso   1.000  C
  H109     1.0000 0.25210  0.74960  0.83620  Biso   1.000  H
  C162     1.0000 0.84309  0.44130  0.58421  Biso   1.000  C
  H110     1.0000 0.80240  0.40980  0.55900  Biso   1.000  H
  C163     1.0000 0.79206  0.41170  0.70516  Biso   1.000  C
  H111     1.0000 0.75150  0.39530  0.71380  Biso   1.000  H
  C164     1.0000 0.78798  0.41100  0.65322  Biso   1.000  C
  H112     1.0000 0.74530  0.39460  0.62730  Biso   1.000  H
  C165     1.0000 0.84662  0.43450  0.63908  Biso   1.000  C
  C166     1.0000 0.90802  0.45300  0.67932  Biso   1.000  C
  H113     1.0000 0.94980  0.46530  0.67200  Biso   1.000  H
  C167     1.0000 0.90743  0.45300  0.72989  Biso   1.000  C
  H114     1.0000 0.94970  0.46710  0.75660  Biso   1.000  H
  C168     1.0000 0.89323  0.48890  0.56739  Biso   1.000  C
  H115     1.0000 0.93460  0.51760  0.59260  Biso   1.000  H
  C169     1.0000 0.91820  0.20670  0.83355  Biso   1.000  C
  C170     1.0000 0.92150  0.60500  0.44420  Biso   1.000  C
  H116     1.0000 0.94940  0.66900  0.43430  Biso   1.000  H
  C171     1.0000 0.92910  0.59140  0.49665  Biso   1.000  C
  H117     1.0000 0.96190  0.64440  0.52160  Biso   1.000  H
  C172     1.0000 0.88825  0.49940  0.51228  Biso   1.000  C
  C173     1.0000 0.84303  0.42170  0.47364  Biso   1.000  C
  H118     1.0000 0.81510  0.35570  0.48250  Biso   1.000  H
  C174     1.0000 0.83895  0.44070  0.42250  Biso   1.000  C
  H119     1.0000 0.80780  0.38640  0.39690  Biso   1.000  H
  C175     1.0000 0.90681  0.69890  0.82608  Biso   1.000  C
  Co8      1.0000 0.36390  0.94408  0.82572  Biso   1.000  Co
  O29      1.0000 0.45328  0.81251  0.83802  Biso   1.000  O
  O30      1.0000 0.35602  0.71213  0.83048  Biso   1.000  O
  O31      1.0000 0.44096  0.09039  0.83331  Biso   1.000  O
  O32      1.0000 0.34397  0.20097  0.81914  Biso   1.000  O
  N22      1.0000 0.75327  0.43749  0.81160  Biso   1.000  N
  N23      1.0000 0.35054  0.93426  0.74371  Biso   1.000  N
  N24      1.0000 0.37681  0.03250  0.40701  Biso   1.000  N
  C176     1.0000 0.54715  0.44520  0.82065  Biso   1.000  C
  C177     1.0000 0.51625  0.56840  0.82534  Biso   1.000  C
  H120     1.0000 0.54020  0.65040  0.82520  Biso   1.000  H
  C178     1.0000 0.45065  0.57250  0.83021  Biso   1.000  C
  C179     1.0000 0.41480  0.45290  0.82973  Biso   1.000  C
  H121     1.0000 0.36970  0.45580  0.83200  Biso   1.000  H
  C180     1.0000 0.44495  0.32890  0.82594  Biso   1.000  C
  C181     1.0000 0.51079  0.32580  0.82117  Biso   1.000  C
  H122     1.0000 0.53110  0.24140  0.81820  Biso   1.000  H
  C182     1.0000 0.71252  0.54540  0.79622  Biso   1.000  C
  H123     1.0000 0.73020  0.62150  0.78340  Biso   1.000  H
  C183     1.0000 0.64571  0.55200  0.79804  Biso   1.000  C
  H124     1.0000 0.61940  0.63180  0.78720  Biso   1.000  H
  C184     1.0000 0.61734  0.44120  0.81586  Biso   1.000  C
  C185     1.0000 0.65896  0.32740  0.82969  Biso   1.000  C
  H125     1.0000 0.64200  0.24820  0.84110  Biso   1.000  H
  C186     1.0000 0.72518  0.32910  0.82688  Biso   1.000  C
  H126     1.0000 0.75210  0.24960  0.83620  Biso   1.000  H
  C187     1.0000 0.34309  0.94130  0.58421  Biso   1.000  C
  H127     1.0000 0.30240  0.90980  0.55900  Biso   1.000  H
  C188     1.0000 0.29206  0.91170  0.70516  Biso   1.000  C
  H128     1.0000 0.25150  0.89530  0.71380  Biso   1.000  H
  C189     1.0000 0.28798  0.91100  0.65322  Biso   1.000  C
  H129     1.0000 0.24530  0.89460  0.62730  Biso   1.000  H
  C190     1.0000 0.34662  0.93450  0.63908  Biso   1.000  C
  C191     1.0000 0.40802  0.95300  0.67932  Biso   1.000  C
  H130     1.0000 0.44980  0.96530  0.67200  Biso   1.000  H
  C192     1.0000 0.40743  0.95300  0.72989  Biso   1.000  C
  H131     1.0000 0.44970  0.96710  0.75660  Biso   1.000  H
  C193     1.0000 0.39323  0.98890  0.56739  Biso   1.000  C
  H132     1.0000 0.43460  0.01760  0.59260  Biso   1.000  H
  C194     1.0000 0.41820  0.70670  0.83355  Biso   1.000  C
  C195     1.0000 0.42150  0.10500  0.44420  Biso   1.000  C
  H133     1.0000 0.44940  0.16900  0.43430  Biso   1.000  H
  C196     1.0000 0.42910  0.09140  0.49665  Biso   1.000  C
  H134     1.0000 0.46190  0.14440  0.52160  Biso   1.000  H
  C197     1.0000 0.38825  0.99940  0.51228  Biso   1.000  C
  C198     1.0000 0.34303  0.92170  0.47364  Biso   1.000  C
  H135     1.0000 0.31510  0.85570  0.48250  Biso   1.000  H
  C199     1.0000 0.33895  0.94070  0.42250  Biso   1.000  C
  H136     1.0000 0.30780  0.88640  0.39690  Biso   1.000  H
  C200     1.0000 0.40681  0.19890  0.82608  Biso   1.000  C
