data_REJLEY_clean
_audit_creation_date              2014-07-02
_audit_creation_method            'Materials Studio'
_symmetry_space_group_name_H-M    'P1'
_symmetry_Int_Tables_number       1
_symmetry_cell_setting            triclinic
loop_
_symmetry_equiv_pos_as_xyz
  x,y,z
_cell_length_a                    11.4482
_cell_length_b                    11.5408
_cell_length_c                    11.7663
_cell_angle_alpha                 65.3700
_cell_angle_beta                  80.5400
_cell_angle_gamma                 72.7590
loop_
_atom_site_label
_atom_site_type_symbol
_atom_site_fract_x
_atom_site_fract_y
_atom_site_fract_z
_atom_site_U_iso_or_equiv
_atom_site_adp_type
_atom_site_occupancy
Co1    Co    0.50000   0.00000   0.50000   0.01267  Uiso   1.00
Co2    Co    0.50000   0.50000   0.00000   0.01267  Uiso   1.00
Co3    Co    0.50000   0.50000   0.50000   0.01267  Uiso   1.00
H1     H     0.54500   0.16180   0.17790   0.01267  Uiso   1.00
H2     H     0.70160   0.87430   0.70390   0.01267  Uiso   1.00
H3     H     0.90960   0.77990   0.72010   0.01267  Uiso   1.00
H4     H     0.94570   0.94180   0.34130   0.01267  Uiso   1.00
H5     H     0.73690   0.03000   0.33770   0.01267  Uiso   1.00
H6     H     0.07670   0.61860   0.70380   0.01267  Uiso   1.00
H7     H     0.27830   0.50320   0.69300   0.01267  Uiso   1.00
H8     H     0.33970   0.77700   0.36920   0.01267  Uiso   1.00
H9     H     0.14100   0.90310   0.37100   0.01267  Uiso   1.00
H10    H     0.65760   0.68460   0.97760   0.01267  Uiso   1.00
H11    H     0.85690   0.69190   0.97420   0.01267  Uiso   1.00
H12    H     0.96190   0.30610   0.03770   0.01267  Uiso   1.00
H13    H     0.75880   0.30860   0.04330   0.01267  Uiso   1.00
H14    H     0.45500   0.83820   0.82210   0.01267  Uiso   1.00
H15    H     0.29840   0.12570   0.29610   0.01267  Uiso   1.00
H16    H     0.09040   0.22010   0.27990   0.01267  Uiso   1.00
H17    H     0.05430   0.05820   0.65870   0.01267  Uiso   1.00
H18    H     0.26310   0.97000   0.66230   0.01267  Uiso   1.00
H19    H     0.92330   0.38140   0.29620   0.01267  Uiso   1.00
H20    H     0.72170   0.49680   0.30700   0.01267  Uiso   1.00
H21    H     0.66030   0.22300   0.63080   0.01267  Uiso   1.00
H22    H     0.85900   0.09690   0.62900   0.01267  Uiso   1.00
H23    H     0.34240   0.31540   0.02240   0.01267  Uiso   1.00
H24    H     0.14310   0.30810   0.02580   0.01267  Uiso   1.00
H25    H     0.03810   0.69390   0.96230   0.01267  Uiso   1.00
H26    H     0.24120   0.69140   0.95670   0.01267  Uiso   1.00
C1     C     0.52420   0.21640   0.22410   0.01267  Uiso   1.00
C2     C     0.47780   0.27870   0.37810   0.01267  Uiso   1.00
C3     C     0.48100   0.38780   0.26840   0.01267  Uiso   1.00
C4     C     0.44700   0.25660   0.51160   0.01267  Uiso   1.00
C5     C     0.46150   0.53160   0.23460   0.01267  Uiso   1.00
C6     C     0.75190   0.88590   0.62920   0.01267  Uiso   1.00
C7     C     0.87620   0.82880   0.63990   0.01267  Uiso   1.00
C8     C     0.95210   0.84380   0.53180   0.01267  Uiso   1.00
C9     C     0.89730   0.92380   0.41750   0.01267  Uiso   1.00
C10    C     0.77260   0.97640   0.41630   0.01267  Uiso   1.00
C11    C     0.08380   0.77410   0.53530   0.01267  Uiso   1.00
C12    C     0.12860   0.65300   0.63320   0.01267  Uiso   1.00
C13    C     0.24900   0.58450   0.62560   0.01267  Uiso   1.00
C14    C     0.28500   0.74410   0.43740   0.01267  Uiso   1.00
C15    C     0.16610   0.81990   0.43760   0.01267  Uiso   1.00
C16    C     0.72070   0.60610   0.98960   0.01267  Uiso   1.00
C17    C     0.83990   0.61160   0.98670   0.01267  Uiso   1.00
C18    C     0.93440   0.50000   0.00220   0.01267  Uiso   1.00
C19    C     0.90070   0.38630   0.02430   0.01267  Uiso   1.00
C20    C     0.77920   0.38830   0.02710   0.01267  Uiso   1.00
C21    C     0.47580   0.78360   0.77590   0.01267  Uiso   1.00
C22    C     0.52220   0.72130   0.62190   0.01267  Uiso   1.00
C23    C     0.51900   0.61220   0.73160   0.01267  Uiso   1.00
C24    C     0.55300   0.74340   0.48840   0.01267  Uiso   1.00
C25    C     0.53850   0.46840   0.76540   0.01267  Uiso   1.00
C26    C     0.24810   0.11410   0.37080   0.01267  Uiso   1.00
C27    C     0.12380   0.17120   0.36010   0.01267  Uiso   1.00
C28    C     0.04790   0.15620   0.46820   0.01267  Uiso   1.00
C29    C     0.10270   0.07620   0.58250   0.01267  Uiso   1.00
C30    C     0.22740   0.02360   0.58370   0.01267  Uiso   1.00
C31    C     0.91620   0.22590   0.46470   0.01267  Uiso   1.00
C32    C     0.87140   0.34700   0.36680   0.01267  Uiso   1.00
C33    C     0.75100   0.41550   0.37440   0.01267  Uiso   1.00
C34    C     0.71500   0.25590   0.56260   0.01267  Uiso   1.00
C35    C     0.83390   0.18010   0.56240   0.01267  Uiso   1.00
C36    C     0.27930   0.39390   0.01040   0.01267  Uiso   1.00
C37    C     0.16010   0.38840   0.01330   0.01267  Uiso   1.00
C38    C     0.06560   0.50000   0.99780   0.01267  Uiso   1.00
C39    C     0.09930   0.61370   0.97570   0.01267  Uiso   1.00
C40    C     0.22080   0.61170   0.97290   0.01267  Uiso   1.00
N1     N     0.50580   0.17070   0.34800   0.01267  Uiso   1.00
N2     N     0.51040   0.34660   0.17130   0.01267  Uiso   1.00
N3     N     0.69840   0.95630   0.51990   0.01267  Uiso   1.00
N4     N     0.32660   0.62620   0.52890   0.01267  Uiso   1.00
N5     N     0.68890   0.49850   0.00780   0.01267  Uiso   1.00
N6     N     0.49420   0.82930   0.65200   0.01267  Uiso   1.00
N7     N     0.48960   0.65340   0.82870   0.01267  Uiso   1.00
N8     N     0.30160   0.04370   0.48010   0.01267  Uiso   1.00
N9     N     0.67340   0.37380   0.47110   0.01267  Uiso   1.00
N10    N     0.31110   0.50150   0.99220   0.01267  Uiso   1.00
O1     O     0.41490   0.35050   0.54690   0.01267  Uiso   1.00
O2     O     0.45260   0.13780   0.58590   0.01267  Uiso   1.00
O3     O     0.45720   0.57760   0.31440   0.01267  Uiso   1.00
O4     O     0.45150   0.60350   0.11880   0.01267  Uiso   1.00
O5     O     0.58510   0.64950   0.45310   0.01267  Uiso   1.00
O6     O     0.54740   0.86220   0.41410   0.01267  Uiso   1.00
O7     O     0.54280   0.42240   0.68560   0.01267  Uiso   1.00
O8     O     0.54850   0.39650   0.88120   0.01267  Uiso   1.00
