data_REJLIC_clean
_audit_creation_date              2014-07-02
_audit_creation_method            'Materials Studio'
_symmetry_space_group_name_H-M    'P1'
_symmetry_Int_Tables_number       1
_symmetry_cell_setting            triclinic
loop_
_symmetry_equiv_pos_as_xyz
  x,y,z
_cell_length_a                    11.7914
_cell_length_b                    17.0504
_cell_length_c                    20.7950
_cell_angle_alpha                 104.7260
_cell_angle_beta                  106.3600
_cell_angle_gamma                 103.4810
loop_
_atom_site_label
_atom_site_type_symbol
_atom_site_fract_x
_atom_site_fract_y
_atom_site_fract_z
_atom_site_U_iso_or_equiv
_atom_site_adp_type
_atom_site_occupancy
Co1    Co    0.00007   0.25188   0.24835   0.01267  Uiso   1.00
Co2    Co    0.99993   0.74812   0.75165   0.01267  Uiso   1.00
Co3    Co    0.50000   0.50000   0.50000   0.01267  Uiso   1.00
Co4    Co    0.00000   0.50000   0.50000   0.01267  Uiso   1.00
Co5    Co    0.00000   0.00000   0.00000   0.01267  Uiso   1.00
Co6    Co    0.50000   0.00000   0.00000   0.01267  Uiso   1.00
H1     H     0.32180   0.32340   0.34500   0.01267  Uiso   1.00
H2     H     0.68280   0.18750   0.14650   0.01267  Uiso   1.00
H3     H     0.52510   0.49660   0.65330   0.01267  Uiso   1.00
H4     H     0.52630   0.40180   0.71700   0.01267  Uiso   1.00
H5     H     0.42170   0.20880   0.53310   0.01267  Uiso   1.00
H6     H     0.42730   0.30890   0.47630   0.01267  Uiso   1.00
H7     H     0.51030   0.22810   0.88130   0.01267  Uiso   1.00
H8     H     0.52680   0.17150   0.97320   0.01267  Uiso   1.00
H9     H     0.50690   0.95100   0.84770   0.01267  Uiso   1.00
H10    H     0.49330   0.00110   0.75340   0.01267  Uiso   1.00
H11    H     0.14590   0.18180   0.35810   0.01267  Uiso   1.00
H12    H     0.12520   0.06780   0.39850   0.01267  Uiso   1.00
H13    H     0.75720   0.00820   0.31090   0.01267  Uiso   1.00
H14    H     0.78850   0.12370   0.27320   0.01267  Uiso   1.00
H15    H     0.10370   0.81550   0.51560   0.01267  Uiso   1.00
H16    H     0.12630   0.69940   0.54980   0.01267  Uiso   1.00
H17    H     0.80120   0.55060   0.40470   0.01267  Uiso   1.00
H18    H     0.76780   0.66500   0.37010   0.01267  Uiso   1.00
H19    H     0.19970   0.95480   0.09950   0.01267  Uiso   1.00
H20    H     0.23660   0.84320   0.13520   0.01267  Uiso   1.00
H21    H     0.91000   0.68630   0.98250   0.01267  Uiso   1.00
H22    H     0.87870   0.80290   0.95200   0.01267  Uiso   1.00
H23    H     0.25320   0.49150   0.18510   0.01267  Uiso   1.00
H24    H     0.21560   0.37590   0.22410   0.01267  Uiso   1.00
H25    H     0.85700   0.32800   0.14160   0.01267  Uiso   1.00
H26    H     0.88630   0.44070   0.10120   0.01267  Uiso   1.00
H27    H     0.67820   0.67660   0.65500   0.01267  Uiso   1.00
H28    H     0.31720   0.81250   0.85350   0.01267  Uiso   1.00
H29    H     0.47490   0.50340   0.34670   0.01267  Uiso   1.00
H30    H     0.47370   0.59820   0.28300   0.01267  Uiso   1.00
H31    H     0.57830   0.79120   0.46690   0.01267  Uiso   1.00
H32    H     0.57270   0.69110   0.52370   0.01267  Uiso   1.00
H33    H     0.48970   0.77190   0.11870   0.01267  Uiso   1.00
H34    H     0.47320   0.82850   0.02680   0.01267  Uiso   1.00
H35    H     0.49310   0.04900   0.15230   0.01267  Uiso   1.00
H36    H     0.50670   0.99890   0.24660   0.01267  Uiso   1.00
H37    H     0.85410   0.81820   0.64190   0.01267  Uiso   1.00
H38    H     0.87480   0.93220   0.60150   0.01267  Uiso   1.00
H39    H     0.24280   0.99180   0.68910   0.01267  Uiso   1.00
H40    H     0.21150   0.87630   0.72680   0.01267  Uiso   1.00
H41    H     0.89630   0.18450   0.48440   0.01267  Uiso   1.00
H42    H     0.87370   0.30060   0.45020   0.01267  Uiso   1.00
H43    H     0.19880   0.44940   0.59530   0.01267  Uiso   1.00
H44    H     0.23220   0.33500   0.62990   0.01267  Uiso   1.00
H45    H     0.80030   0.04520   0.90050   0.01267  Uiso   1.00
H46    H     0.76340   0.15680   0.86480   0.01267  Uiso   1.00
H47    H     0.09000   0.31370   0.01750   0.01267  Uiso   1.00
H48    H     0.12130   0.19710   0.04800   0.01267  Uiso   1.00
H49    H     0.74680   0.50850   0.81490   0.01267  Uiso   1.00
H50    H     0.78440   0.62410   0.77590   0.01267  Uiso   1.00
H51    H     0.14300   0.67200   0.85840   0.01267  Uiso   1.00
H52    H     0.11370   0.55930   0.89880   0.01267  Uiso   1.00
C1     C     0.27580   0.35490   0.36480   0.01267  Uiso   1.00
C2     C     0.23190   0.44960   0.43390   0.01267  Uiso   1.00
C3     C     0.12290   0.39490   0.37920   0.01267  Uiso   1.00
C4     C     0.26510   0.52550   0.49910   0.01267  Uiso   1.00
C5     C     0.98900   0.39000   0.35810   0.01267  Uiso   1.00
C6     C     0.72770   0.15320   0.12870   0.01267  Uiso   1.00
C7     C     0.87790   0.10730   0.11750   0.01267  Uiso   1.00
C8     C     0.76930   0.05300   0.06360   0.01267  Uiso   1.00
C9     C     0.01180   0.11240   0.14100   0.01267  Uiso   1.00
C10    C     0.73370   0.97140   0.00420   0.01267  Uiso   1.00
C11    C     0.50630   0.43730   0.62850   0.01267  Uiso   1.00
C12    C     0.50640   0.38100   0.66690   0.01267  Uiso   1.00
C13    C     0.47720   0.29450   0.63070   0.01267  Uiso   1.00
C14    C     0.44590   0.26800   0.55990   0.01267  Uiso   1.00
C15    C     0.44940   0.32870   0.52660   0.01267  Uiso   1.00
C16    C     0.48080   0.23270   0.66970   0.01267  Uiso   1.00
C17    C     0.49140   0.15430   0.74880   0.01267  Uiso   1.00
C18    C     0.50010   0.12000   0.80780   0.01267  Uiso   1.00
C19    C     0.50930   0.17050   0.87310   0.01267  Uiso   1.00
C20    C     0.51710   0.13580   0.92730   0.01267  Uiso   1.00
C21    C     0.50590   0.00800   0.85450   0.01267  Uiso   1.00
C22    C     0.49890   0.03740   0.79800   0.01267  Uiso   1.00
C23    C     0.06400   0.14390   0.34590   0.01267  Uiso   1.00
C24    C     0.05280   0.07630   0.37100   0.01267  Uiso   1.00
C25    C     0.93770   0.02200   0.35590   0.01267  Uiso   1.00
C26    C     0.84010   0.04220   0.32020   0.01267  Uiso   1.00
C27    C     0.85940   0.11090   0.29720   0.01267  Uiso   1.00
C28    C     0.91470   0.94230   0.37420   0.01267  Uiso   1.00
C29    C     0.91420   0.82170   0.41030   0.01267  Uiso   1.00
C30    C     0.93370   0.75170   0.43770   0.01267  Uiso   1.00
C31    C     0.03970   0.76120   0.49180   0.01267  Uiso   1.00
C32    C     0.05310   0.69130   0.51140   0.01267  Uiso   1.00
C33    C     0.86430   0.60530   0.42780   0.01267  Uiso   1.00
C34    C     0.84410   0.67330   0.40640   0.01267  Uiso   1.00
C35    C     0.13900   0.89910   0.07540   0.01267  Uiso   1.00
C36    C     0.16200   0.83300   0.09680   0.01267  Uiso   1.00
C37    C     0.07730   0.75230   0.06270   0.01267  Uiso   1.00
C38    C     0.97100   0.74160   0.00790   0.01267  Uiso   1.00
C39    C     0.95320   0.81130   0.98970   0.01267  Uiso   1.00
C40    C     0.10100   0.68220   0.08900   0.01267  Uiso   1.00
C41    C     0.09780   0.56150   0.12450   0.01267  Uiso   1.00
C42    C     0.07350   0.48300   0.14400   0.01267  Uiso   1.00
C43    C     0.16980   0.46000   0.17750   0.01267  Uiso   1.00
C44    C     0.14660   0.39070   0.20040   0.01267  Uiso   1.00
C45    C     0.94020   0.36330   0.15290   0.01267  Uiso   1.00
C46    C     0.95690   0.43050   0.12880   0.01267  Uiso   1.00
C47    C     0.72420   0.64510   0.63520   0.01267  Uiso   1.00
C48    C     0.76810   0.55040   0.56610   0.01267  Uiso   1.00
C49    C     0.87710   0.60510   0.62080   0.01267  Uiso   1.00
C50    C     0.73490   0.47450   0.50090   0.01267  Uiso   1.00
C51    C     0.01100   0.61000   0.64190   0.01267  Uiso   1.00
C52    C     0.27230   0.84680   0.87130   0.01267  Uiso   1.00
C53    C     0.12210   0.89270   0.88250   0.01267  Uiso   1.00
C54    C     0.23070   0.94700   0.93640   0.01267  Uiso   1.00
C55    C     0.98820   0.88760   0.85900   0.01267  Uiso   1.00
C56    C     0.26630   0.02860   0.99580   0.01267  Uiso   1.00
C57    C     0.49370   0.56270   0.37150   0.01267  Uiso   1.00
C58    C     0.49360   0.61900   0.33310   0.01267  Uiso   1.00
C59    C     0.52280   0.70550   0.36930   0.01267  Uiso   1.00
C60    C     0.55410   0.73200   0.44010   0.01267  Uiso   1.00
C61    C     0.55060   0.67130   0.47340   0.01267  Uiso   1.00
C62    C     0.51920   0.76730   0.33030   0.01267  Uiso   1.00
C63    C     0.50860   0.84570   0.25120   0.01267  Uiso   1.00
C64    C     0.49990   0.88000   0.19220   0.01267  Uiso   1.00
C65    C     0.49070   0.82950   0.12690   0.01267  Uiso   1.00
C66    C     0.48290   0.86420   0.07270   0.01267  Uiso   1.00
C67    C     0.49410   0.99200   0.14550   0.01267  Uiso   1.00
C68    C     0.50110   0.96260   0.20200   0.01267  Uiso   1.00
C69    C     0.93600   0.85610   0.65410   0.01267  Uiso   1.00
C70    C     0.94720   0.92370   0.62900   0.01267  Uiso   1.00
C71    C     0.06230   0.97800   0.64410   0.01267  Uiso   1.00
C72    C     0.15990   0.95780   0.67980   0.01267  Uiso   1.00
C73    C     0.14060   0.88910   0.70280   0.01267  Uiso   1.00
C74    C     0.08530   0.05770   0.62580   0.01267  Uiso   1.00
C75    C     0.08580   0.17830   0.58970   0.01267  Uiso   1.00
C76    C     0.06630   0.24830   0.56230   0.01267  Uiso   1.00
C77    C     0.96030   0.23880   0.50820   0.01267  Uiso   1.00
C78    C     0.94690   0.30870   0.48860   0.01267  Uiso   1.00
C79    C     0.13570   0.39470   0.57220   0.01267  Uiso   1.00
C80    C     0.15590   0.32670   0.59360   0.01267  Uiso   1.00
C81    C     0.86100   0.10090   0.92460   0.01267  Uiso   1.00
C82    C     0.83800   0.16700   0.90320   0.01267  Uiso   1.00
C83    C     0.92270   0.24770   0.93730   0.01267  Uiso   1.00
C84    C     0.02900   0.25840   0.99210   0.01267  Uiso   1.00
C85    C     0.04680   0.18870   0.01030   0.01267  Uiso   1.00
C86    C     0.89900   0.31780   0.91100   0.01267  Uiso   1.00
C87    C     0.90220   0.43850   0.87550   0.01267  Uiso   1.00
C88    C     0.92650   0.51700   0.85600   0.01267  Uiso   1.00
C89    C     0.83020   0.54000   0.82250   0.01267  Uiso   1.00
C90    C     0.85340   0.60930   0.79960   0.01267  Uiso   1.00
C91    C     0.05980   0.63670   0.84710   0.01267  Uiso   1.00
C92    C     0.04310   0.56950   0.87120   0.01267  Uiso   1.00
S1     S     0.49530   0.25684   0.75621   0.01267  Uiso   1.00
S2     S     0.02590   0.91509   0.42763   0.01267  Uiso   1.00
S3     S     0.98380   0.59022   0.07338   0.01267  Uiso   1.00
S4     S     0.50470   0.74316   0.24379   0.01267  Uiso   1.00
S5     S     0.97410   0.08491   0.57237   0.01267  Uiso   1.00
S6     S     0.01620   0.40978   0.92662   0.01267  Uiso   1.00
N1     N     0.32830   0.42320   0.42360   0.01267  Uiso   1.00
N2     N     0.15260   0.33460   0.33610   0.01267  Uiso   1.00
N3     N     0.84980   0.17130   0.15950   0.01267  Uiso   1.00
N4     N     0.67300   0.08290   0.07070   0.01267  Uiso   1.00
N5     N     0.48120   0.41150   0.55950   0.01267  Uiso   1.00
N6     N     0.47260   0.15340   0.63940   0.01267  Uiso   1.00
N7     N     0.47890   0.10810   0.68490   0.01267  Uiso   1.00
N8     N     0.51130   0.05430   0.91730   0.01267  Uiso   1.00
N9     N     0.97040   0.15980   0.30660   0.01267  Uiso   1.00
N10    N     0.80850   0.88400   0.34740   0.01267  Uiso   1.00
N11    N     0.80750   0.81590   0.36950   0.01267  Uiso   1.00
N12    N     0.96860   0.61370   0.47930   0.01267  Uiso   1.00
N13    N     0.03310   0.34430   0.19110   0.01267  Uiso   1.00
N14    N     0.20630   0.61580   0.14700   0.01267  Uiso   1.00
N15    N     0.20860   0.68580   0.12600   0.01267  Uiso   1.00
N16    N     0.03570   0.88960   0.02260   0.01267  Uiso   1.00
N17    N     0.67170   0.57680   0.57640   0.01267  Uiso   1.00
N18    N     0.84740   0.66540   0.66390   0.01267  Uiso   1.00
N19    N     0.15020   0.82870   0.84050   0.01267  Uiso   1.00
N20    N     0.32700   0.91710   0.92930   0.01267  Uiso   1.00
N21    N     0.51880   0.58850   0.44050   0.01267  Uiso   1.00
N22    N     0.52740   0.84660   0.36060   0.01267  Uiso   1.00
N23    N     0.52110   0.89190   0.31510   0.01267  Uiso   1.00
N24    N     0.48870   0.94570   0.08270   0.01267  Uiso   1.00
N25    N     0.02960   0.84020   0.69340   0.01267  Uiso   1.00
N26    N     0.19150   0.11600   0.65260   0.01267  Uiso   1.00
N27    N     0.19250   0.18410   0.63050   0.01267  Uiso   1.00
N28    N     0.03140   0.38630   0.52070   0.01267  Uiso   1.00
N29    N     0.96690   0.65570   0.80890   0.01267  Uiso   1.00
N30    N     0.79370   0.38420   0.85300   0.01267  Uiso   1.00
N31    N     0.79140   0.31420   0.87400   0.01267  Uiso   1.00
N32    N     0.96430   0.11040   0.97740   0.01267  Uiso   1.00
O1     O     0.38020   0.55850   0.53650   0.01267  Uiso   1.00
O2     O     0.18510   0.55400   0.51470   0.01267  Uiso   1.00
O3     O     0.95040   0.44120   0.39220   0.01267  Uiso   1.00
O4     O     0.91560   0.32910   0.30020   0.01267  Uiso   1.00
O5     O     0.08430   0.17430   0.19740   0.01267  Uiso   1.00
O6     O     0.04870   0.05960   0.10740   0.01267  Uiso   1.00
O7     O     0.81440   0.94400   0.98730   0.01267  Uiso   1.00
O8     O     0.61820   0.93290   0.97260   0.01267  Uiso   1.00
O9     O     0.61980   0.44150   0.46350   0.01267  Uiso   1.00
O10    O     0.81490   0.44600   0.48530   0.01267  Uiso   1.00
O11    O     0.04960   0.55880   0.60780   0.01267  Uiso   1.00
O12    O     0.08440   0.67090   0.69980   0.01267  Uiso   1.00
O13    O     0.91570   0.82570   0.80260   0.01267  Uiso   1.00
O14    O     0.95130   0.94040   0.89260   0.01267  Uiso   1.00
O15    O     0.18560   0.05600   0.01270   0.01267  Uiso   1.00
O16    O     0.38180   0.06710   0.02740   0.01267  Uiso   1.00
