data_image0
_cell_length_a       42.347
_cell_length_b       8.569
_cell_length_c       14.49
_cell_angle_alpha    90
_cell_angle_beta     108.758
_cell_angle_gamma    90

_symmetry_space_group_name_H-M    "P 1"
_symmetry_int_tables_number       1

loop_
  _symmetry_equiv_pos_as_xyz
  'x, y, z'

loop_
  _atom_site_label
  _atom_site_occupancy
  _atom_site_fract_x
  _atom_site_fract_y
  _atom_site_fract_z
  _atom_site_thermal_displace_type
  _atom_site_B_iso_or_equiv
  _atom_site_type_symbol
  C1       1.0000 0.19526  0.24330  0.59730  Biso   1.000  C
  C2       1.0000 0.16319  0.16140  0.57030  Biso   1.000  C
  H1       1.0000 0.16100  0.09600  0.51480  Biso   1.000  H
  H2       1.0000 0.14540  0.23630  0.55440  Biso   1.000  H
  H3       1.0000 0.16210  0.09830  0.62400  Biso   1.000  H
  C3       1.0000 0.23636  0.39620  0.67600  Biso   1.000  C
  C4       1.0000 0.25673  0.50610  0.75040  Biso   1.000  C
  H4       1.0000 0.24470  0.53500  0.79380  Biso   1.000  H
  H5       1.0000 0.27730  0.45680  0.78680  Biso   1.000  H
  H6       1.0000 0.26130  0.59780  0.71890  Biso   1.000  H
  C5       1.0000 0.16031  0.88910  0.33550  Biso   1.000  C
  C6       1.0000 0.07231  0.53350  0.16900  Biso   1.000  C
  C7       1.0000 0.98876  0.19370  0.96330  Biso   1.000  C
  C8       1.0000 0.89862  0.86380  0.78060  Biso   1.000  C
  C9       1.0000 0.82181  0.72750  0.88940  Biso   1.000  C
  C10      1.0000 0.84035  0.59710  0.63350  Biso   1.000  C
  N1       1.0000 0.20590  0.34450  0.67300  Biso   1.000  N
  N2       1.0000 0.21826  0.23310  0.55500  Biso   1.000  N
  N3       1.0000 0.18768  0.38440  0.73480  Biso   1.000  N
  H7       1.0000 0.19580  0.44940  0.78170  Biso   1.000  H
  H8       1.0000 0.16830  0.34400  0.72590  Biso   1.000  H
  N4       1.0000 0.24460  0.33140  0.60520  Biso   1.000  N
  C11      1.0000 0.17998  0.98290  0.36920  Biso   1.000  C
  C12      1.0000 0.09435  0.61240  0.20850  Biso   1.000  C
  C13      1.0000 0.00692  0.27510  0.01800  Biso   1.000  C
  C14      1.0000 0.92244  0.93620  0.81510  Biso   1.000  C
  C15      1.0000 0.83246  0.75300  0.82760  Biso   1.000  C
  C16      1.0000 0.82929  0.49370  0.58370  Biso   1.000  C
  C17      1.0000 0.76282  0.72820  0.00010  Biso   1.000  C
  Cu1      1.0000 0.21458  0.12283  0.43099  Biso   1.000  Cu
  Cu2      1.0000 0.13044  0.73638  0.27190  Biso   1.000  Cu
  Cu3      1.0000 0.03806  0.40346  0.10173  Biso   1.000  Cu
  Cu4      1.0000 0.95850  0.06148  0.87917  Biso   1.000  Cu
  Cu5      1.0000 0.85669  0.75516  0.73085  Biso   1.000  Cu
  Cu6      1.0000 0.80521  0.66764  0.99146  Biso   1.000  Cu
  N5       1.0000 0.33969  0.61090  0.66450  Biso   1.000  N
  N6       1.0000 0.42769  0.96650  0.83100  Biso   1.000  N
  N7       1.0000 0.60138  0.63620  0.21940  Biso   1.000  N
  N8       1.0000 0.67819  0.77250  0.11060  Biso   1.000  N
  N9       1.0000 0.49308  0.22490  0.98200  Biso   1.000  N
  N10      1.0000 0.82929  0.50630  0.08370  Biso   1.000  N
  C18      1.0000 0.30474  0.74330  0.90270  Biso   1.000  C
  C19      1.0000 0.33681  0.66140  0.92970  Biso   1.000  C
  H9       1.0000 0.33900  0.59600  0.98520  Biso   1.000  H
  H10      1.0000 0.35460  0.73630  0.94560  Biso   1.000  H
  H11      1.0000 0.33790  0.59830  0.87600  Biso   1.000  H
  C20      1.0000 0.26364  0.89620  0.82400  Biso   1.000  C
  C21      1.0000 0.24327  0.00610  0.74960  Biso   1.000  C
  H12      1.0000 0.25530  0.03500  0.70620  Biso   1.000  H
  H13      1.0000 0.22270  0.95680  0.71320  Biso   1.000  H
  H14      1.0000 0.23870  0.09780  0.78110  Biso   1.000  H
  C22      1.0000 0.33969  0.38910  0.16450  Biso   1.000  C
  C23      1.0000 0.42769  0.03350  0.33100  Biso   1.000  C
  C24      1.0000 0.51124  0.69370  0.53670  Biso   1.000  C
  C25      1.0000 0.60138  0.36380  0.71940  Biso   1.000  C
  C26      1.0000 0.67819  0.22750  0.61060  Biso   1.000  C
  C27      1.0000 0.65965  0.09710  0.86650  Biso   1.000  C
  N11      1.0000 0.29410  0.84450  0.82700  Biso   1.000  N
  N12      1.0000 0.28174  0.73310  0.94500  Biso   1.000  N
  N13      1.0000 0.31232  0.88440  0.76520  Biso   1.000  N
  H15      1.0000 0.30420  0.94940  0.71830  Biso   1.000  H
  H16      1.0000 0.33170  0.84400  0.77410  Biso   1.000  H
  N14      1.0000 0.25540  0.83140  0.89480  Biso   1.000  N
  C28      1.0000 0.32002  0.48290  0.13080  Biso   1.000  C
  C29      1.0000 0.40565  0.11240  0.29150  Biso   1.000  C
  C30      1.0000 0.49308  0.77510  0.48200  Biso   1.000  C
  C31      1.0000 0.57756  0.43620  0.68490  Biso   1.000  C
  C32      1.0000 0.66754  0.25300  0.67240  Biso   1.000  C
  C33      1.0000 0.67071  0.99370  0.91630  Biso   1.000  C
  C34      1.0000 0.73718  0.22820  0.49990  Biso   1.000  C
  Cu7      1.0000 0.28542  0.62283  0.06901  Biso   1.000  Cu
  Cu8      1.0000 0.36956  0.23638  0.22810  Biso   1.000  Cu
  Cu9      1.0000 0.46194  0.90346  0.39827  Biso   1.000  Cu
  Cu10     1.0000 0.54150  0.56148  0.62083  Biso   1.000  Cu
  Cu11     1.0000 0.64331  0.25516  0.76915  Biso   1.000  Cu
  Cu12     1.0000 0.69479  0.16764  0.50854  Biso   1.000  Cu
  N15      1.0000 0.16031  0.11090  0.83550  Biso   1.000  N
  N16      1.0000 0.07231  0.46650  0.66900  Biso   1.000  N
  N17      1.0000 0.89862  0.13620  0.28060  Biso   1.000  N
  N18      1.0000 0.82181  0.27250  0.38940  Biso   1.000  N
  N19      1.0000 0.00692  0.72490  0.51800  Biso   1.000  N
  N20      1.0000 0.67071  0.00630  0.41630  Biso   1.000  N
  C35      1.0000 0.30474  0.25670  0.40270  Biso   1.000  C
  C36      1.0000 0.33681  0.33860  0.42970  Biso   1.000  C
  H17      1.0000 0.33900  0.40400  0.48520  Biso   1.000  H
  H18      1.0000 0.35460  0.26370  0.44560  Biso   1.000  H
  H19      1.0000 0.33790  0.40170  0.37600  Biso   1.000  H
  C37      1.0000 0.26364  0.10380  0.32400  Biso   1.000  C
  C38      1.0000 0.24327  0.99390  0.24960  Biso   1.000  C
  H20      1.0000 0.25530  0.96500  0.20620  Biso   1.000  H
  H21      1.0000 0.22270  0.04320  0.21320  Biso   1.000  H
  H22      1.0000 0.23870  0.90220  0.28110  Biso   1.000  H
  C39      1.0000 0.51124  0.30630  0.03670  Biso   1.000  C
  C40      1.0000 0.65965  0.90290  0.36650  Biso   1.000  C
  N21      1.0000 0.29410  0.15550  0.32700  Biso   1.000  N
  N22      1.0000 0.28174  0.26690  0.44500  Biso   1.000  N
  N23      1.0000 0.31232  0.11560  0.26520  Biso   1.000  N
  H23      1.0000 0.30420  0.05060  0.21830  Biso   1.000  H
  H24      1.0000 0.33170  0.15600  0.27410  Biso   1.000  H
  N24      1.0000 0.25540  0.16860  0.39480  Biso   1.000  N
  C41      1.0000 0.32002  0.51710  0.63080  Biso   1.000  C
  C42      1.0000 0.40565  0.88760  0.79150  Biso   1.000  C
  C43      1.0000 0.57756  0.56380  0.18490  Biso   1.000  C
  C44      1.0000 0.66754  0.74700  0.17240  Biso   1.000  C
  C45      1.0000 0.73718  0.77180  0.99990  Biso   1.000  C
  Cu13     1.0000 0.28542  0.37717  0.56901  Biso   1.000  Cu
  Cu14     1.0000 0.36956  0.76362  0.72810  Biso   1.000  Cu
  Cu15     1.0000 0.46194  0.09654  0.89827  Biso   1.000  Cu
  Cu16     1.0000 0.54150  0.43852  0.12083  Biso   1.000  Cu
  Cu17     1.0000 0.64331  0.74484  0.26915  Biso   1.000  Cu
  Cu18     1.0000 0.69479  0.83236  0.00854  Biso   1.000  Cu
  C46      1.0000 0.19526  0.75670  0.09730  Biso   1.000  C
  C47      1.0000 0.16319  0.83860  0.07030  Biso   1.000  C
  H25      1.0000 0.16100  0.90400  0.01480  Biso   1.000  H
  H26      1.0000 0.14540  0.76370  0.05440  Biso   1.000  H
  H27      1.0000 0.16210  0.90170  0.12400  Biso   1.000  H
  C48      1.0000 0.23636  0.60380  0.17600  Biso   1.000  C
  C49      1.0000 0.25673  0.49390  0.25040  Biso   1.000  C
  H28      1.0000 0.24470  0.46500  0.29380  Biso   1.000  H
  H29      1.0000 0.27730  0.54320  0.28680  Biso   1.000  H
  H30      1.0000 0.26130  0.40220  0.21890  Biso   1.000  H
  C50      1.0000 0.98876  0.80630  0.46330  Biso   1.000  C
  C51      1.0000 0.84035  0.40290  0.13350  Biso   1.000  C
  N25      1.0000 0.20590  0.65550  0.17300  Biso   1.000  N
  N26      1.0000 0.21826  0.76690  0.05500  Biso   1.000  N
  N27      1.0000 0.18768  0.61560  0.23480  Biso   1.000  N
  H31      1.0000 0.19580  0.55060  0.28170  Biso   1.000  H
  H32      1.0000 0.16830  0.65600  0.22590  Biso   1.000  H
  N28      1.0000 0.24460  0.66860  0.10520  Biso   1.000  N
  C52      1.0000 0.17998  0.01710  0.86920  Biso   1.000  C
  C53      1.0000 0.09435  0.38760  0.70850  Biso   1.000  C
  C54      1.0000 0.92244  0.06380  0.31510  Biso   1.000  C
  C55      1.0000 0.83246  0.24700  0.32760  Biso   1.000  C
  C56      1.0000 0.76282  0.27180  0.50010  Biso   1.000  C
  Cu19     1.0000 0.21458  0.87717  0.93099  Biso   1.000  Cu
  Cu20     1.0000 0.13044  0.26362  0.77190  Biso   1.000  Cu
  Cu21     1.0000 0.03806  0.59654  0.60173  Biso   1.000  Cu
  Cu22     1.0000 0.95850  0.93852  0.37917  Biso   1.000  Cu
  Cu23     1.0000 0.85669  0.24484  0.23085  Biso   1.000  Cu
  Cu24     1.0000 0.80521  0.33236  0.49146  Biso   1.000  Cu
  C57      1.0000 0.69526  0.74330  0.59730  Biso   1.000  C
  C58      1.0000 0.66319  0.66140  0.57030  Biso   1.000  C
  H33      1.0000 0.66100  0.59600  0.51480  Biso   1.000  H
  H34      1.0000 0.64540  0.73630  0.55440  Biso   1.000  H
  H35      1.0000 0.66210  0.59830  0.62400  Biso   1.000  H
  C59      1.0000 0.73636  0.89620  0.67600  Biso   1.000  C
  C60      1.0000 0.75673  0.00610  0.75040  Biso   1.000  C
  H36      1.0000 0.74470  0.03500  0.79380  Biso   1.000  H
  H37      1.0000 0.77730  0.95680  0.78680  Biso   1.000  H
  H38      1.0000 0.76130  0.09780  0.71890  Biso   1.000  H
  C61      1.0000 0.66031  0.38910  0.33550  Biso   1.000  C
  C62      1.0000 0.57231  0.03350  0.16900  Biso   1.000  C
  C63      1.0000 0.48876  0.69370  0.96330  Biso   1.000  C
  C64      1.0000 0.39862  0.36380  0.78060  Biso   1.000  C
  C65      1.0000 0.32181  0.22750  0.88940  Biso   1.000  C
  C66      1.0000 0.34035  0.09710  0.63350  Biso   1.000  C
  N29      1.0000 0.70590  0.84450  0.67300  Biso   1.000  N
  N30      1.0000 0.71826  0.73310  0.55500  Biso   1.000  N
  N31      1.0000 0.68768  0.88440  0.73480  Biso   1.000  N
  H39      1.0000 0.69580  0.94940  0.78170  Biso   1.000  H
  H40      1.0000 0.66830  0.84400  0.72590  Biso   1.000  H
  N32      1.0000 0.74460  0.83140  0.60520  Biso   1.000  N
  C67      1.0000 0.67998  0.48290  0.36920  Biso   1.000  C
  C68      1.0000 0.59435  0.11240  0.20850  Biso   1.000  C
  C69      1.0000 0.50692  0.77510  0.01800  Biso   1.000  C
  C70      1.0000 0.42244  0.43620  0.81510  Biso   1.000  C
  C71      1.0000 0.33246  0.25300  0.82760  Biso   1.000  C
  C72      1.0000 0.32929  0.99370  0.58370  Biso   1.000  C
  C73      1.0000 0.26282  0.22820  0.00010  Biso   1.000  C
  Cu25     1.0000 0.71458  0.62283  0.43099  Biso   1.000  Cu
  Cu26     1.0000 0.63044  0.23638  0.27190  Biso   1.000  Cu
  Cu27     1.0000 0.53807  0.90346  0.10173  Biso   1.000  Cu
  Cu28     1.0000 0.45850  0.56148  0.87917  Biso   1.000  Cu
  Cu29     1.0000 0.35669  0.25516  0.73085  Biso   1.000  Cu
  Cu30     1.0000 0.30521  0.16764  0.99146  Biso   1.000  Cu
  N33      1.0000 0.83969  0.11090  0.66450  Biso   1.000  N
  N34      1.0000 0.92769  0.46650  0.83100  Biso   1.000  N
  N35      1.0000 0.10138  0.13620  0.21940  Biso   1.000  N
  N36      1.0000 0.17819  0.27250  0.11060  Biso   1.000  N
  N37      1.0000 0.99308  0.72490  0.98200  Biso   1.000  N
  N38      1.0000 0.32929  0.00630  0.08370  Biso   1.000  N
  C74      1.0000 0.80474  0.24330  0.90270  Biso   1.000  C
  C75      1.0000 0.83681  0.16140  0.92970  Biso   1.000  C
  H41      1.0000 0.83900  0.09600  0.98520  Biso   1.000  H
  H42      1.0000 0.85460  0.23630  0.94560  Biso   1.000  H
  H43      1.0000 0.83790  0.09830  0.87600  Biso   1.000  H
  C76      1.0000 0.76364  0.39620  0.82400  Biso   1.000  C
  C77      1.0000 0.74327  0.50610  0.74960  Biso   1.000  C
  H44      1.0000 0.75530  0.53500  0.70620  Biso   1.000  H
  H45      1.0000 0.72270  0.45680  0.71320  Biso   1.000  H
  H46      1.0000 0.73870  0.59780  0.78110  Biso   1.000  H
  C78      1.0000 0.83969  0.88910  0.16450  Biso   1.000  C
  C79      1.0000 0.92769  0.53350  0.33100  Biso   1.000  C
  C80      1.0000 0.01124  0.19370  0.53670  Biso   1.000  C
  C81      1.0000 0.10138  0.86380  0.71940  Biso   1.000  C
  C82      1.0000 0.17819  0.72750  0.61060  Biso   1.000  C
  C83      1.0000 0.15965  0.59710  0.86650  Biso   1.000  C
  N39      1.0000 0.79410  0.34450  0.82700  Biso   1.000  N
  N40      1.0000 0.78174  0.23310  0.94500  Biso   1.000  N
  N41      1.0000 0.81232  0.38440  0.76520  Biso   1.000  N
  H47      1.0000 0.80420  0.44940  0.71830  Biso   1.000  H
  H48      1.0000 0.83170  0.34400  0.77410  Biso   1.000  H
  N42      1.0000 0.75540  0.33140  0.89480  Biso   1.000  N
  C84      1.0000 0.82002  0.98290  0.13080  Biso   1.000  C
  C85      1.0000 0.90565  0.61240  0.29150  Biso   1.000  C
  C86      1.0000 0.99308  0.27510  0.48200  Biso   1.000  C
  C87      1.0000 0.07756  0.93620  0.68490  Biso   1.000  C
  C88      1.0000 0.16754  0.75300  0.67240  Biso   1.000  C
  C89      1.0000 0.17071  0.49370  0.91630  Biso   1.000  C
  C90      1.0000 0.23718  0.72820  0.49990  Biso   1.000  C
  Cu31     1.0000 0.78542  0.12283  0.06901  Biso   1.000  Cu
  Cu32     1.0000 0.86956  0.73638  0.22810  Biso   1.000  Cu
  Cu33     1.0000 0.96194  0.40346  0.39827  Biso   1.000  Cu
  Cu34     1.0000 0.04150  0.06148  0.62083  Biso   1.000  Cu
  Cu35     1.0000 0.14331  0.75516  0.76915  Biso   1.000  Cu
  Cu36     1.0000 0.19479  0.66764  0.50854  Biso   1.000  Cu
  N43      1.0000 0.66031  0.61090  0.83550  Biso   1.000  N
  N44      1.0000 0.57231  0.96650  0.66900  Biso   1.000  N
  N45      1.0000 0.39862  0.63620  0.28060  Biso   1.000  N
  N46      1.0000 0.32181  0.77250  0.38940  Biso   1.000  N
  N47      1.0000 0.50692  0.22490  0.51800  Biso   1.000  N
  N48      1.0000 0.17071  0.50630  0.41630  Biso   1.000  N
  C91      1.0000 0.80474  0.75670  0.40270  Biso   1.000  C
  C92      1.0000 0.83681  0.83860  0.42970  Biso   1.000  C
  H49      1.0000 0.83900  0.90400  0.48520  Biso   1.000  H
  H50      1.0000 0.85460  0.76370  0.44560  Biso   1.000  H
  H51      1.0000 0.83790  0.90170  0.37600  Biso   1.000  H
  C93      1.0000 0.76364  0.60380  0.32400  Biso   1.000  C
  C94      1.0000 0.74327  0.49390  0.24960  Biso   1.000  C
  H52      1.0000 0.75530  0.46500  0.20620  Biso   1.000  H
  H53      1.0000 0.72270  0.54320  0.21320  Biso   1.000  H
  H54      1.0000 0.73870  0.40220  0.28110  Biso   1.000  H
  C95      1.0000 0.01124  0.80630  0.03670  Biso   1.000  C
  C96      1.0000 0.15965  0.40290  0.36650  Biso   1.000  C
  N49      1.0000 0.79410  0.65550  0.32700  Biso   1.000  N
  N50      1.0000 0.78174  0.76690  0.44500  Biso   1.000  N
  N51      1.0000 0.81232  0.61560  0.26520  Biso   1.000  N
  H55      1.0000 0.80420  0.55060  0.21830  Biso   1.000  H
  H56      1.0000 0.83170  0.65600  0.27410  Biso   1.000  H
  N52      1.0000 0.75540  0.66860  0.39480  Biso   1.000  N
  C97      1.0000 0.82002  0.01710  0.63080  Biso   1.000  C
  C98      1.0000 0.90565  0.38760  0.79150  Biso   1.000  C
  C99      1.0000 0.07756  0.06380  0.18490  Biso   1.000  C
  C100     1.0000 0.16754  0.24700  0.17240  Biso   1.000  C
  C101     1.0000 0.23718  0.27180  0.99990  Biso   1.000  C
  Cu37     1.0000 0.78542  0.87717  0.56901  Biso   1.000  Cu
  Cu38     1.0000 0.86956  0.26362  0.72810  Biso   1.000  Cu
  Cu39     1.0000 0.96194  0.59654  0.89827  Biso   1.000  Cu
  Cu40     1.0000 0.04150  0.93852  0.12083  Biso   1.000  Cu
  Cu41     1.0000 0.14331  0.24484  0.26915  Biso   1.000  Cu
  Cu42     1.0000 0.19479  0.33236  0.00854  Biso   1.000  Cu
  C102     1.0000 0.69526  0.25670  0.09730  Biso   1.000  C
  C103     1.0000 0.66319  0.33860  0.07030  Biso   1.000  C
  H57      1.0000 0.66100  0.40400  0.01480  Biso   1.000  H
  H58      1.0000 0.64540  0.26370  0.05440  Biso   1.000  H
  H59      1.0000 0.66210  0.40170  0.12400  Biso   1.000  H
  C104     1.0000 0.73636  0.10380  0.17600  Biso   1.000  C
  C105     1.0000 0.75673  0.99390  0.25040  Biso   1.000  C
  H60      1.0000 0.74470  0.96500  0.29380  Biso   1.000  H
  H61      1.0000 0.77730  0.04320  0.28680  Biso   1.000  H
  H62      1.0000 0.76130  0.90220  0.21890  Biso   1.000  H
  C106     1.0000 0.48876  0.30630  0.46330  Biso   1.000  C
  C107     1.0000 0.34035  0.90290  0.13350  Biso   1.000  C
  N53      1.0000 0.70590  0.15550  0.17300  Biso   1.000  N
  N54      1.0000 0.71826  0.26690  0.05500  Biso   1.000  N
  N55      1.0000 0.68768  0.11560  0.23480  Biso   1.000  N
  H63      1.0000 0.69580  0.05060  0.28170  Biso   1.000  H
  H64      1.0000 0.66830  0.15600  0.22590  Biso   1.000  H
  N56      1.0000 0.74460  0.16860  0.10520  Biso   1.000  N
  C108     1.0000 0.67998  0.51710  0.86920  Biso   1.000  C
  C109     1.0000 0.59435  0.88760  0.70850  Biso   1.000  C
  C110     1.0000 0.42244  0.56380  0.31510  Biso   1.000  C
  C111     1.0000 0.33246  0.74700  0.32760  Biso   1.000  C
  C112     1.0000 0.26282  0.77180  0.50010  Biso   1.000  C
  Cu43     1.0000 0.71458  0.37717  0.93099  Biso   1.000  Cu
  Cu44     1.0000 0.63044  0.76362  0.77190  Biso   1.000  Cu
  Cu45     1.0000 0.53807  0.09654  0.60173  Biso   1.000  Cu
  Cu46     1.0000 0.45850  0.43852  0.37917  Biso   1.000  Cu
  Cu47     1.0000 0.35669  0.74484  0.23085  Biso   1.000  Cu
  Cu48     1.0000 0.30521  0.83236  0.49146  Biso   1.000  Cu
