data_image0
_cell_length_a       8.9884
_cell_length_b       10.326
_cell_length_c       11.917
_cell_angle_alpha    66.98
_cell_angle_beta     89.01
_cell_angle_gamma    78.98

_symmetry_space_group_name_H-M    "P 1"
_symmetry_int_tables_number       1

loop_
  _symmetry_equiv_pos_as_xyz
  'x, y, z'

loop_
  _atom_site_label
  _atom_site_occupancy
  _atom_site_fract_x
  _atom_site_fract_y
  _atom_site_fract_z
  _atom_site_thermal_displace_type
  _atom_site_B_iso_or_equiv
  _atom_site_type_symbol
  Zn1      1.0000 0.88980  0.00457  0.76225  Biso   1.000  Zn
  Zn2      1.0000 0.41068  0.02832  0.64862  Biso   1.000  Zn
  Zn3      1.0000 0.86789  0.63274  0.07222  Biso   1.000  Zn
  P1       1.0000 0.61545  0.85492  0.88558  Biso   1.000  P
  H1       1.0000 0.51700  0.89500  0.95200  Biso   1.000  H
  P2       1.0000 0.67644  0.14251  0.51047  Biso   1.000  P
  H2       1.0000 0.68100  0.26000  0.40400  Biso   1.000  H
  P3       1.0000 0.15528  0.14548  0.80171  Biso   1.000  P
  H3       1.0000 0.23300  0.04400  0.90100  Biso   1.000  H
  P4       1.0000 0.11062  0.69585  0.86768  Biso   1.000  P
  H4       1.0000 0.25200  0.72400  0.87400  Biso   1.000  H
  O1       1.0000 0.71890  0.96120  0.85820  Biso   1.000  O
  O2       1.0000 0.81790  0.12050  0.58990  Biso   1.000  O
  O3       1.0000 0.99340  0.12450  0.80620  Biso   1.000  O
  O4       1.0000 0.01760  0.82760  0.76680  Biso   1.000  O
  O5       1.0000 0.52810  0.86370  0.77460  Biso   1.000  O
  O6       1.0000 0.52830  0.17750  0.56590  Biso   1.000  O
  O7       1.0000 0.68280  0.01540  0.47580  Biso   1.000  O
  O8       1.0000 0.23100  0.12890  0.69210  Biso   1.000  O
  O9       1.0000 0.69230  0.70090  0.95770  Biso   1.000  O
  O10      1.0000 0.12550  0.57010  0.83170  Biso   1.000  O
  O11      1.0000 0.16460  0.29040  0.80250  Biso   1.000  O
  O12      1.0000 0.05730  0.66810  0.99500  Biso   1.000  O
  Zn4      1.0000 0.11020  0.99543  0.23775  Biso   1.000  Zn
  Zn5      1.0000 0.58932  0.97168  0.35138  Biso   1.000  Zn
  Zn6      1.0000 0.13211  0.36726  0.92778  Biso   1.000  Zn
  P5       1.0000 0.38455  0.14508  0.11442  Biso   1.000  P
  H5       1.0000 0.48300  0.10500  0.04800  Biso   1.000  H
  P6       1.0000 0.32356  0.85749  0.48953  Biso   1.000  P
  H6       1.0000 0.31900  0.74000  0.59600  Biso   1.000  H
  P7       1.0000 0.84472  0.85452  0.19829  Biso   1.000  P
  H7       1.0000 0.76700  0.95600  0.09900  Biso   1.000  H
  P8       1.0000 0.88938  0.30415  0.13232  Biso   1.000  P
  H8       1.0000 0.74800  0.27600  0.12600  Biso   1.000  H
  O13      1.0000 0.28110  0.03880  0.14180  Biso   1.000  O
  O14      1.0000 0.18210  0.87950  0.41010  Biso   1.000  O
  O15      1.0000 0.00660  0.87550  0.19380  Biso   1.000  O
  O16      1.0000 0.98240  0.17240  0.23320  Biso   1.000  O
  O17      1.0000 0.47190  0.13630  0.22540  Biso   1.000  O
  O18      1.0000 0.47170  0.82250  0.43410  Biso   1.000  O
  O19      1.0000 0.31720  0.98460  0.52420  Biso   1.000  O
  O20      1.0000 0.76900  0.87110  0.30790  Biso   1.000  O
  O21      1.0000 0.30770  0.29910  0.04230  Biso   1.000  O
  O22      1.0000 0.87450  0.42990  0.16830  Biso   1.000  O
  O23      1.0000 0.83540  0.70960  0.19750  Biso   1.000  O
  O24      1.0000 0.94270  0.33190  0.00500  Biso   1.000  O
