data_image0
_cell_length_a       8.132
_cell_length_b       13.224
_cell_length_c       7.537
_cell_angle_alpha    90
_cell_angle_beta     115.31
_cell_angle_gamma    90

_symmetry_space_group_name_H-M    "P 1"
_symmetry_int_tables_number       1

loop_
  _symmetry_equiv_pos_as_xyz
  'x, y, z'

loop_
  _atom_site_label
  _atom_site_occupancy
  _atom_site_fract_x
  _atom_site_fract_y
  _atom_site_fract_z
  _atom_site_thermal_displace_type
  _atom_site_B_iso_or_equiv
  _atom_site_type_symbol
  Co1      1.0000 0.50000  0.63933  0.50000  Biso   1.000  Co
  O1       1.0000 0.47120  0.49180  0.38880  Biso   1.000  O
  O2       1.0000 0.33270  0.37910  0.15350  Biso   1.000  O
  O3       1.0000 0.27790  0.67690  0.24190  Biso   1.000  O
  O4       1.0000 0.98760  0.70780  0.05780  Biso   1.000  O
  C1       1.0000 0.33110  0.44770  0.27060  Biso   1.000  C
  C2       1.0000 0.14820  0.46670  0.26630  Biso   1.000  C
  C3       1.0000 0.05470  0.55250  0.22160  Biso   1.000  C
  C4       1.0000 0.11460  0.65230  0.17200  Biso   1.000  C
  Co2      1.0000 0.00000  0.13933  0.50000  Biso   1.000  Co
  O5       1.0000 0.97120  0.99180  0.38880  Biso   1.000  O
  O6       1.0000 0.83270  0.87910  0.15350  Biso   1.000  O
  O7       1.0000 0.77790  0.17690  0.24190  Biso   1.000  O
  O8       1.0000 0.48760  0.20780  0.05780  Biso   1.000  O
  C5       1.0000 0.83110  0.94770  0.27060  Biso   1.000  C
  C6       1.0000 0.64820  0.96670  0.26630  Biso   1.000  C
  C7       1.0000 0.55470  0.05250  0.22160  Biso   1.000  C
  C8       1.0000 0.61460  0.15230  0.17200  Biso   1.000  C
  Co3      1.0000 0.50000  0.36067  0.00000  Biso   1.000  Co
  O9       1.0000 0.47120  0.50820  0.88880  Biso   1.000  O
  O10      1.0000 0.33270  0.62090  0.65350  Biso   1.000  O
  O11      1.0000 0.27790  0.32310  0.74190  Biso   1.000  O
  O12      1.0000 0.98760  0.29220  0.55780  Biso   1.000  O
  C9       1.0000 0.33110  0.55230  0.77060  Biso   1.000  C
  C10      1.0000 0.14820  0.53330  0.76630  Biso   1.000  C
  C11      1.0000 0.05470  0.44750  0.72160  Biso   1.000  C
  C12      1.0000 0.11460  0.34770  0.67200  Biso   1.000  C
  Co4      1.0000 0.00000  0.86067  0.00000  Biso   1.000  Co
  O13      1.0000 0.97120  0.00820  0.88880  Biso   1.000  O
  O14      1.0000 0.83270  0.12090  0.65350  Biso   1.000  O
  O15      1.0000 0.77790  0.82310  0.74190  Biso   1.000  O
  O16      1.0000 0.48760  0.79220  0.55780  Biso   1.000  O
  C13      1.0000 0.83110  0.05230  0.77060  Biso   1.000  C
  C14      1.0000 0.64820  0.03330  0.76630  Biso   1.000  C
  C15      1.0000 0.55470  0.94750  0.72160  Biso   1.000  C
  C16      1.0000 0.61460  0.84770  0.67200  Biso   1.000  C
