data_RENWEM01_clean
_audit_creation_date              2014-07-02
_audit_creation_method            'Materials Studio'
_symmetry_space_group_name_H-M    'P1'
_symmetry_Int_Tables_number       1
_symmetry_cell_setting            triclinic
loop_
_symmetry_equiv_pos_as_xyz
  x,y,z
_cell_length_a                    7.4970
_cell_length_b                    7.7376
_cell_length_c                    7.7376
_cell_angle_alpha                 116.7200
_cell_angle_beta                  102.8920
_cell_angle_gamma                 102.8920
loop_
_atom_site_label
_atom_site_type_symbol
_atom_site_fract_x
_atom_site_fract_y
_atom_site_fract_z
_atom_site_U_iso_or_equiv
_atom_site_adp_type
_atom_site_occupancy
Co1    Co    0.49958   0.85837   0.13712   0.01267  Uiso   1.00
Co2    Co    0.99958   0.13712   0.85837   0.01267  Uiso   1.00
H1     H     0.27680   0.68200   0.47520   0.01267  Uiso   1.00
H2     H     0.21910   0.38730   0.49490   0.01267  Uiso   1.00
H3     H     0.77680   0.47520   0.68200   0.01267  Uiso   1.00
H4     H     0.71910   0.49490   0.38730   0.01267  Uiso   1.00
C1     C     0.26930   0.88061   0.77659   0.01267  Uiso   1.00
C2     C     0.26480   0.67879   0.61281   0.01267  Uiso   1.00
C3     C     0.22060   0.49905   0.60515   0.01267  Uiso   1.00
C4     C     0.17120   0.46114   0.76386   0.01267  Uiso   1.00
C5     C     0.76930   0.77659   0.88061   0.01267  Uiso   1.00
C6     C     0.76480   0.61281   0.67879   0.01267  Uiso   1.00
C7     C     0.72060   0.60515   0.49905   0.01267  Uiso   1.00
C8     C     0.67120   0.76386   0.46114   0.01267  Uiso   1.00
O1     O     0.38810   0.97648   0.96072   0.01267  Uiso   1.00
O2     O     0.15270   0.95060   0.70920   0.01267  Uiso   1.00
O3     O     0.24070   0.59957   0.95283   0.01267  Uiso   1.00
O4     O     0.05780   0.27727   0.69273   0.01267  Uiso   1.00
O5     O     0.88810   0.96072   0.97648   0.01267  Uiso   1.00
O6     O     0.65270   0.70920   0.95060   0.01267  Uiso   1.00
O7     O     0.74070   0.95283   0.59957   0.01267  Uiso   1.00
O8     O     0.55780   0.69273   0.27727   0.01267  Uiso   1.00
