data_RESSAK_clean
_audit_creation_date              2014-07-02
_audit_creation_method            'Materials Studio'
_symmetry_space_group_name_H-M    'P1'
_symmetry_Int_Tables_number       1
_symmetry_cell_setting            triclinic
loop_
_symmetry_equiv_pos_as_xyz
  x,y,z
_cell_length_a                    8.2530
_cell_length_b                    11.2590
_cell_length_c                    13.2214
_cell_angle_alpha                 107.2100
_cell_angle_beta                  108.1860
_cell_angle_gamma                 90.0000
loop_
_atom_site_label
_atom_site_type_symbol
_atom_site_fract_x
_atom_site_fract_y
_atom_site_fract_z
_atom_site_U_iso_or_equiv
_atom_site_adp_type
_atom_site_occupancy
Ni1    Ni    0.23603   0.92994   0.37244   0.01267  Uiso   1.00
Ni2    Ni    0.86359   0.07006   0.62756   0.01267  Uiso   1.00
H1     H     0.73760   0.20820   0.07060   0.01267  Uiso   1.00
H2     H     0.66280   0.29310   0.22600   0.01267  Uiso   1.00
H3     H     0.71190   0.19810   0.36380   0.01267  Uiso   1.00
H4     H     0.22740   0.19320   0.52880   0.01267  Uiso   1.00
H5     H     0.22030   0.39430   0.52720   0.01267  Uiso   1.00
H6     H     0.26880   0.28220   0.22080   0.01267  Uiso   1.00
H7     H     0.28070   0.08240   0.23220   0.01267  Uiso   1.00
H8     H     0.35750   0.68750   0.26540   0.01267  Uiso   1.00
H9     H     0.37460   0.48220   0.27040   0.01267  Uiso   1.00
H10    H     0.08010   0.54900   0.46440   0.01267  Uiso   1.00
H11    H     0.07340   0.75030   0.45540   0.01267  Uiso   1.00
H12    H     0.66700   0.79180   0.92940   0.01267  Uiso   1.00
H13    H     0.43680   0.70690   0.77400   0.01267  Uiso   1.00
H14    H     0.34810   0.80190   0.63620   0.01267  Uiso   1.00
H15    H     0.69860   0.80680   0.47120   0.01267  Uiso   1.00
H16    H     0.69310   0.60570   0.47280   0.01267  Uiso   1.00
H17    H     0.04800   0.71780   0.77920   0.01267  Uiso   1.00
H18    H     0.04850   0.91760   0.76780   0.01267  Uiso   1.00
H19    H     0.09210   0.31250   0.73460   0.01267  Uiso   1.00
H20    H     0.10420   0.51780   0.72960   0.01267  Uiso   1.00
H21    H     0.61570   0.45100   0.53560   0.01267  Uiso   1.00
H22    H     0.61800   0.24970   0.54460   0.01267  Uiso   1.00
C1     C     0.83597   0.06040   0.29654   0.01267  Uiso   1.00
C2     C     0.87633   0.00100   0.19826   0.01267  Uiso   1.00
C3     C     0.84250   0.05990   0.11460   0.01267  Uiso   1.00
C4     C     0.76100   0.16990   0.12640   0.01267  Uiso   1.00
C5     C     0.71660   0.21990   0.21860   0.01267  Uiso   1.00
C6     C     0.74930   0.16440   0.30280   0.01267  Uiso   1.00
C7     C     0.88339   0.00780   0.39338   0.01267  Uiso   1.00
C8     C     0.94840   0.87500   0.17680   0.01267  Uiso   1.00
C9     C     0.23680   0.21180   0.46660   0.01267  Uiso   1.00
C10    C     0.23020   0.33210   0.46560   0.01267  Uiso   1.00
C11    C     0.23801   0.36250   0.37242   0.01267  Uiso   1.00
C12    C     0.25970   0.26590   0.28400   0.01267  Uiso   1.00
C13    C     0.26750   0.14630   0.29160   0.01267  Uiso   1.00
C14    C     0.30190   0.66020   0.30700   0.01267  Uiso   1.00
C15    C     0.31100   0.53500   0.30800   0.01267  Uiso   1.00
C16    C     0.22170   0.49270   0.36700   0.01267  Uiso   1.00
C17    C     0.13760   0.57390   0.42260   0.01267  Uiso   1.00
C18    C     0.13560   0.69590   0.41780   0.01267  Uiso   1.00
C19    C     0.53943   0.93960   0.70346   0.01267  Uiso   1.00
C20    C     0.67807   0.99900   0.80174   0.01267  Uiso   1.00
C21    C     0.72790   0.94010   0.88540   0.01267  Uiso   1.00
C22    C     0.63460   0.83010   0.87360   0.01267  Uiso   1.00
C23    C     0.49800   0.78010   0.78140   0.01267  Uiso   1.00
C24    C     0.44650   0.83560   0.69720   0.01267  Uiso   1.00
C25    C     0.49001   0.99220   0.60662   0.01267  Uiso   1.00
C26    C     0.77160   0.12500   0.82320   0.01267  Uiso   1.00
C27    C     0.77020   0.78820   0.53340   0.01267  Uiso   1.00
C28    C     0.76460   0.66790   0.53440   0.01267  Uiso   1.00
C29    C     0.86559   0.63750   0.62758   0.01267  Uiso   1.00
C30    C     0.97570   0.73410   0.71600   0.01267  Uiso   1.00
C31    C     0.97590   0.85370   0.70840   0.01267  Uiso   1.00
C32    C     0.99490   0.33980   0.69300   0.01267  Uiso   1.00
C33    C     0.00300   0.46500   0.69200   0.01267  Uiso   1.00
C34    C     0.85470   0.50730   0.63300   0.01267  Uiso   1.00
C35    C     0.71500   0.42610   0.57740   0.01267  Uiso   1.00
C36    C     0.71780   0.30410   0.58220   0.01267  Uiso   1.00
S1     S     0.91990   1.00000   1.00000   0.01267  Uiso   1.00
N1     N     0.25662   0.11860   0.38144   0.01267  Uiso   1.00
N2     N     0.22028   0.73840   0.36116   0.01267  Uiso   1.00
N3     N     0.87518   0.88140   0.61856   0.01267  Uiso   1.00
N4     N     0.85912   0.26160   0.63884   0.01267  Uiso   1.00
O1     O     0.00779   0.94640   0.40838   0.01267  Uiso   1.00
O2     O     0.79807   0.03770   0.45754   0.01267  Uiso   1.00
O3     O     0.10659   0.87150   0.20178   0.01267  Uiso   1.00
O4     O     0.83897   0.78270   0.13134   0.01267  Uiso   1.00
O5     O     0.59941   0.05360   0.59162   0.01267  Uiso   1.00
O6     O     0.34053   0.96230   0.54246   0.01267  Uiso   1.00
O7     O     0.90481   0.12850   0.79822   0.01267  Uiso   1.00
O8     O     0.70763   0.21730   0.86866   0.01267  Uiso   1.00
