data_RESWUI01_clean
_audit_creation_date              2014-07-02
_audit_creation_method            'Materials Studio'
_symmetry_space_group_name_H-M    'P1'
_symmetry_Int_Tables_number       1
_symmetry_cell_setting            triclinic
loop_
_symmetry_equiv_pos_as_xyz
  x,y,z
_cell_length_a                    8.5139
_cell_length_b                    10.2165
_cell_length_c                    11.0721
_cell_angle_alpha                 64.2080
_cell_angle_beta                  71.5630
_cell_angle_gamma                 80.7520
loop_
_atom_site_label
_atom_site_type_symbol
_atom_site_fract_x
_atom_site_fract_y
_atom_site_fract_z
_atom_site_U_iso_or_equiv
_atom_site_adp_type
_atom_site_occupancy
Er1    Er    0.86651   0.06379   0.83768   0.01267  Uiso   1.00
Er2    Er    0.13349   0.93621   0.16231   0.01267  Uiso   1.00
H1     H     0.99400   0.47350   0.22150   0.01267  Uiso   1.00
H2     H     0.05160   0.72640   0.81040   0.01267  Uiso   1.00
H3     H     0.46170   0.14960   0.61740   0.01267  Uiso   1.00
H4     H     0.27410   0.88430   0.51490   0.01267  Uiso   1.00
H5     H     0.77910   0.45200   0.41520   0.01267  Uiso   1.00
H6     H     0.36070   0.36580   0.73350   0.01267  Uiso   1.00
H7     H     0.00600   0.52650   0.77850   0.01267  Uiso   1.00
H8     H     0.94840   0.27360   0.18960   0.01267  Uiso   1.00
H9     H     0.53830   0.85040   0.38260   0.01267  Uiso   1.00
H10    H     0.72590   0.11570   0.48510   0.01267  Uiso   1.00
H11    H     0.22090   0.54800   0.58480   0.01267  Uiso   1.00
H12    H     0.63930   0.63420   0.26650   0.01267  Uiso   1.00
C1     C     0.05600   0.74640   0.04280   0.01267  Uiso   1.00
C2     C     0.02760   0.61920   0.01950   0.01267  Uiso   1.00
C3     C     0.99650   0.48430   0.13120   0.01267  Uiso   1.00
C4     C     0.03070   0.63440   0.88750   0.01267  Uiso   1.00
C5     C     0.17360   0.04650   0.66140   0.01267  Uiso   1.00
C6     C     0.34270   0.02110   0.57780   0.01267  Uiso   1.00
C7     C     0.47760   0.08890   0.56930   0.01267  Uiso   1.00
C8     C     0.36560   0.93140   0.50870   0.01267  Uiso   1.00
C9     C     0.67730   0.27250   0.67870   0.01267  Uiso   1.00
C10    C     0.58450   0.39190   0.58730   0.01267  Uiso   1.00
C11    C     0.66480   0.47150   0.45010   0.01267  Uiso   1.00
C12    C     0.41780   0.42010   0.63870   0.01267  Uiso   1.00
C13    C     0.94400   0.25360   0.95720   0.01267  Uiso   1.00
C14    C     0.97240   0.38080   0.98050   0.01267  Uiso   1.00
C15    C     0.00350   0.51570   0.86880   0.01267  Uiso   1.00
C16    C     0.96930   0.36560   0.11250   0.01267  Uiso   1.00
C17    C     0.82640   0.95350   0.33860   0.01267  Uiso   1.00
C18    C     0.65730   0.97890   0.42220   0.01267  Uiso   1.00
C19    C     0.52240   0.91110   0.43070   0.01267  Uiso   1.00
C20    C     0.63440   0.06860   0.49130   0.01267  Uiso   1.00
C21    C     0.32270   0.72750   0.32130   0.01267  Uiso   1.00
C22    C     0.41550   0.60810   0.41270   0.01267  Uiso   1.00
C23    C     0.33520   0.52850   0.54990   0.01267  Uiso   1.00
C24    C     0.58220   0.57990   0.36130   0.01267  Uiso   1.00
O1     O     0.01590   0.87280   0.96700   0.01267  Uiso   1.00
O2     O     0.12180   0.72350   0.13650   0.01267  Uiso   1.00
O3     O     0.05150   0.98920   0.66340   0.01267  Uiso   1.00
O4     O     0.15500   0.12240   0.73020   0.01267  Uiso   1.00
O5     O     0.82660   0.24620   0.62680   0.01267  Uiso   1.00
O6     O     0.60500   0.19650   0.80590   0.01267  Uiso   1.00
O7     O     0.98410   0.12720   0.03300   0.01267  Uiso   1.00
O8     O     0.87820   0.27650   0.86350   0.01267  Uiso   1.00
O9     O     0.94850   0.01080   0.33660   0.01267  Uiso   1.00
O10    O     0.84500   0.87760   0.26980   0.01267  Uiso   1.00
O11    O     0.17340   0.75380   0.37320   0.01267  Uiso   1.00
O12    O     0.39500   0.80350   0.19410   0.01267  Uiso   1.00
