data_RESWUI_clean
_audit_creation_date              2014-07-02
_audit_creation_method            'Materials Studio'
_symmetry_space_group_name_H-M    'P1'
_symmetry_Int_Tables_number       1
_symmetry_cell_setting            triclinic
loop_
_symmetry_equiv_pos_as_xyz
  x,y,z
_cell_length_a                    8.5247
_cell_length_b                    10.2004
_cell_length_c                    10.8898
_cell_angle_alpha                 63.7220
_cell_angle_beta                  71.2810
_cell_angle_gamma                 81.1480
loop_
_atom_site_label
_atom_site_type_symbol
_atom_site_fract_x
_atom_site_fract_y
_atom_site_fract_z
_atom_site_U_iso_or_equiv
_atom_site_adp_type
_atom_site_occupancy
Er1    Er    0.13362   0.93626   0.66037   0.01267  Uiso   1.00
Er2    Er    0.86638   0.06374   0.33963   0.01267  Uiso   1.00
H1     H     0.72100   0.11400   0.98400   0.01267  Uiso   1.00
H2     H     0.53800   0.84200   0.89900   0.01267  Uiso   1.00
H3     H     0.21300   0.54500   0.09000   0.01267  Uiso   1.00
H4     H     0.62600   0.63000   0.76100   0.01267  Uiso   1.00
H5     H     0.98500   0.53580   0.26930   0.01267  Uiso   1.00
H6     H     0.94900   0.26340   0.69640   0.01267  Uiso   1.00
H7     H     0.27900   0.88600   0.01600   0.01267  Uiso   1.00
H8     H     0.46200   0.15800   0.10100   0.01267  Uiso   1.00
H9     H     0.78700   0.45500   0.91000   0.01267  Uiso   1.00
H10    H     0.37400   0.37000   0.23900   0.01267  Uiso   1.00
H11    H     0.01500   0.46420   0.73070   0.01267  Uiso   1.00
H12    H     0.05100   0.73660   0.30360   0.01267  Uiso   1.00
C1     C     0.82742   0.95146   0.84085   0.01267  Uiso   1.00
C2     C     0.65771   0.97738   0.92300   0.01267  Uiso   1.00
C3     C     0.63460   0.07196   0.98819   0.01267  Uiso   1.00
C4     C     0.52389   0.90663   0.93412   0.01267  Uiso   1.00
C5     C     0.32183   0.72980   0.82143   0.01267  Uiso   1.00
C6     C     0.41483   0.60932   0.91195   0.01267  Uiso   1.00
C7     C     0.33444   0.52771   0.05568   0.01267  Uiso   1.00
C8     C     0.58053   0.58079   0.85681   0.01267  Uiso   1.00
C9     C     0.94274   0.25531   0.45515   0.01267  Uiso   1.00
C10    C     0.97128   0.38154   0.47957   0.01267  Uiso   1.00
C11    C     0.99635   0.52018   0.36615   0.01267  Uiso   1.00
C12    C     0.97397   0.36176   0.61362   0.01267  Uiso   1.00
C13    C     0.17258   0.04854   0.15915   0.01267  Uiso   1.00
C14    C     0.34229   0.02262   0.07700   0.01267  Uiso   1.00
C15    C     0.36540   0.92804   0.01181   0.01267  Uiso   1.00
C16    C     0.47611   0.09337   0.06588   0.01267  Uiso   1.00
C17    C     0.67817   0.27020   0.17857   0.01267  Uiso   1.00
C18    C     0.58517   0.39068   0.08805   0.01267  Uiso   1.00
C19    C     0.66556   0.47229   0.94432   0.01267  Uiso   1.00
C20    C     0.41947   0.41921   0.14319   0.01267  Uiso   1.00
C21    C     0.05726   0.74469   0.54485   0.01267  Uiso   1.00
C22    C     0.02872   0.61846   0.52043   0.01267  Uiso   1.00
C23    C     0.00365   0.47982   0.63385   0.01267  Uiso   1.00
C24    C     0.02603   0.63824   0.38638   0.01267  Uiso   1.00
O1     O     0.94909   0.00936   0.83772   0.01267  Uiso   1.00
O2     O     0.84675   0.87268   0.77319   0.01267  Uiso   1.00
O3     O     0.17228   0.75392   0.87673   0.01267  Uiso   1.00
O4     O     0.39372   0.80688   0.69093   0.01267  Uiso   1.00
O5     O     0.98345   0.12716   0.52869   0.01267  Uiso   1.00
O6     O     0.87473   0.28180   0.35999   0.01267  Uiso   1.00
O7     O     0.05091   0.99064   0.16228   0.01267  Uiso   1.00
O8     O     0.15325   0.12732   0.22681   0.01267  Uiso   1.00
O9     O     0.82772   0.24608   0.12327   0.01267  Uiso   1.00
O10    O     0.60628   0.19312   0.30907   0.01267  Uiso   1.00
O11    O     0.01655   0.87284   0.47131   0.01267  Uiso   1.00
O12    O     0.12527   0.71820   0.64001   0.01267  Uiso   1.00
