data_image0
_cell_length_a       20.0843
_cell_length_b       20.0843
_cell_length_c       20.2408
_cell_angle_alpha    90
_cell_angle_beta     90
_cell_angle_gamma    120

_symmetry_space_group_name_H-M    "P 1"
_symmetry_int_tables_number       1

loop_
  _symmetry_equiv_pos_as_xyz
  'x, y, z'

loop_
  _atom_site_label
  _atom_site_occupancy
  _atom_site_fract_x
  _atom_site_fract_y
  _atom_site_fract_z
  _atom_site_thermal_displace_type
  _atom_site_B_iso_or_equiv
  _atom_site_type_symbol
  N1       1.0000 0.12210  0.22550  0.10810  Biso   1.000  N
  N2       1.0000 0.05660  0.11180  0.06680  Biso   1.000  N
  N3       1.0000 0.18890  0.34580  0.05820  Biso   1.000  N
  C1       1.0000 0.10130  0.18220  0.05220  Biso   1.000  C
  H1       1.0000 0.11720  0.20110  0.00970  Biso   1.000  H
  N4       1.0000 0.04870  0.10770  0.13490  Biso   1.000  N
  C2       1.0000 0.17730  0.30760  0.11490  Biso   1.000  C
  C3       1.0000 0.21130  0.33840  0.17410  Biso   1.000  C
  H2       1.0000 0.20100  0.30770  0.21140  Biso   1.000  H
  C4       1.0000 0.23970  0.42090  0.06270  Biso   1.000  C
  C5       1.0000 0.08870  0.17720  0.15860  Biso   1.000  C
  H3       1.0000 0.09310  0.19080  0.20300  Biso   1.000  H
  C6       1.0000 0.27800  0.45920  0.11800  Biso   1.000  C
  H4       1.0000 0.31380  0.51150  0.11680  Biso   1.000  H
  C7       1.0000 0.26170  0.41730  0.17680  Biso   1.000  C
  H5       1.0000 0.28400  0.44150  0.21650  Biso   1.000  H
  N5       1.0000 0.25030  0.46090  0.00220  Biso   1.000  N
  C8       1.0000 0.27700  0.53640  0.99250  Biso   1.000  C
  H6       1.0000 0.29080  0.57220  0.02630  Biso   1.000  H
  C9       1.0000 0.23550  0.43020  0.93950  Biso   1.000  C
  H7       1.0000 0.21470  0.37830  0.92980  Biso   1.000  H
  N6       1.0000 0.28120  0.55320  0.93010  Biso   1.000  N
  N7       1.0000 0.25520  0.48480  0.89530  Biso   1.000  N
  N8       1.0000 0.78877  0.55883  0.44143  Biso   1.000  N
  N9       1.0000 0.72327  0.44513  0.40013  Biso   1.000  N
  N10      1.0000 0.85557  0.67913  0.39153  Biso   1.000  N
  C10      1.0000 0.76797  0.51553  0.38553  Biso   1.000  C
  H8       1.0000 0.78387  0.53443  0.34303  Biso   1.000  H
  N11      1.0000 0.71537  0.44103  0.46823  Biso   1.000  N
  C11      1.0000 0.84397  0.64093  0.44823  Biso   1.000  C
  C12      1.0000 0.87797  0.67173  0.50743  Biso   1.000  C
  H9       1.0000 0.86767  0.64103  0.54473  Biso   1.000  H
  C13      1.0000 0.90637  0.75423  0.39603  Biso   1.000  C
  C14      1.0000 0.75537  0.51053  0.49193  Biso   1.000  C
  H10      1.0000 0.75977  0.52413  0.53633  Biso   1.000  H
  C15      1.0000 0.94467  0.79253  0.45133  Biso   1.000  C
  H11      1.0000 0.98047  0.84483  0.45013  Biso   1.000  H
  C16      1.0000 0.92837  0.75063  0.51013  Biso   1.000  C
  H12      1.0000 0.95067  0.77483  0.54983  Biso   1.000  H
  N12      1.0000 0.91697  0.79423  0.33553  Biso   1.000  N
  C17      1.0000 0.94367  0.86973  0.32583  Biso   1.000  C
  H13      1.0000 0.95747  0.90553  0.35963  Biso   1.000  H
  C18      1.0000 0.90217  0.76353  0.27283  Biso   1.000  C
  H14      1.0000 0.88137  0.71163  0.26313  Biso   1.000  H
  N13      1.0000 0.94787  0.88653  0.26343  Biso   1.000  N
  N14      1.0000 0.92187  0.81813  0.22863  Biso   1.000  N
  N15      1.0000 0.45543  0.89217  0.77477  Biso   1.000  N
  N16      1.0000 0.38993  0.77847  0.73347  Biso   1.000  N
  N17      1.0000 0.52223  0.01247  0.72487  Biso   1.000  N
  C19      1.0000 0.43463  0.84887  0.71887  Biso   1.000  C
  H15      1.0000 0.45053  0.86777  0.67637  Biso   1.000  H
  N18      1.0000 0.38203  0.77437  0.80157  Biso   1.000  N
  C20      1.0000 0.51063  0.97427  0.78157  Biso   1.000  C
  C21      1.0000 0.54463  0.00507  0.84077  Biso   1.000  C
  H16      1.0000 0.53433  0.97437  0.87807  Biso   1.000  H
  C22      1.0000 0.57303  0.08757  0.72937  Biso   1.000  C
  C23      1.0000 0.42203  0.84387  0.82527  Biso   1.000  C
  H17      1.0000 0.42643  0.85747  0.86967  Biso   1.000  H
  C24      1.0000 0.61133  0.12587  0.78467  Biso   1.000  C
  H18      1.0000 0.64713  0.17817  0.78347  Biso   1.000  H
  C25      1.0000 0.59503  0.08397  0.84347  Biso   1.000  C
  H19      1.0000 0.61733  0.10817  0.88317  Biso   1.000  H
  N19      1.0000 0.58363  0.12757  0.66887  Biso   1.000  N
  C26      1.0000 0.61033  0.20307  0.65917  Biso   1.000  C
  H20      1.0000 0.62413  0.23887  0.69297  Biso   1.000  H
  C27      1.0000 0.56883  0.09687  0.60617  Biso   1.000  C
  H21      1.0000 0.54803  0.04497  0.59647  Biso   1.000  H
  N20      1.0000 0.61453  0.21987  0.59677  Biso   1.000  N
  N21      1.0000 0.58853  0.15147  0.56197  Biso   1.000  N
  N22      1.0000 0.77450  0.89660  0.10810  Biso   1.000  N
  N23      1.0000 0.88820  0.94480  0.06680  Biso   1.000  N
  N24      1.0000 0.65420  0.84310  0.05820  Biso   1.000  N
  C28      1.0000 0.81780  0.91910  0.05220  Biso   1.000  C
  H22      1.0000 0.79890  0.91610  0.00970  Biso   1.000  H
  N25      1.0000 0.89230  0.94100  0.13490  Biso   1.000  N
  C29      1.0000 0.69240  0.86970  0.11490  Biso   1.000  C
  C30      1.0000 0.66160  0.87290  0.17410  Biso   1.000  C
  H23      1.0000 0.69230  0.89330  0.21140  Biso   1.000  H
  C31      1.0000 0.57910  0.81880  0.06270  Biso   1.000  C
  C32      1.0000 0.82280  0.91150  0.15860  Biso   1.000  C
  H24      1.0000 0.80920  0.90230  0.20300  Biso   1.000  H
  C33      1.0000 0.54080  0.81880  0.11800  Biso   1.000  C
  H25      1.0000 0.48850  0.80230  0.11680  Biso   1.000  H
  C34      1.0000 0.58270  0.84440  0.17680  Biso   1.000  C
  H26      1.0000 0.55850  0.84250  0.21650  Biso   1.000  H
  N26      1.0000 0.53910  0.78940  0.00220  Biso   1.000  N
  C35      1.0000 0.46360  0.74060  0.99250  Biso   1.000  C
  H27      1.0000 0.42780  0.71860  0.02630  Biso   1.000  H
  C36      1.0000 0.56980  0.80530  0.93950  Biso   1.000  C
  H28      1.0000 0.62170  0.83640  0.92980  Biso   1.000  H
  N27      1.0000 0.44680  0.72800  0.93010  Biso   1.000  N
  N28      1.0000 0.51520  0.77040  0.89530  Biso   1.000  N
  N29      1.0000 0.44117  0.22993  0.44143  Biso   1.000  N
  N30      1.0000 0.55487  0.27813  0.40013  Biso   1.000  N
  N31      1.0000 0.32087  0.17643  0.39153  Biso   1.000  N
  C37      1.0000 0.48447  0.25243  0.38553  Biso   1.000  C
  H29      1.0000 0.46557  0.24943  0.34303  Biso   1.000  H
  N32      1.0000 0.55897  0.27433  0.46823  Biso   1.000  N
  C38      1.0000 0.35907  0.20303  0.44823  Biso   1.000  C
  C39      1.0000 0.32827  0.20623  0.50743  Biso   1.000  C
  H30      1.0000 0.35897  0.22663  0.54473  Biso   1.000  H
  C40      1.0000 0.24577  0.15213  0.39603  Biso   1.000  C
  C41      1.0000 0.48947  0.24483  0.49193  Biso   1.000  C
  H31      1.0000 0.47587  0.23563  0.53633  Biso   1.000  H
  C42      1.0000 0.20747  0.15213  0.45133  Biso   1.000  C
  H32      1.0000 0.15517  0.13563  0.45013  Biso   1.000  H
  C43      1.0000 0.24937  0.17773  0.51013  Biso   1.000  C
  H33      1.0000 0.22517  0.17583  0.54983  Biso   1.000  H
  N33      1.0000 0.20577  0.12273  0.33553  Biso   1.000  N
  C44      1.0000 0.13027  0.07393  0.32583  Biso   1.000  C
  H34      1.0000 0.09447  0.05193  0.35963  Biso   1.000  H
  C45      1.0000 0.23647  0.13863  0.27283  Biso   1.000  C
  H35      1.0000 0.28837  0.16973  0.26313  Biso   1.000  H
  N34      1.0000 0.11347  0.06133  0.26343  Biso   1.000  N
  N35      1.0000 0.18187  0.10373  0.22863  Biso   1.000  N
  N36      1.0000 0.10783  0.56327  0.77477  Biso   1.000  N
  N37      1.0000 0.22153  0.61147  0.73347  Biso   1.000  N
  N38      1.0000 0.98753  0.50977  0.72487  Biso   1.000  N
  C46      1.0000 0.15113  0.58577  0.71887  Biso   1.000  C
  H36      1.0000 0.13223  0.58277  0.67637  Biso   1.000  H
  N39      1.0000 0.22563  0.60767  0.80157  Biso   1.000  N
  C47      1.0000 0.02573  0.53637  0.78157  Biso   1.000  C
  C48      1.0000 0.99493  0.53957  0.84077  Biso   1.000  C
  H37      1.0000 0.02563  0.55997  0.87807  Biso   1.000  H
  C49      1.0000 0.91243  0.48547  0.72937  Biso   1.000  C
  C50      1.0000 0.15613  0.57817  0.82527  Biso   1.000  C
  H38      1.0000 0.14253  0.56897  0.86967  Biso   1.000  H
  C51      1.0000 0.87413  0.48547  0.78467  Biso   1.000  C
  H39      1.0000 0.82183  0.46897  0.78347  Biso   1.000  H
  C52      1.0000 0.91603  0.51107  0.84347  Biso   1.000  C
  H40      1.0000 0.89183  0.50917  0.88317  Biso   1.000  H
  N40      1.0000 0.87243  0.45607  0.66887  Biso   1.000  N
  C53      1.0000 0.79693  0.40727  0.65917  Biso   1.000  C
  H41      1.0000 0.76113  0.38527  0.69297  Biso   1.000  H
  C54      1.0000 0.90313  0.47197  0.60617  Biso   1.000  C
  H42      1.0000 0.95503  0.50307  0.59647  Biso   1.000  H
  N41      1.0000 0.78013  0.39467  0.59677  Biso   1.000  N
  N42      1.0000 0.84853  0.43707  0.56197  Biso   1.000  N
  N43      1.0000 0.10340  0.87790  0.10810  Biso   1.000  N
  N44      1.0000 0.05520  0.94340  0.06680  Biso   1.000  N
  N45      1.0000 0.15690  0.81110  0.05820  Biso   1.000  N
  C55      1.0000 0.08090  0.89870  0.05220  Biso   1.000  C
  H43      1.0000 0.08390  0.88280  0.00970  Biso   1.000  H
  N46      1.0000 0.05900  0.95130  0.13490  Biso   1.000  N
  C56      1.0000 0.13030  0.82270  0.11490  Biso   1.000  C
  C57      1.0000 0.12710  0.78870  0.17410  Biso   1.000  C
  H44      1.0000 0.10670  0.79900  0.21140  Biso   1.000  H
  C58      1.0000 0.18120  0.76030  0.06270  Biso   1.000  C
  C59      1.0000 0.08850  0.91130  0.15860  Biso   1.000  C
  H45      1.0000 0.09770  0.90690  0.20300  Biso   1.000  H
  C60      1.0000 0.18120  0.72200  0.11800  Biso   1.000  C
  H46      1.0000 0.19770  0.68620  0.11680  Biso   1.000  H
  C61      1.0000 0.15560  0.73830  0.17680  Biso   1.000  C
  H47      1.0000 0.15750  0.71600  0.21650  Biso   1.000  H
  N47      1.0000 0.21060  0.74970  0.00220  Biso   1.000  N
  C62      1.0000 0.25940  0.72300  0.99250  Biso   1.000  C
  H48      1.0000 0.28140  0.70920  0.02630  Biso   1.000  H
  C63      1.0000 0.19470  0.76450  0.93950  Biso   1.000  C
  H49      1.0000 0.16360  0.78530  0.92980  Biso   1.000  H
  N48      1.0000 0.27200  0.71880  0.93010  Biso   1.000  N
  N49      1.0000 0.22960  0.74480  0.89530  Biso   1.000  N
  N50      1.0000 0.77007  0.21123  0.44143  Biso   1.000  N
  N51      1.0000 0.72187  0.27673  0.40013  Biso   1.000  N
  N52      1.0000 0.82357  0.14443  0.39153  Biso   1.000  N
  C64      1.0000 0.74757  0.23203  0.38553  Biso   1.000  C
  H50      1.0000 0.75057  0.21613  0.34303  Biso   1.000  H
  N53      1.0000 0.72567  0.28463  0.46823  Biso   1.000  N
  C65      1.0000 0.79697  0.15603  0.44823  Biso   1.000  C
  C66      1.0000 0.79377  0.12203  0.50743  Biso   1.000  C
  H51      1.0000 0.77337  0.13233  0.54473  Biso   1.000  H
  C67      1.0000 0.84787  0.09363  0.39603  Biso   1.000  C
  C68      1.0000 0.75517  0.24463  0.49193  Biso   1.000  C
  H52      1.0000 0.76437  0.24023  0.53633  Biso   1.000  H
  C69      1.0000 0.84787  0.05533  0.45133  Biso   1.000  C
  H53      1.0000 0.86437  0.01953  0.45013  Biso   1.000  H
  C70      1.0000 0.82227  0.07163  0.51013  Biso   1.000  C
  H54      1.0000 0.82417  0.04933  0.54983  Biso   1.000  H
  N54      1.0000 0.87727  0.08303  0.33553  Biso   1.000  N
  C71      1.0000 0.92607  0.05633  0.32583  Biso   1.000  C
  H55      1.0000 0.94807  0.04253  0.35963  Biso   1.000  H
  C72      1.0000 0.86137  0.09783  0.27283  Biso   1.000  C
  H56      1.0000 0.83027  0.11863  0.26313  Biso   1.000  H
  N55      1.0000 0.93867  0.05213  0.26343  Biso   1.000  N
  N56      1.0000 0.89627  0.07813  0.22863  Biso   1.000  N
  N57      1.0000 0.43673  0.54457  0.77477  Biso   1.000  N
  N58      1.0000 0.38853  0.61007  0.73347  Biso   1.000  N
  N59      1.0000 0.49023  0.47777  0.72487  Biso   1.000  N
  C73      1.0000 0.41423  0.56537  0.71887  Biso   1.000  C
  H57      1.0000 0.41723  0.54947  0.67637  Biso   1.000  H
  N60      1.0000 0.39233  0.61797  0.80157  Biso   1.000  N
  C74      1.0000 0.46363  0.48937  0.78157  Biso   1.000  C
  C75      1.0000 0.46043  0.45537  0.84077  Biso   1.000  C
  H58      1.0000 0.44003  0.46567  0.87807  Biso   1.000  H
  C76      1.0000 0.51453  0.42697  0.72937  Biso   1.000  C
  C77      1.0000 0.42183  0.57797  0.82527  Biso   1.000  C
  H59      1.0000 0.43103  0.57357  0.86967  Biso   1.000  H
  C78      1.0000 0.51453  0.38867  0.78467  Biso   1.000  C
  H60      1.0000 0.53103  0.35287  0.78347  Biso   1.000  H
  C79      1.0000 0.48893  0.40497  0.84347  Biso   1.000  C
  H61      1.0000 0.49083  0.38267  0.88317  Biso   1.000  H
  N61      1.0000 0.54393  0.41637  0.66887  Biso   1.000  N
  C80      1.0000 0.59273  0.38967  0.65917  Biso   1.000  C
  H62      1.0000 0.61473  0.37587  0.69297  Biso   1.000  H
  C81      1.0000 0.52803  0.43117  0.60617  Biso   1.000  C
  H63      1.0000 0.49693  0.45197  0.59647  Biso   1.000  H
  N62      1.0000 0.60533  0.38547  0.59677  Biso   1.000  N
  N63      1.0000 0.56293  0.41147  0.56197  Biso   1.000  N
  N64      1.0000 0.87790  0.77450  0.89190  Biso   1.000  N
  N65      1.0000 0.94340  0.88820  0.93320  Biso   1.000  N
  N66      1.0000 0.81110  0.65420  0.94180  Biso   1.000  N
  C82      1.0000 0.89870  0.81780  0.94780  Biso   1.000  C
  H64      1.0000 0.88280  0.79890  0.99030  Biso   1.000  H
  N67      1.0000 0.95130  0.89230  0.86510  Biso   1.000  N
  C83      1.0000 0.82270  0.69240  0.88510  Biso   1.000  C
  C84      1.0000 0.78870  0.66160  0.82590  Biso   1.000  C
  H65      1.0000 0.79900  0.69230  0.78860  Biso   1.000  H
  C85      1.0000 0.76030  0.57910  0.93730  Biso   1.000  C
  C86      1.0000 0.91130  0.82280  0.84140  Biso   1.000  C
  H66      1.0000 0.90690  0.80920  0.79700  Biso   1.000  H
  C87      1.0000 0.72200  0.54080  0.88200  Biso   1.000  C
  H67      1.0000 0.68620  0.48850  0.88320  Biso   1.000  H
  C88      1.0000 0.73830  0.58270  0.82320  Biso   1.000  C
  H68      1.0000 0.71600  0.55850  0.78350  Biso   1.000  H
  N68      1.0000 0.74970  0.53910  0.99780  Biso   1.000  N
  C89      1.0000 0.72300  0.46360  0.00750  Biso   1.000  C
  H69      1.0000 0.70920  0.42780  0.97370  Biso   1.000  H
  C90      1.0000 0.76450  0.56980  0.06050  Biso   1.000  C
  H70      1.0000 0.78530  0.62170  0.07020  Biso   1.000  H
  N69      1.0000 0.71880  0.44680  0.06990  Biso   1.000  N
  N70      1.0000 0.74480  0.51520  0.10470  Biso   1.000  N
  N71      1.0000 0.54457  0.10783  0.22523  Biso   1.000  N
  N72      1.0000 0.61007  0.22153  0.26653  Biso   1.000  N
  N73      1.0000 0.47777  0.98753  0.27513  Biso   1.000  N
  C91      1.0000 0.56537  0.15113  0.28113  Biso   1.000  C
  H71      1.0000 0.54947  0.13223  0.32363  Biso   1.000  H
  N74      1.0000 0.61797  0.22563  0.19843  Biso   1.000  N
  C92      1.0000 0.48937  0.02573  0.21843  Biso   1.000  C
  C93      1.0000 0.45537  0.99493  0.15923  Biso   1.000  C
  H72      1.0000 0.46567  0.02563  0.12193  Biso   1.000  H
  C94      1.0000 0.42697  0.91243  0.27063  Biso   1.000  C
  C95      1.0000 0.57797  0.15613  0.17473  Biso   1.000  C
  H73      1.0000 0.57357  0.14253  0.13033  Biso   1.000  H
  C96      1.0000 0.38867  0.87413  0.21533  Biso   1.000  C
  H74      1.0000 0.35287  0.82183  0.21653  Biso   1.000  H
  C97      1.0000 0.40497  0.91603  0.15653  Biso   1.000  C
  H75      1.0000 0.38267  0.89183  0.11683  Biso   1.000  H
  N75      1.0000 0.41637  0.87243  0.33113  Biso   1.000  N
  C98      1.0000 0.38967  0.79693  0.34083  Biso   1.000  C
  H76      1.0000 0.37587  0.76113  0.30703  Biso   1.000  H
  C99      1.0000 0.43117  0.90313  0.39383  Biso   1.000  C
  H77      1.0000 0.45197  0.95503  0.40353  Biso   1.000  H
  N76      1.0000 0.38547  0.78013  0.40323  Biso   1.000  N
  N77      1.0000 0.41147  0.84853  0.43803  Biso   1.000  N
  N78      1.0000 0.21123  0.44117  0.55857  Biso   1.000  N
  N79      1.0000 0.27673  0.55487  0.59987  Biso   1.000  N
  N80      1.0000 0.14443  0.32087  0.60847  Biso   1.000  N
  C100     1.0000 0.23203  0.48447  0.61447  Biso   1.000  C
  H78      1.0000 0.21613  0.46557  0.65697  Biso   1.000  H
  N81      1.0000 0.28463  0.55897  0.53177  Biso   1.000  N
  C101     1.0000 0.15603  0.35907  0.55177  Biso   1.000  C
  C102     1.0000 0.12203  0.32827  0.49257  Biso   1.000  C
  H79      1.0000 0.13233  0.35897  0.45527  Biso   1.000  H
  C103     1.0000 0.09363  0.24577  0.60397  Biso   1.000  C
  C104     1.0000 0.24463  0.48947  0.50807  Biso   1.000  C
  H80      1.0000 0.24023  0.47587  0.46367  Biso   1.000  H
  C105     1.0000 0.05533  0.20747  0.54867  Biso   1.000  C
  H81      1.0000 0.01953  0.15517  0.54987  Biso   1.000  H
  C106     1.0000 0.07163  0.24937  0.48987  Biso   1.000  C
  H82      1.0000 0.04933  0.22517  0.45017  Biso   1.000  H
  N82      1.0000 0.08303  0.20577  0.66447  Biso   1.000  N
  C107     1.0000 0.05633  0.13027  0.67417  Biso   1.000  C
  H83      1.0000 0.04253  0.09447  0.64037  Biso   1.000  H
  C108     1.0000 0.09783  0.23647  0.72717  Biso   1.000  C
  H84      1.0000 0.11863  0.28837  0.73687  Biso   1.000  H
  N83      1.0000 0.05213  0.11347  0.73657  Biso   1.000  N
  N84      1.0000 0.07813  0.18187  0.77137  Biso   1.000  N
  N85      1.0000 0.22550  0.10340  0.89190  Biso   1.000  N
  N86      1.0000 0.11180  0.05520  0.93320  Biso   1.000  N
  N87      1.0000 0.34580  0.15690  0.94180  Biso   1.000  N
  C109     1.0000 0.18220  0.08090  0.94780  Biso   1.000  C
  H85      1.0000 0.20110  0.08390  0.99030  Biso   1.000  H
  N88      1.0000 0.10770  0.05900  0.86510  Biso   1.000  N
  C110     1.0000 0.30760  0.13030  0.88510  Biso   1.000  C
  C111     1.0000 0.33840  0.12710  0.82590  Biso   1.000  C
  H86      1.0000 0.30770  0.10670  0.78860  Biso   1.000  H
  C112     1.0000 0.42090  0.18120  0.93730  Biso   1.000  C
  C113     1.0000 0.17720  0.08850  0.84140  Biso   1.000  C
  H87      1.0000 0.19080  0.09770  0.79700  Biso   1.000  H
  C114     1.0000 0.45920  0.18120  0.88200  Biso   1.000  C
  H88      1.0000 0.51150  0.19770  0.88320  Biso   1.000  H
  C115     1.0000 0.41730  0.15560  0.82320  Biso   1.000  C
  H89      1.0000 0.44150  0.15750  0.78350  Biso   1.000  H
  N89      1.0000 0.46090  0.21060  0.99780  Biso   1.000  N
  C116     1.0000 0.53640  0.25940  0.00750  Biso   1.000  C
  H90      1.0000 0.57220  0.28140  0.97370  Biso   1.000  H
  C117     1.0000 0.43020  0.19470  0.06050  Biso   1.000  C
  H91      1.0000 0.37830  0.16360  0.07020  Biso   1.000  H
  N90      1.0000 0.55320  0.27200  0.06990  Biso   1.000  N
  N91      1.0000 0.48480  0.22960  0.10470  Biso   1.000  N
  N92      1.0000 0.89217  0.43673  0.22523  Biso   1.000  N
  N93      1.0000 0.77847  0.38853  0.26653  Biso   1.000  N
  N94      1.0000 0.01247  0.49023  0.27513  Biso   1.000  N
  C118     1.0000 0.84887  0.41423  0.28113  Biso   1.000  C
  H92      1.0000 0.86777  0.41723  0.32363  Biso   1.000  H
  N95      1.0000 0.77437  0.39233  0.19843  Biso   1.000  N
  C119     1.0000 0.97427  0.46363  0.21843  Biso   1.000  C
  C120     1.0000 0.00507  0.46043  0.15923  Biso   1.000  C
  H93      1.0000 0.97437  0.44003  0.12193  Biso   1.000  H
  C121     1.0000 0.08757  0.51453  0.27063  Biso   1.000  C
  C122     1.0000 0.84387  0.42183  0.17473  Biso   1.000  C
  H94      1.0000 0.85747  0.43103  0.13033  Biso   1.000  H
  C123     1.0000 0.12587  0.51453  0.21533  Biso   1.000  C
  H95      1.0000 0.17817  0.53103  0.21653  Biso   1.000  H
  C124     1.0000 0.08397  0.48893  0.15653  Biso   1.000  C
  H96      1.0000 0.10817  0.49083  0.11683  Biso   1.000  H
  N96      1.0000 0.12757  0.54393  0.33113  Biso   1.000  N
  C125     1.0000 0.20307  0.59273  0.34083  Biso   1.000  C
  H97      1.0000 0.23887  0.61473  0.30703  Biso   1.000  H
  C126     1.0000 0.09687  0.52803  0.39383  Biso   1.000  C
  H98      1.0000 0.04497  0.49693  0.40353  Biso   1.000  H
  N97      1.0000 0.21987  0.60533  0.40323  Biso   1.000  N
  N98      1.0000 0.15147  0.56293  0.43803  Biso   1.000  N
  N99      1.0000 0.55883  0.77007  0.55857  Biso   1.000  N
  N100     1.0000 0.44513  0.72187  0.59987  Biso   1.000  N
  N101     1.0000 0.67913  0.82357  0.60847  Biso   1.000  N
  C127     1.0000 0.51553  0.74757  0.61447  Biso   1.000  C
  H99      1.0000 0.53443  0.75057  0.65697  Biso   1.000  H
  N102     1.0000 0.44103  0.72567  0.53177  Biso   1.000  N
  C128     1.0000 0.64093  0.79697  0.55177  Biso   1.000  C
  C129     1.0000 0.67173  0.79377  0.49257  Biso   1.000  C
  H100     1.0000 0.64103  0.77337  0.45527  Biso   1.000  H
  C130     1.0000 0.75423  0.84787  0.60397  Biso   1.000  C
  C131     1.0000 0.51053  0.75517  0.50807  Biso   1.000  C
  H101     1.0000 0.52413  0.76437  0.46367  Biso   1.000  H
  C132     1.0000 0.79253  0.84787  0.54867  Biso   1.000  C
  H102     1.0000 0.84483  0.86437  0.54987  Biso   1.000  H
  C133     1.0000 0.75063  0.82227  0.48987  Biso   1.000  C
  H103     1.0000 0.77483  0.82417  0.45017  Biso   1.000  H
  N103     1.0000 0.79423  0.87727  0.66447  Biso   1.000  N
  C134     1.0000 0.86973  0.92607  0.67417  Biso   1.000  C
  H104     1.0000 0.90553  0.94807  0.64037  Biso   1.000  H
  C135     1.0000 0.76353  0.86137  0.72717  Biso   1.000  C
  H105     1.0000 0.71163  0.83027  0.73687  Biso   1.000  H
  N104     1.0000 0.88653  0.93867  0.73657  Biso   1.000  N
  N105     1.0000 0.81813  0.89627  0.77137  Biso   1.000  N
  N106     1.0000 0.89660  0.12210  0.89190  Biso   1.000  N
  N107     1.0000 0.94480  0.05660  0.93320  Biso   1.000  N
  N108     1.0000 0.84310  0.18890  0.94180  Biso   1.000  N
  C136     1.0000 0.91910  0.10130  0.94780  Biso   1.000  C
  H106     1.0000 0.91610  0.11720  0.99030  Biso   1.000  H
  N109     1.0000 0.94100  0.04870  0.86510  Biso   1.000  N
  C137     1.0000 0.86970  0.17730  0.88510  Biso   1.000  C
  C138     1.0000 0.87290  0.21130  0.82590  Biso   1.000  C
  H107     1.0000 0.89330  0.20100  0.78860  Biso   1.000  H
  C139     1.0000 0.81880  0.23970  0.93730  Biso   1.000  C
  C140     1.0000 0.91150  0.08870  0.84140  Biso   1.000  C
  H108     1.0000 0.90230  0.09310  0.79700  Biso   1.000  H
  C141     1.0000 0.81880  0.27800  0.88200  Biso   1.000  C
  H109     1.0000 0.80230  0.31380  0.88320  Biso   1.000  H
  C142     1.0000 0.84440  0.26170  0.82320  Biso   1.000  C
  H110     1.0000 0.84250  0.28400  0.78350  Biso   1.000  H
  N110     1.0000 0.78940  0.25030  0.99780  Biso   1.000  N
  C143     1.0000 0.74060  0.27700  0.00750  Biso   1.000  C
  H111     1.0000 0.71860  0.29080  0.97370  Biso   1.000  H
  C144     1.0000 0.80530  0.23550  0.06050  Biso   1.000  C
  H112     1.0000 0.83640  0.21470  0.07020  Biso   1.000  H
  N111     1.0000 0.72800  0.28120  0.06990  Biso   1.000  N
  N112     1.0000 0.77040  0.25520  0.10470  Biso   1.000  N
  N113     1.0000 0.56327  0.45543  0.22523  Biso   1.000  N
  N114     1.0000 0.61147  0.38993  0.26653  Biso   1.000  N
  N115     1.0000 0.50977  0.52223  0.27513  Biso   1.000  N
  C145     1.0000 0.58577  0.43463  0.28113  Biso   1.000  C
  H113     1.0000 0.58277  0.45053  0.32363  Biso   1.000  H
  N116     1.0000 0.60767  0.38203  0.19843  Biso   1.000  N
  C146     1.0000 0.53637  0.51063  0.21843  Biso   1.000  C
  C147     1.0000 0.53957  0.54463  0.15923  Biso   1.000  C
  H114     1.0000 0.55997  0.53433  0.12193  Biso   1.000  H
  C148     1.0000 0.48547  0.57303  0.27063  Biso   1.000  C
  C149     1.0000 0.57817  0.42203  0.17473  Biso   1.000  C
  H115     1.0000 0.56897  0.42643  0.13033  Biso   1.000  H
  C150     1.0000 0.48547  0.61133  0.21533  Biso   1.000  C
  H116     1.0000 0.46897  0.64713  0.21653  Biso   1.000  H
  C151     1.0000 0.51107  0.59503  0.15653  Biso   1.000  C
  H117     1.0000 0.50917  0.61733  0.11683  Biso   1.000  H
  N117     1.0000 0.45607  0.58363  0.33113  Biso   1.000  N
  C152     1.0000 0.40727  0.61033  0.34083  Biso   1.000  C
  H118     1.0000 0.38527  0.62413  0.30703  Biso   1.000  H
  C153     1.0000 0.47197  0.56883  0.39383  Biso   1.000  C
  H119     1.0000 0.50307  0.54803  0.40353  Biso   1.000  H
  N118     1.0000 0.39467  0.61453  0.40323  Biso   1.000  N
  N119     1.0000 0.43707  0.58853  0.43803  Biso   1.000  N
  N120     1.0000 0.22993  0.78877  0.55857  Biso   1.000  N
  N121     1.0000 0.27813  0.72327  0.59987  Biso   1.000  N
  N122     1.0000 0.17643  0.85557  0.60847  Biso   1.000  N
  C154     1.0000 0.25243  0.76797  0.61447  Biso   1.000  C
  H120     1.0000 0.24943  0.78387  0.65697  Biso   1.000  H
  N123     1.0000 0.27433  0.71537  0.53177  Biso   1.000  N
  C155     1.0000 0.20303  0.84397  0.55177  Biso   1.000  C
  C156     1.0000 0.20623  0.87797  0.49257  Biso   1.000  C
  H121     1.0000 0.22663  0.86767  0.45527  Biso   1.000  H
  C157     1.0000 0.15213  0.90637  0.60397  Biso   1.000  C
  C158     1.0000 0.24483  0.75537  0.50807  Biso   1.000  C
  H122     1.0000 0.23563  0.75977  0.46367  Biso   1.000  H
  C159     1.0000 0.15213  0.94467  0.54867  Biso   1.000  C
  H123     1.0000 0.13563  0.98047  0.54987  Biso   1.000  H
  C160     1.0000 0.17773  0.92837  0.48987  Biso   1.000  C
  H124     1.0000 0.17583  0.95067  0.45017  Biso   1.000  H
  N124     1.0000 0.12273  0.91697  0.66447  Biso   1.000  N
  C161     1.0000 0.07393  0.94367  0.67417  Biso   1.000  C
  H125     1.0000 0.05193  0.95747  0.64037  Biso   1.000  H
  C162     1.0000 0.13863  0.90217  0.72717  Biso   1.000  C
  H126     1.0000 0.16973  0.88137  0.73687  Biso   1.000  H
  N125     1.0000 0.06133  0.94787  0.73657  Biso   1.000  N
  N126     1.0000 0.10373  0.92187  0.77137  Biso   1.000  N
  Cd1      1.0000 0.00000  0.00000  0.00000  Biso   1.000  Cd
  Cd2      1.0000 0.66667  0.33333  0.33333  Biso   1.000  Cd
  Cd3      1.0000 0.33333  0.66667  0.66667  Biso   1.000  Cd
  Cd4      1.0000 0.00000  0.00000  0.20472  Biso   1.000  Cd
  Cd5      1.0000 0.66667  0.33333  0.53805  Biso   1.000  Cd
  Cd6      1.0000 0.33333  0.66667  0.87139  Biso   1.000  Cd
  Cd7      1.0000 0.00000  0.00000  0.79528  Biso   1.000  Cd
  Cd8      1.0000 0.66667  0.33333  0.12861  Biso   1.000  Cd
  Cd9      1.0000 0.33333  0.66667  0.46195  Biso   1.000  Cd
