data_image0
_cell_length_a       12.3743
_cell_length_b       14.5842
_cell_length_c       21.9435
_cell_angle_alpha    90
_cell_angle_beta     104.821
_cell_angle_gamma    90

_symmetry_space_group_name_H-M    "P 1"
_symmetry_int_tables_number       1

loop_
  _symmetry_equiv_pos_as_xyz
  'x, y, z'

loop_
  _atom_site_label
  _atom_site_occupancy
  _atom_site_fract_x
  _atom_site_fract_y
  _atom_site_fract_z
  _atom_site_thermal_displace_type
  _atom_site_B_iso_or_equiv
  _atom_site_type_symbol
  Dy1      1.0000 0.06649  0.38594  0.39647  Biso   1.000  Dy
  O1       1.0000 0.23620  0.47642  0.44423  Biso   1.000  O
  O2       1.0000 0.23640  0.40064  0.35803  Biso   1.000  O
  O3       1.0000 0.80990  0.26279  0.04730  Biso   1.000  O
  O4       1.0000 0.98840  0.23104  0.08295  Biso   1.000  O
  O5       1.0000 0.02770  0.29698  0.30278  Biso   1.000  O
  O6       1.0000 0.02040  0.47991  0.30284  Biso   1.000  O
  O7       1.0000 0.04220  0.38579  0.50040  Biso   1.000  O
  O8       1.0000 0.99430  0.46704  0.57585  Biso   1.000  O
  N1       1.0000 0.71940  0.64370  0.33239  Biso   1.000  N
  N2       1.0000 0.79190  0.77830  0.04063  Biso   1.000  N
  C1       1.0000 0.28220  0.45720  0.39975  Biso   1.000  C
  C2       1.0000 0.39010  0.50180  0.39846  Biso   1.000  C
  C3       1.0000 0.44370  0.47900  0.35188  Biso   1.000  C
  H1       1.0000 0.41060  0.43490  0.32090  Biso   1.000  H
  C4       1.0000 0.54300  0.51890  0.34980  Biso   1.000  C
  H2       1.0000 0.57780  0.50190  0.31760  Biso   1.000  H
  C5       1.0000 0.59310  0.58390  0.39420  Biso   1.000  C
  C6       1.0000 0.53910  0.60950  0.43940  Biso   1.000  C
  H3       1.0000 0.57050  0.65580  0.46910  Biso   1.000  H
  C7       1.0000 0.43940  0.56820  0.44166  Biso   1.000  C
  H4       1.0000 0.40410  0.58590  0.47360  Biso   1.000  H
  C8       1.0000 0.70720  0.62120  0.39660  Biso   1.000  C
  H5       1.0000 0.72030  0.67720  0.42300  Biso   1.000  H
  H6       1.0000 0.76440  0.57530  0.41640  Biso   1.000  H
  C9       1.0000 0.79280  0.59870  0.30797  Biso   1.000  C
  H7       1.0000 0.83870  0.55270  0.33220  Biso   1.000  H
  C10      1.0000 0.80270  0.61790  0.24950  Biso   1.000  C
  H8       1.0000 0.85250  0.58270  0.23240  Biso   1.000  H
  C11      1.0000 0.74290  0.68630  0.21454  Biso   1.000  C
  C12      1.0000 0.66970  0.73590  0.24180  Biso   1.000  C
  H9       1.0000 0.62720  0.78530  0.21960  Biso   1.000  H
  C13      1.0000 0.66010  0.71230  0.30090  Biso   1.000  C
  H10      1.0000 0.61050  0.74560  0.31930  Biso   1.000  H
  C14      1.0000 0.75720  0.71460  0.15193  Biso   1.000  C
  C15      1.0000 0.85030  0.68690  0.13164  Biso   1.000  C
  H11      1.0000 0.90220  0.64470  0.15610  Biso   1.000  H
  C16      1.0000 0.86670  0.72080  0.07634  Biso   1.000  C
  H12      1.0000 0.93130  0.70350  0.06330  Biso   1.000  H
  C17      1.0000 0.69790  0.80150  0.05711  Biso   1.000  C
  H13      1.0000 0.64440  0.83980  0.03000  Biso   1.000  H
  C18      1.0000 0.67850  0.77160  0.11128  Biso   1.000  C
  H14      1.0000 0.61180  0.78890  0.12220  Biso   1.000  H
  C19      1.0000 0.81520  0.82340  0.98518  Biso   1.000  C
  H15      1.0000 0.75060  0.81640  0.94810  Biso   1.000  H
  H16      1.0000 0.88150  0.79530  0.97530  Biso   1.000  H
  C20      1.0000 0.83690  0.92530  0.00096  Biso   1.000  C
  C21      1.0000 0.92590  0.95130  0.04974  Biso   1.000  C
  H17      1.0000 0.97650  0.90600  0.07150  Biso   1.000  H
  C22      1.0000 0.94240  0.04080  0.06721  Biso   1.000  C
  H18      1.0000 0.00390  0.05710  0.10130  Biso   1.000  H
  C23      1.0000 0.87080  0.10860  0.03596  Biso   1.000  C
  C24      1.0000 0.77990  0.08400  0.98584  Biso   1.000  C
  H19      1.0000 0.73010  0.12960  0.96390  Biso   1.000  H
  C25      1.0000 0.76330  0.99150  0.96831  Biso   1.000  C
  H20      1.0000 0.70220  0.97410  0.93440  Biso   1.000  H
  C26      1.0000 0.88970  0.20640  0.05557  Biso   1.000  C
  C27      1.0000 0.01180  0.45800  0.52223  Biso   1.000  C
  Dy2      1.0000 0.93351  0.38594  0.10353  Biso   1.000  Dy
  O9       1.0000 0.76380  0.47642  0.05577  Biso   1.000  O
  O10      1.0000 0.76360  0.40064  0.14197  Biso   1.000  O
  O11      1.0000 0.19010  0.26279  0.45270  Biso   1.000  O
  O12      1.0000 0.01160  0.23104  0.41705  Biso   1.000  O
  O13      1.0000 0.97230  0.29698  0.19722  Biso   1.000  O
  O14      1.0000 0.97960  0.47991  0.19716  Biso   1.000  O
  O15      1.0000 0.95780  0.38579  0.99960  Biso   1.000  O
  O16      1.0000 0.00570  0.46704  0.92415  Biso   1.000  O
  N3       1.0000 0.28060  0.64370  0.16761  Biso   1.000  N
  N4       1.0000 0.20810  0.77830  0.45937  Biso   1.000  N
  C28      1.0000 0.71780  0.45720  0.10025  Biso   1.000  C
  C29      1.0000 0.60990  0.50180  0.10154  Biso   1.000  C
  C30      1.0000 0.55630  0.47900  0.14812  Biso   1.000  C
  H21      1.0000 0.58940  0.43490  0.17910  Biso   1.000  H
  C31      1.0000 0.45700  0.51890  0.15020  Biso   1.000  C
  H22      1.0000 0.42220  0.50190  0.18240  Biso   1.000  H
  C32      1.0000 0.40690  0.58390  0.10580  Biso   1.000  C
  C33      1.0000 0.46090  0.60950  0.06060  Biso   1.000  C
  H23      1.0000 0.42950  0.65580  0.03090  Biso   1.000  H
  C34      1.0000 0.56060  0.56820  0.05834  Biso   1.000  C
  H24      1.0000 0.59590  0.58590  0.02640  Biso   1.000  H
  C35      1.0000 0.29280  0.62120  0.10340  Biso   1.000  C
  H25      1.0000 0.27970  0.67720  0.07700  Biso   1.000  H
  H26      1.0000 0.23560  0.57530  0.08360  Biso   1.000  H
  C36      1.0000 0.20720  0.59870  0.19203  Biso   1.000  C
  H27      1.0000 0.16130  0.55270  0.16780  Biso   1.000  H
  C37      1.0000 0.19730  0.61790  0.25050  Biso   1.000  C
  H28      1.0000 0.14750  0.58270  0.26760  Biso   1.000  H
  C38      1.0000 0.25710  0.68630  0.28546  Biso   1.000  C
  C39      1.0000 0.33030  0.73590  0.25820  Biso   1.000  C
  H29      1.0000 0.37280  0.78530  0.28040  Biso   1.000  H
  C40      1.0000 0.33990  0.71230  0.19910  Biso   1.000  C
  H30      1.0000 0.38950  0.74560  0.18070  Biso   1.000  H
  C41      1.0000 0.24280  0.71460  0.34807  Biso   1.000  C
  C42      1.0000 0.14970  0.68690  0.36836  Biso   1.000  C
  H31      1.0000 0.09780  0.64470  0.34390  Biso   1.000  H
  C43      1.0000 0.13330  0.72080  0.42366  Biso   1.000  C
  H32      1.0000 0.06870  0.70350  0.43670  Biso   1.000  H
  C44      1.0000 0.30210  0.80150  0.44289  Biso   1.000  C
  H33      1.0000 0.35560  0.83980  0.47000  Biso   1.000  H
  C45      1.0000 0.32150  0.77160  0.38872  Biso   1.000  C
  H34      1.0000 0.38820  0.78890  0.37780  Biso   1.000  H
  C46      1.0000 0.18480  0.82340  0.51482  Biso   1.000  C
  H35      1.0000 0.24940  0.81640  0.55190  Biso   1.000  H
  H36      1.0000 0.11850  0.79530  0.52470  Biso   1.000  H
  C47      1.0000 0.16310  0.92530  0.49904  Biso   1.000  C
  C48      1.0000 0.07410  0.95130  0.45026  Biso   1.000  C
  H37      1.0000 0.02350  0.90600  0.42850  Biso   1.000  H
  C49      1.0000 0.05760  0.04080  0.43279  Biso   1.000  C
  H38      1.0000 0.99610  0.05710  0.39870  Biso   1.000  H
  C50      1.0000 0.12920  0.10860  0.46404  Biso   1.000  C
  C51      1.0000 0.22010  0.08400  0.51416  Biso   1.000  C
  H39      1.0000 0.26990  0.12960  0.53610  Biso   1.000  H
  C52      1.0000 0.23670  0.99150  0.53169  Biso   1.000  C
  H40      1.0000 0.29780  0.97410  0.56560  Biso   1.000  H
  C53      1.0000 0.11030  0.20640  0.44443  Biso   1.000  C
  C54      1.0000 0.98820  0.45800  0.97777  Biso   1.000  C
  Dy3      1.0000 0.93351  0.61406  0.60353  Biso   1.000  Dy
  O17      1.0000 0.76380  0.52358  0.55577  Biso   1.000  O
  O18      1.0000 0.76360  0.59936  0.64197  Biso   1.000  O
  O19      1.0000 0.19010  0.73721  0.95270  Biso   1.000  O
  O20      1.0000 0.01160  0.76896  0.91705  Biso   1.000  O
  O21      1.0000 0.97230  0.70302  0.69722  Biso   1.000  O
  O22      1.0000 0.97960  0.52009  0.69716  Biso   1.000  O
  O23      1.0000 0.95780  0.61421  0.49960  Biso   1.000  O
  O24      1.0000 0.00570  0.53296  0.42415  Biso   1.000  O
  N5       1.0000 0.28060  0.35630  0.66761  Biso   1.000  N
  N6       1.0000 0.20810  0.22170  0.95937  Biso   1.000  N
  C55      1.0000 0.71780  0.54280  0.60025  Biso   1.000  C
  C56      1.0000 0.60990  0.49820  0.60154  Biso   1.000  C
  C57      1.0000 0.55630  0.52100  0.64812  Biso   1.000  C
  H41      1.0000 0.58940  0.56510  0.67910  Biso   1.000  H
  C58      1.0000 0.45700  0.48110  0.65020  Biso   1.000  C
  H42      1.0000 0.42220  0.49810  0.68240  Biso   1.000  H
  C59      1.0000 0.40690  0.41610  0.60580  Biso   1.000  C
  C60      1.0000 0.46090  0.39050  0.56060  Biso   1.000  C
  H43      1.0000 0.42950  0.34420  0.53090  Biso   1.000  H
  C61      1.0000 0.56060  0.43180  0.55834  Biso   1.000  C
  H44      1.0000 0.59590  0.41410  0.52640  Biso   1.000  H
  C62      1.0000 0.29280  0.37880  0.60340  Biso   1.000  C
  H45      1.0000 0.27970  0.32280  0.57700  Biso   1.000  H
  H46      1.0000 0.23560  0.42470  0.58360  Biso   1.000  H
  C63      1.0000 0.20720  0.40130  0.69203  Biso   1.000  C
  H47      1.0000 0.16130  0.44730  0.66780  Biso   1.000  H
  C64      1.0000 0.19730  0.38210  0.75050  Biso   1.000  C
  H48      1.0000 0.14750  0.41730  0.76760  Biso   1.000  H
  C65      1.0000 0.25710  0.31370  0.78546  Biso   1.000  C
  C66      1.0000 0.33030  0.26410  0.75820  Biso   1.000  C
  H49      1.0000 0.37280  0.21470  0.78040  Biso   1.000  H
  C67      1.0000 0.33990  0.28770  0.69910  Biso   1.000  C
  H50      1.0000 0.38950  0.25440  0.68070  Biso   1.000  H
  C68      1.0000 0.24280  0.28540  0.84807  Biso   1.000  C
  C69      1.0000 0.14970  0.31310  0.86836  Biso   1.000  C
  H51      1.0000 0.09780  0.35530  0.84390  Biso   1.000  H
  C70      1.0000 0.13330  0.27920  0.92366  Biso   1.000  C
  H52      1.0000 0.06870  0.29650  0.93670  Biso   1.000  H
  C71      1.0000 0.30210  0.19850  0.94289  Biso   1.000  C
  H53      1.0000 0.35560  0.16020  0.97000  Biso   1.000  H
  C72      1.0000 0.32150  0.22840  0.88872  Biso   1.000  C
  H54      1.0000 0.38820  0.21110  0.87780  Biso   1.000  H
  C73      1.0000 0.18480  0.17660  0.01482  Biso   1.000  C
  H55      1.0000 0.24940  0.18360  0.05190  Biso   1.000  H
  H56      1.0000 0.11850  0.20470  0.02470  Biso   1.000  H
  C74      1.0000 0.16310  0.07470  0.99904  Biso   1.000  C
  C75      1.0000 0.07410  0.04870  0.95026  Biso   1.000  C
  H57      1.0000 0.02350  0.09400  0.92850  Biso   1.000  H
  C76      1.0000 0.05760  0.95920  0.93279  Biso   1.000  C
  H58      1.0000 0.99610  0.94290  0.89870  Biso   1.000  H
  C77      1.0000 0.12920  0.89140  0.96404  Biso   1.000  C
  C78      1.0000 0.22010  0.91600  0.01416  Biso   1.000  C
  H59      1.0000 0.26990  0.87040  0.03610  Biso   1.000  H
  C79      1.0000 0.23670  0.00850  0.03169  Biso   1.000  C
  H60      1.0000 0.29780  0.02590  0.06560  Biso   1.000  H
  C80      1.0000 0.11030  0.79360  0.94443  Biso   1.000  C
  C81      1.0000 0.98820  0.54200  0.47777  Biso   1.000  C
  Dy4      1.0000 0.06649  0.61406  0.89647  Biso   1.000  Dy
  O25      1.0000 0.23620  0.52358  0.94423  Biso   1.000  O
  O26      1.0000 0.23640  0.59936  0.85803  Biso   1.000  O
  O27      1.0000 0.80990  0.73721  0.54730  Biso   1.000  O
  O28      1.0000 0.98840  0.76896  0.58295  Biso   1.000  O
  O29      1.0000 0.02770  0.70302  0.80278  Biso   1.000  O
  O30      1.0000 0.02040  0.52009  0.80284  Biso   1.000  O
  O31      1.0000 0.04220  0.61421  0.00040  Biso   1.000  O
  O32      1.0000 0.99430  0.53296  0.07585  Biso   1.000  O
  N7       1.0000 0.71940  0.35630  0.83239  Biso   1.000  N
  N8       1.0000 0.79190  0.22170  0.54063  Biso   1.000  N
  C82      1.0000 0.28220  0.54280  0.89975  Biso   1.000  C
  C83      1.0000 0.39010  0.49820  0.89846  Biso   1.000  C
  C84      1.0000 0.44370  0.52100  0.85188  Biso   1.000  C
  H61      1.0000 0.41060  0.56510  0.82090  Biso   1.000  H
  C85      1.0000 0.54300  0.48110  0.84980  Biso   1.000  C
  H62      1.0000 0.57780  0.49810  0.81760  Biso   1.000  H
  C86      1.0000 0.59310  0.41610  0.89420  Biso   1.000  C
  C87      1.0000 0.53910  0.39050  0.93940  Biso   1.000  C
  H63      1.0000 0.57050  0.34420  0.96910  Biso   1.000  H
  C88      1.0000 0.43940  0.43180  0.94166  Biso   1.000  C
  H64      1.0000 0.40410  0.41410  0.97360  Biso   1.000  H
  C89      1.0000 0.70720  0.37880  0.89660  Biso   1.000  C
  H65      1.0000 0.72030  0.32280  0.92300  Biso   1.000  H
  H66      1.0000 0.76440  0.42470  0.91640  Biso   1.000  H
  C90      1.0000 0.79280  0.40130  0.80797  Biso   1.000  C
  H67      1.0000 0.83870  0.44730  0.83220  Biso   1.000  H
  C91      1.0000 0.80270  0.38210  0.74950  Biso   1.000  C
  H68      1.0000 0.85250  0.41730  0.73240  Biso   1.000  H
  C92      1.0000 0.74290  0.31370  0.71454  Biso   1.000  C
  C93      1.0000 0.66970  0.26410  0.74180  Biso   1.000  C
  H69      1.0000 0.62720  0.21470  0.71960  Biso   1.000  H
  C94      1.0000 0.66010  0.28770  0.80090  Biso   1.000  C
  H70      1.0000 0.61050  0.25440  0.81930  Biso   1.000  H
  C95      1.0000 0.75720  0.28540  0.65193  Biso   1.000  C
  C96      1.0000 0.85030  0.31310  0.63164  Biso   1.000  C
  H71      1.0000 0.90220  0.35530  0.65610  Biso   1.000  H
  C97      1.0000 0.86670  0.27920  0.57634  Biso   1.000  C
  H72      1.0000 0.93130  0.29650  0.56330  Biso   1.000  H
  C98      1.0000 0.69790  0.19850  0.55711  Biso   1.000  C
  H73      1.0000 0.64440  0.16020  0.53000  Biso   1.000  H
  C99      1.0000 0.67850  0.22840  0.61128  Biso   1.000  C
  H74      1.0000 0.61180  0.21110  0.62220  Biso   1.000  H
  C100     1.0000 0.81520  0.17660  0.48518  Biso   1.000  C
  H75      1.0000 0.75060  0.18360  0.44810  Biso   1.000  H
  H76      1.0000 0.88150  0.20470  0.47530  Biso   1.000  H
  C101     1.0000 0.83690  0.07470  0.50096  Biso   1.000  C
  C102     1.0000 0.92590  0.04870  0.54974  Biso   1.000  C
  H77      1.0000 0.97650  0.09400  0.57150  Biso   1.000  H
  C103     1.0000 0.94240  0.95920  0.56721  Biso   1.000  C
  H78      1.0000 0.00390  0.94290  0.60130  Biso   1.000  H
  C104     1.0000 0.87080  0.89140  0.53596  Biso   1.000  C
  C105     1.0000 0.77990  0.91600  0.48584  Biso   1.000  C
  H79      1.0000 0.73010  0.87040  0.46390  Biso   1.000  H
  C106     1.0000 0.76330  0.00850  0.46831  Biso   1.000  C
  H80      1.0000 0.70220  0.02590  0.43440  Biso   1.000  H
  C107     1.0000 0.88970  0.79360  0.55557  Biso   1.000  C
  C108     1.0000 0.01180  0.54200  0.02223  Biso   1.000  C
  C109     1.0000 0.00000  0.33500  0.25000  Biso   1.000  C
  C110     1.0000 0.00000  0.44140  0.25000  Biso   1.000  C
  C111     1.0000 0.00000  0.66500  0.75000  Biso   1.000  C
  C112     1.0000 0.00000  0.55860  0.75000  Biso   1.000  C
