data_REXDIJ_clean
_audit_creation_date              2014-07-02
_audit_creation_method            'Materials Studio'
_symmetry_space_group_name_H-M    'P1'
_symmetry_Int_Tables_number       1
_symmetry_cell_setting            triclinic
loop_
_symmetry_equiv_pos_as_xyz
  x,y,z
_cell_length_a                    14.9020
_cell_length_b                    19.4175
_cell_length_c                    31.3580
_cell_angle_alpha                 101.7080
_cell_angle_beta                  90.0000
_cell_angle_gamma                 112.5650
loop_
_atom_site_label
_atom_site_type_symbol
_atom_site_fract_x
_atom_site_fract_y
_atom_site_fract_z
_atom_site_U_iso_or_equiv
_atom_site_adp_type
_atom_site_occupancy
Zn1    Zn    0.52955   0.34996   0.28260   0.01267  Uiso   1.00
Zn2    Zn    0.47776   0.75592   0.42971   0.01267  Uiso   1.00
Zn3    Zn    0.95603   0.14584   0.60145   0.01267  Uiso   1.00
Zn4    Zn    0.82041   0.34996   0.78260   0.01267  Uiso   1.00
Zn5    Zn    0.27816   0.75592   0.92971   0.01267  Uiso   1.00
Zn6    Zn    0.18981   0.14584   0.10145   0.01267  Uiso   1.00
H1     H     0.72640   0.47720   0.32590   0.01267  Uiso   1.00
H2     H     0.88990   0.49840   0.32610   0.01267  Uiso   1.00
H3     H     0.82620   0.30040   0.23970   0.01267  Uiso   1.00
H4     H     0.66140   0.27880   0.24410   0.01267  Uiso   1.00
H5     H     0.45560   0.63840   0.34610   0.01267  Uiso   1.00
H6     H     0.33720   0.53720   0.30070   0.01267  Uiso   1.00
H7     H     0.13710   0.60000   0.36560   0.01267  Uiso   1.00
H8     H     0.26220   0.69520   0.41200   0.01267  Uiso   1.00
H9     H     0.02160   0.17140   0.14000   0.01267  Uiso   1.00
H10    H     0.98400   0.25580   0.19430   0.01267  Uiso   1.00
H11    H     0.27280   0.38820   0.21890   0.01267  Uiso   1.00
H12    H     0.30180   0.30160   0.16310   0.01267  Uiso   1.00
H13    H     0.39720   0.85240   0.49530   0.01267  Uiso   1.00
H14    H     0.36140   0.95920   0.50340   0.01267  Uiso   1.00
H15    H     0.41300   0.96160   0.37680   0.01267  Uiso   1.00
H16    H     0.44230   0.85040   0.37210   0.01267  Uiso   1.00
H17    H     0.06740   0.21340   0.53190   0.01267  Uiso   1.00
H18    H     0.19800   0.21240   0.49270   0.01267  Uiso   1.00
H19    H     0.16320   0.01320   0.52420   0.01267  Uiso   1.00
H20    H     0.03820   0.02380   0.56400   0.01267  Uiso   1.00
H21    H     0.49560   0.19520   0.29340   0.01267  Uiso   1.00
H22    H     0.43160   0.11240   0.33890   0.01267  Uiso   1.00
H23    H     0.37770   0.27840   0.41810   0.01267  Uiso   1.00
H24    H     0.43780   0.35660   0.36980   0.01267  Uiso   1.00
H25    H     0.75080   0.47720   0.82590   0.01267  Uiso   1.00
H26    H     0.60850   0.49840   0.82610   0.01267  Uiso   1.00
H27    H     0.47420   0.30040   0.73970   0.01267  Uiso   1.00
H28    H     0.61740   0.27880   0.74410   0.01267  Uiso   1.00
H29    H     0.18280   0.63840   0.84610   0.01267  Uiso   1.00
H30    H     0.20000   0.53720   0.80070   0.01267  Uiso   1.00
H31    H     0.46290   0.60000   0.86560   0.01267  Uiso   1.00
H32    H     0.43300   0.69520   0.91200   0.01267  Uiso   1.00
H33    H     0.14980   0.17140   0.64000   0.01267  Uiso   1.00
H34    H     0.27180   0.25580   0.69430   0.01267  Uiso   1.00
H35    H     0.11540   0.38820   0.71890   0.01267  Uiso   1.00
H36    H     0.99980   0.30160   0.66310   0.01267  Uiso   1.00
H37    H     0.45520   0.85240   0.99530   0.01267  Uiso   1.00
H38    H     0.59780   0.95920   0.00340   0.01267  Uiso   1.00
H39    H     0.54860   0.96160   0.87680   0.01267  Uiso   1.00
H40    H     0.40810   0.85040   0.87210   0.01267  Uiso   1.00
H41    H     0.14600   0.21340   0.03190   0.01267  Uiso   1.00
H42    H     0.01440   0.21240   0.99270   0.01267  Uiso   1.00
H43    H     0.85000   0.01320   0.02420   0.01267  Uiso   1.00
H44    H     0.98560   0.02380   0.06400   0.01267  Uiso   1.00
H45    H     0.69960   0.19520   0.79340   0.01267  Uiso   1.00
H46    H     0.68080   0.11240   0.83890   0.01267  Uiso   1.00
H47    H     0.90070   0.27840   0.91810   0.01267  Uiso   1.00
H48    H     0.91880   0.35660   0.86980   0.01267  Uiso   1.00
C1     C     0.74630   0.44000   0.30900   0.01267  Uiso   1.00
C2     C     0.84370   0.45300   0.30820   0.01267  Uiso   1.00
C3     C     0.87680   0.40300   0.28250   0.01267  Uiso   1.00
C4     C     0.80770   0.33720   0.25810   0.01267  Uiso   1.00
C5     C     0.70920   0.32480   0.26090   0.01267  Uiso   1.00
C6     C     0.98240   0.41960   0.27930   0.01267  Uiso   1.00
C7     C     0.14130   0.49160   0.29860   0.01267  Uiso   1.00
C8     C     0.09710   0.38640   0.24590   0.01267  Uiso   1.00
C9     C     0.38920   0.62860   0.35080   0.01267  Uiso   1.00
C10    C     0.31970   0.56980   0.32290   0.01267  Uiso   1.00
C11    C     0.22180   0.55760   0.32740   0.01267  Uiso   1.00
C12    C     0.20250   0.60600   0.36130   0.01267  Uiso   1.00
C13    C     0.27740   0.66260   0.38880   0.01267  Uiso   1.00
C14    C     0.07290   0.21540   0.15660   0.01267  Uiso   1.00
C15    C     0.05000   0.26680   0.18830   0.01267  Uiso   1.00
C16    C     0.12320   0.33320   0.21090   0.01267  Uiso   1.00
C17    C     0.22010   0.34500   0.20270   0.01267  Uiso   1.00
C18    C     0.23680   0.29180   0.17050   0.01267  Uiso   1.00
C19    C     0.40400   0.87660   0.47140   0.01267  Uiso   1.00
C20    C     0.38040   0.93880   0.47640   0.01267  Uiso   1.00
C21    C     0.38550   0.97000   0.44110   0.01267  Uiso   1.00
C22    C     0.41030   0.93960   0.40150   0.01267  Uiso   1.00
C23    C     0.43090   0.87560   0.39950   0.01267  Uiso   1.00
C24    C     0.35600   0.03660   0.44320   0.01267  Uiso   1.00
C25    C     0.26210   0.10160   0.47180   0.01267  Uiso   1.00
C26    C     0.36190   0.13640   0.41650   0.01267  Uiso   1.00
C27    C     0.08970   0.17360   0.53180   0.01267  Uiso   1.00
C28    C     0.16400   0.17100   0.50620   0.01267  Uiso   1.00
C29    C     0.18860   0.11000   0.50030   0.01267  Uiso   1.00
C30    C     0.14440   0.05480   0.52490   0.01267  Uiso   1.00
C31    C     0.07290   0.06400   0.54990   0.01267  Uiso   1.00
C32    C     0.47340   0.21320   0.32010   0.01267  Uiso   1.00
C33    C     0.43500   0.16340   0.34690   0.01267  Uiso   1.00
C34    C     0.40150   0.18740   0.38490   0.01267  Uiso   1.00
C35    C     0.40340   0.26040   0.39250   0.01267  Uiso   1.00
C36    C     0.44090   0.30760   0.36430   0.01267  Uiso   1.00
C37    C     0.69370   0.44000   0.80900   0.01267  Uiso   1.00
C38    C     0.60930   0.45300   0.80820   0.01267  Uiso   1.00
C39    C     0.52620   0.40300   0.78250   0.01267  Uiso   1.00
C40    C     0.52950   0.33720   0.75810   0.01267  Uiso   1.00
C41    C     0.61560   0.32480   0.76090   0.01267  Uiso   1.00
C42    C     0.43720   0.41960   0.77930   0.01267  Uiso   1.00
C43    C     0.35030   0.49160   0.79860   0.01267  Uiso   1.00
C44    C     0.28930   0.38640   0.74590   0.01267  Uiso   1.00
C45    C     0.23940   0.62860   0.85080   0.01267  Uiso   1.00
C46    C     0.25010   0.56980   0.82290   0.01267  Uiso   1.00
C47    C     0.33580   0.55760   0.82740   0.01267  Uiso   1.00
C48    C     0.40350   0.60600   0.86130   0.01267  Uiso   1.00
C49    C     0.38520   0.66260   0.88880   0.01267  Uiso   1.00
C50    C     0.14250   0.21540   0.65660   0.01267  Uiso   1.00
C51    C     0.21680   0.26680   0.68830   0.01267  Uiso   1.00
C52    C     0.21000   0.33320   0.71090   0.01267  Uiso   1.00
C53    C     0.12490   0.34500   0.70270   0.01267  Uiso   1.00
C54    C     0.05500   0.29180   0.67050   0.01267  Uiso   1.00
C55    C     0.47260   0.87660   0.97140   0.01267  Uiso   1.00
C56    C     0.55840   0.93880   0.97640   0.01267  Uiso   1.00
C57    C     0.58450   0.97000   0.94110   0.01267  Uiso   1.00
C58    C     0.52930   0.93960   0.90150   0.01267  Uiso   1.00
C59    C     0.44470   0.87560   0.89950   0.01267  Uiso   1.00
C60    C     0.68060   0.03660   0.94320   0.01267  Uiso   1.00
C61    C     0.83950   0.10160   0.97180   0.01267  Uiso   1.00
C62    C     0.77450   0.13640   0.91650   0.01267  Uiso   1.00
C63    C     0.08390   0.17360   0.03180   0.01267  Uiso   1.00
C64    C     0.00700   0.17100   0.00620   0.01267  Uiso   1.00
C65    C     0.92140   0.11000   0.00030   0.01267  Uiso   1.00
C66    C     0.91040   0.05480   0.02490   0.01267  Uiso   1.00
C67    C     0.99110   0.06400   0.04990   0.01267  Uiso   1.00
C68    C     0.73980   0.21320   0.82010   0.01267  Uiso   1.00
C69    C     0.72840   0.16340   0.84690   0.01267  Uiso   1.00
C70    C     0.78590   0.18740   0.88490   0.01267  Uiso   1.00
C71    C     0.85700   0.26040   0.89250   0.01267  Uiso   1.00
C72    C     0.86670   0.30760   0.86430   0.01267  Uiso   1.00
I1     I     0.45673   0.26110   0.20823   0.01267  Uiso   1.00
I2     I     0.50646   0.47426   0.30838   0.01267  Uiso   1.00
I3     I     0.45450   0.71066   0.50071   0.01267  Uiso   1.00
I4     I     0.63487   0.79168   0.39246   0.01267  Uiso   1.00
I5     I     0.87357   0.03076   0.63494   0.01267  Uiso   1.00
I6     I     0.86746   0.21110   0.56842   0.01267  Uiso   1.00
I7     I     0.80437   0.26110   0.70823   0.01267  Uiso   1.00
I8     I     0.96780   0.47426   0.80838   0.01267  Uiso   1.00
I9     I     0.25616   0.71066   0.00071   0.01267  Uiso   1.00
I10    I     0.15681   0.79168   0.89246   0.01267  Uiso   1.00
I11    I     0.15719   0.03076   0.13494   0.01267  Uiso   1.00
I12    I     0.34364   0.21110   0.06842   0.01267  Uiso   1.00
N1     N     0.68000   0.37440   0.28590   0.01267  Uiso   1.00
N2     N     0.05030   0.48140   0.30640   0.01267  Uiso   1.00
N3     N     0.16980   0.44720   0.26950   0.01267  Uiso   1.00
N4     N     0.00170   0.36800   0.24960   0.01267  Uiso   1.00
N5     N     0.37020   0.67400   0.38460   0.01267  Uiso   1.00
N6     N     0.16450   0.22680   0.14920   0.01267  Uiso   1.00
N7     N     0.43560   0.84720   0.43550   0.01267  Uiso   1.00
N8     N     0.29610   0.04620   0.47340   0.01267  Uiso   1.00
N9     N     0.29810   0.15000   0.44450   0.01267  Uiso   1.00
N10    N     0.39000   0.07900   0.41400   0.01267  Uiso   1.00
N11    N     0.04710   0.12320   0.55650   0.01267  Uiso   1.00
N12    N     0.48170   0.28560   0.32940   0.01267  Uiso   1.00
N13    N     0.69440   0.37440   0.78590   0.01267  Uiso   1.00
N14    N     0.43110   0.48140   0.80640   0.01267  Uiso   1.00
N15    N     0.27740   0.44720   0.76950   0.01267  Uiso   1.00
N16    N     0.36630   0.36800   0.74960   0.01267  Uiso   1.00
N17    N     0.30380   0.67400   0.88460   0.01267  Uiso   1.00
N18    N     0.06230   0.22680   0.64920   0.01267  Uiso   1.00
N19    N     0.41160   0.84720   0.93550   0.01267  Uiso   1.00
N20    N     0.75010   0.04620   0.97340   0.01267  Uiso   1.00
N21    N     0.85190   0.15000   0.94450   0.01267  Uiso   1.00
N22    N     0.68900   0.07900   0.91400   0.01267  Uiso   1.00
N23    N     0.07610   0.12320   0.05650   0.01267  Uiso   1.00
N24    N     0.80390   0.28560   0.82940   0.01267  Uiso   1.00
Zn7    Zn    0.17959   0.65004   0.21740   0.01267  Uiso   1.00
Zn8    Zn    0.72184   0.24408   0.07029   0.01267  Uiso   1.00
Zn9    Zn    0.81019   0.85416   0.89855   0.01267  Uiso   1.00
Zn10   Zn    0.47045   0.65004   0.71740   0.01267  Uiso   1.00
Zn11   Zn    0.52224   0.24408   0.57029   0.01267  Uiso   1.00
Zn12   Zn    0.04397   0.85416   0.39855   0.01267  Uiso   1.00
H49    H     0.24920   0.52280   0.17410   0.01267  Uiso   1.00
H50    H     0.39150   0.50160   0.17390   0.01267  Uiso   1.00
H51    H     0.52580   0.69960   0.26030   0.01267  Uiso   1.00
H52    H     0.38260   0.72120   0.25590   0.01267  Uiso   1.00
H53    H     0.81720   0.36160   0.15390   0.01267  Uiso   1.00
H54    H     0.80000   0.46280   0.19930   0.01267  Uiso   1.00
H55    H     0.53710   0.40000   0.13440   0.01267  Uiso   1.00
H56    H     0.56700   0.30480   0.08800   0.01267  Uiso   1.00
H57    H     0.85020   0.82860   0.36000   0.01267  Uiso   1.00
H58    H     0.72820   0.74420   0.30570   0.01267  Uiso   1.00
H59    H     0.88460   0.61180   0.28110   0.01267  Uiso   1.00
H60    H     0.00020   0.69840   0.33690   0.01267  Uiso   1.00
H61    H     0.54480   0.14760   0.00470   0.01267  Uiso   1.00
H62    H     0.40220   0.04080   0.99660   0.01267  Uiso   1.00
H63    H     0.45140   0.03840   0.12320   0.01267  Uiso   1.00
H64    H     0.59190   0.14960   0.12790   0.01267  Uiso   1.00
H65    H     0.85400   0.78660   0.96810   0.01267  Uiso   1.00
H66    H     0.98560   0.78760   0.00730   0.01267  Uiso   1.00
H67    H     0.15000   0.98680   0.97580   0.01267  Uiso   1.00
H68    H     0.01440   0.97620   0.93600   0.01267  Uiso   1.00
H69    H     0.30040   0.80480   0.20660   0.01267  Uiso   1.00
H70    H     0.31920   0.88760   0.16110   0.01267  Uiso   1.00
H71    H     0.09930   0.72160   0.08190   0.01267  Uiso   1.00
H72    H     0.08120   0.64340   0.13020   0.01267  Uiso   1.00
H73    H     0.27360   0.52280   0.67410   0.01267  Uiso   1.00
H74    H     0.11010   0.50160   0.67390   0.01267  Uiso   1.00
H75    H     0.17380   0.69960   0.76030   0.01267  Uiso   1.00
H76    H     0.33860   0.72120   0.75590   0.01267  Uiso   1.00
H77    H     0.54440   0.36160   0.65390   0.01267  Uiso   1.00
H78    H     0.66280   0.46280   0.69930   0.01267  Uiso   1.00
H79    H     0.86290   0.40000   0.63440   0.01267  Uiso   1.00
H80    H     0.73780   0.30480   0.58800   0.01267  Uiso   1.00
H81    H     0.97840   0.82860   0.86000   0.01267  Uiso   1.00
H82    H     0.01600   0.74420   0.80570   0.01267  Uiso   1.00
H83    H     0.72720   0.61180   0.78110   0.01267  Uiso   1.00
H84    H     0.69820   0.69840   0.83690   0.01267  Uiso   1.00
H85    H     0.60280   0.14760   0.50470   0.01267  Uiso   1.00
H86    H     0.63860   0.04080   0.49660   0.01267  Uiso   1.00
H87    H     0.58700   0.03840   0.62320   0.01267  Uiso   1.00
H88    H     0.55770   0.14960   0.62790   0.01267  Uiso   1.00
H89    H     0.93260   0.78660   0.46810   0.01267  Uiso   1.00
H90    H     0.80200   0.78760   0.50730   0.01267  Uiso   1.00
H91    H     0.83680   0.98680   0.47580   0.01267  Uiso   1.00
H92    H     0.96180   0.97620   0.43600   0.01267  Uiso   1.00
H93    H     0.50440   0.80480   0.70660   0.01267  Uiso   1.00
H94    H     0.56840   0.88760   0.66110   0.01267  Uiso   1.00
H95    H     0.62230   0.72160   0.58190   0.01267  Uiso   1.00
H96    H     0.56220   0.64340   0.63020   0.01267  Uiso   1.00
C73    C     0.30630   0.56000   0.19100   0.01267  Uiso   1.00
C74    C     0.39070   0.54700   0.19180   0.01267  Uiso   1.00
C75    C     0.47380   0.59700   0.21750   0.01267  Uiso   1.00
C76    C     0.47050   0.66280   0.24190   0.01267  Uiso   1.00
C77    C     0.38440   0.67520   0.23910   0.01267  Uiso   1.00
C78    C     0.56280   0.58040   0.22070   0.01267  Uiso   1.00
C79    C     0.64970   0.50840   0.20140   0.01267  Uiso   1.00
C80    C     0.71070   0.61360   0.25410   0.01267  Uiso   1.00
C81    C     0.76060   0.37140   0.14920   0.01267  Uiso   1.00
C82    C     0.74990   0.43020   0.17710   0.01267  Uiso   1.00
C83    C     0.66420   0.44240   0.17260   0.01267  Uiso   1.00
C84    C     0.59650   0.39400   0.13870   0.01267  Uiso   1.00
C85    C     0.61480   0.33740   0.11120   0.01267  Uiso   1.00
C86    C     0.85750   0.78460   0.34340   0.01267  Uiso   1.00
C87    C     0.78320   0.73320   0.31170   0.01267  Uiso   1.00
C88    C     0.79000   0.66680   0.28910   0.01267  Uiso   1.00
C89    C     0.87510   0.65500   0.29730   0.01267  Uiso   1.00
C90    C     0.94500   0.70820   0.32950   0.01267  Uiso   1.00
C91    C     0.52740   0.12340   0.02860   0.01267  Uiso   1.00
C92    C     0.44160   0.06120   0.02360   0.01267  Uiso   1.00
C93    C     0.41550   0.03000   0.05890   0.01267  Uiso   1.00
C94    C     0.47070   0.06040   0.09850   0.01267  Uiso   1.00
C95    C     0.55530   0.12440   0.10050   0.01267  Uiso   1.00
C96    C     0.31940   0.96340   0.05680   0.01267  Uiso   1.00
C97    C     0.16050   0.89840   0.02820   0.01267  Uiso   1.00
C98    C     0.22550   0.86360   0.08350   0.01267  Uiso   1.00
C99    C     0.91610   0.82640   0.96820   0.01267  Uiso   1.00
C100   C     0.99300   0.82900   0.99380   0.01267  Uiso   1.00
C101   C     0.07860   0.89000   0.99970   0.01267  Uiso   1.00
C102   C     0.08960   0.94520   0.97510   0.01267  Uiso   1.00
C103   C     0.00890   0.93600   0.95010   0.01267  Uiso   1.00
C104   C     0.26020   0.78680   0.17990   0.01267  Uiso   1.00
C105   C     0.27160   0.83660   0.15310   0.01267  Uiso   1.00
C106   C     0.21410   0.81260   0.11510   0.01267  Uiso   1.00
C107   C     0.14300   0.73960   0.10750   0.01267  Uiso   1.00
C108   C     0.13330   0.69240   0.13570   0.01267  Uiso   1.00
C109   C     0.25370   0.56000   0.69100   0.01267  Uiso   1.00
C110   C     0.15630   0.54700   0.69180   0.01267  Uiso   1.00
C111   C     0.12320   0.59700   0.71750   0.01267  Uiso   1.00
C112   C     0.19230   0.66280   0.74190   0.01267  Uiso   1.00
C113   C     0.29080   0.67520   0.73910   0.01267  Uiso   1.00
C114   C     0.01760   0.58040   0.72070   0.01267  Uiso   1.00
C115   C     0.85870   0.50840   0.70140   0.01267  Uiso   1.00
C116   C     0.90290   0.61360   0.75410   0.01267  Uiso   1.00
C117   C     0.61080   0.37140   0.64920   0.01267  Uiso   1.00
C118   C     0.68030   0.43020   0.67710   0.01267  Uiso   1.00
C119   C     0.77820   0.44240   0.67260   0.01267  Uiso   1.00
C120   C     0.79750   0.39400   0.63870   0.01267  Uiso   1.00
C121   C     0.72260   0.33740   0.61120   0.01267  Uiso   1.00
C122   C     0.92710   0.78460   0.84340   0.01267  Uiso   1.00
C123   C     0.95000   0.73320   0.81170   0.01267  Uiso   1.00
C124   C     0.87680   0.66680   0.78910   0.01267  Uiso   1.00
C125   C     0.77990   0.65500   0.79730   0.01267  Uiso   1.00
C126   C     0.76320   0.70820   0.82950   0.01267  Uiso   1.00
C127   C     0.59600   0.12340   0.52860   0.01267  Uiso   1.00
C128   C     0.61960   0.06120   0.52360   0.01267  Uiso   1.00
C129   C     0.61450   0.03000   0.55890   0.01267  Uiso   1.00
C130   C     0.58970   0.06040   0.59850   0.01267  Uiso   1.00
C131   C     0.56910   0.12440   0.60050   0.01267  Uiso   1.00
C132   C     0.64400   0.96340   0.55680   0.01267  Uiso   1.00
C133   C     0.73790   0.89840   0.52820   0.01267  Uiso   1.00
C134   C     0.63810   0.86360   0.58350   0.01267  Uiso   1.00
C135   C     0.91030   0.82640   0.46820   0.01267  Uiso   1.00
C136   C     0.83600   0.82900   0.49380   0.01267  Uiso   1.00
C137   C     0.81140   0.89000   0.49970   0.01267  Uiso   1.00
C138   C     0.85560   0.94520   0.47510   0.01267  Uiso   1.00
C139   C     0.92710   0.93600   0.45010   0.01267  Uiso   1.00
C140   C     0.52660   0.78680   0.67990   0.01267  Uiso   1.00
C141   C     0.56500   0.83660   0.65310   0.01267  Uiso   1.00
C142   C     0.59850   0.81260   0.61510   0.01267  Uiso   1.00
C143   C     0.59660   0.73960   0.60750   0.01267  Uiso   1.00
C144   C     0.55910   0.69240   0.63570   0.01267  Uiso   1.00
I13    I     0.19563   0.73890   0.29177   0.01267  Uiso   1.00
I14    I     0.03220   0.52574   0.19162   0.01267  Uiso   1.00
I15    I     0.74384   0.28934   0.99929   0.01267  Uiso   1.00
I16    I     0.84319   0.20832   0.10754   0.01267  Uiso   1.00
I17    I     0.84281   0.96924   0.86506   0.01267  Uiso   1.00
I18    I     0.65636   0.78890   0.93158   0.01267  Uiso   1.00
I19    I     0.54327   0.73890   0.79177   0.01267  Uiso   1.00
I20    I     0.49354   0.52574   0.69162   0.01267  Uiso   1.00
I21    I     0.54550   0.28934   0.49929   0.01267  Uiso   1.00
I22    I     0.36513   0.20832   0.60754   0.01267  Uiso   1.00
I23    I     0.12643   0.96924   0.36506   0.01267  Uiso   1.00
I24    I     0.13254   0.78890   0.43158   0.01267  Uiso   1.00
N25    N     0.30560   0.62560   0.21410   0.01267  Uiso   1.00
N26    N     0.56890   0.51860   0.19360   0.01267  Uiso   1.00
N27    N     0.72260   0.55280   0.23050   0.01267  Uiso   1.00
N28    N     0.63370   0.63200   0.25040   0.01267  Uiso   1.00
N29    N     0.69620   0.32600   0.11540   0.01267  Uiso   1.00
N30    N     0.93770   0.77320   0.35080   0.01267  Uiso   1.00
N31    N     0.58840   0.15280   0.06450   0.01267  Uiso   1.00
N32    N     0.24990   0.95380   0.02660   0.01267  Uiso   1.00
N33    N     0.14810   0.85000   0.05550   0.01267  Uiso   1.00
N34    N     0.31100   0.92100   0.08600   0.01267  Uiso   1.00
N35    N     0.92390   0.87680   0.94350   0.01267  Uiso   1.00
N36    N     0.19610   0.71440   0.17060   0.01267  Uiso   1.00
N37    N     0.32000   0.62560   0.71410   0.01267  Uiso   1.00
N38    N     0.94970   0.51860   0.69360   0.01267  Uiso   1.00
N39    N     0.83020   0.55280   0.73050   0.01267  Uiso   1.00
N40    N     0.99830   0.63200   0.75040   0.01267  Uiso   1.00
N41    N     0.62980   0.32600   0.61540   0.01267  Uiso   1.00
N42    N     0.83550   0.77320   0.85080   0.01267  Uiso   1.00
N43    N     0.56440   0.15280   0.56450   0.01267  Uiso   1.00
N44    N     0.70390   0.95380   0.52660   0.01267  Uiso   1.00
N45    N     0.70190   0.85000   0.55550   0.01267  Uiso   1.00
N46    N     0.61000   0.92100   0.58600   0.01267  Uiso   1.00
N47    N     0.95290   0.87680   0.44350   0.01267  Uiso   1.00
N48    N     0.51830   0.71440   0.67060   0.01267  Uiso   1.00
