data_image0
_cell_length_a       39.4912
_cell_length_b       23.7984
_cell_length_c       8.9131
_cell_angle_alpha    90
_cell_angle_beta     90
_cell_angle_gamma    90

_symmetry_space_group_name_H-M    "P 1"
_symmetry_int_tables_number       1

loop_
  _symmetry_equiv_pos_as_xyz
  'x, y, z'

loop_
  _atom_site_label
  _atom_site_occupancy
  _atom_site_fract_x
  _atom_site_fract_y
  _atom_site_fract_z
  _atom_site_thermal_displace_type
  _atom_site_B_iso_or_equiv
  _atom_site_type_symbol
  Zn1      1.0000 0.02164  0.66373  0.58594  Biso   1.000  Zn
  Zn2      1.0000 0.90027  0.83276  0.42846  Biso   1.000  Zn
  Zn3      1.0000 0.14428  0.82962  0.41948  Biso   1.000  Zn
  C1       1.0000 0.11932  0.72850  0.57760  Biso   1.000  C
  N1       1.0000 0.97616  0.71070  0.53190  Biso   1.000  N
  N2       1.0000 0.18584  0.88740  0.39260  Biso   1.000  N
  N3       1.0000 0.35708  0.11400  0.10640  Biso   1.000  N
  N4       1.0000 0.96841  0.75650  0.45730  Biso   1.000  N
  N5       1.0000 0.93645  0.77000  0.48960  Biso   1.000  N
  N6       1.0000 0.10747  0.76590  0.47710  Biso   1.000  N
  N7       1.0000 0.06616  0.70820  0.52690  Biso   1.000  N
  N8       1.0000 0.07551  0.75360  0.44740  Biso   1.000  N
  C2       1.0000 0.92452  0.73180  0.58990  Biso   1.000  C
  C3       1.0000 0.09349  0.69150  0.61100  Biso   1.000  C
  C4       1.0000 0.95005  0.69350  0.61630  Biso   1.000  C
  C5       1.0000 0.24460  0.90550  0.41330  Biso   1.000  C
  H1       1.0000 0.26550  0.89500  0.45230  Biso   1.000  H
  C6       1.0000 0.21619  0.87430  0.44440  Biso   1.000  C
  H2       1.0000 0.21840  0.84250  0.50450  Biso   1.000  H
  C7       1.0000 0.20990  0.96660  0.26800  Biso   1.000  C
  H3       1.0000 0.20710  0.99800  0.20710  Biso   1.000  H
  N9       1.0000 0.27226  0.98380  0.29780  Biso   1.000  N
  C8       1.0000 0.24174  0.95240  0.32390  Biso   1.000  C
  C9       1.0000 0.30040  0.04960  0.16990  Biso   1.000  C
  C10      1.0000 0.35490  0.08370  0.23070  Biso   1.000  C
  H4       1.0000 0.37300  0.08500  0.29780  Biso   1.000  H
  C11      1.0000 0.33160  0.11170  0.01380  Biso   1.000  C
  H5       1.0000 0.33280  0.13210  0.92500  Biso   1.000  H
  C12      1.0000 0.32760  0.05070  0.26610  Biso   1.000  C
  H6       1.0000 0.32750  0.02940  0.35360  Biso   1.000  H
  N10      1.0000 0.26983  0.01760  0.19340  Biso   1.000  N
  C13      1.0000 0.30260  0.08040  0.04130  Biso   1.000  C
  H7       1.0000 0.28480  0.08050  0.97270  Biso   1.000  H
  C14      1.0000 0.18270  0.93320  0.30480  Biso   1.000  C
  H8       1.0000 0.16140  0.94250  0.26770  Biso   1.000  H
  O1       1.0000 0.87320  0.78220  0.58410  Biso   1.000  O
  O2       1.0000 0.17185  0.77380  0.55670  Biso   1.000  O
  O3       1.0000 0.06057  0.61520  0.68880  Biso   1.000  O
  C15      1.0000 0.08838  0.64050  0.70550  Biso   1.000  C
  C16      1.0000 0.88904  0.74280  0.64750  Biso   1.000  C
  C17      1.0000 0.15499  0.73710  0.62770  Biso   1.000  C
  O4       1.0000 0.11159  0.62360  0.79210  Biso   1.000  O
  O5       1.0000 0.16681  0.70950  0.73450  Biso   1.000  O
  O6       1.0000 0.98248  0.61650  0.68960  Biso   1.000  O
  O7       1.0000 0.87805  0.71440  0.75390  Biso   1.000  O
  C18      1.0000 0.95465  0.64030  0.70420  Biso   1.000  C
  O8       1.0000 0.93046  0.62280  0.78320  Biso   1.000  O
  N11      1.0000 0.01890  0.61640  0.38620  Biso   1.000  N
  C19      1.0000 0.01604  0.56090  0.39230  Biso   1.000  C
  H9       1.0000 0.01720  0.54390  0.48610  Biso   1.000  H
  C20      1.0000 0.01810  0.64040  0.25060  Biso   1.000  C
  H10      1.0000 0.01980  0.67930  0.24540  Biso   1.000  H
  N12      1.0000 0.13153  0.87560  0.62770  Biso   1.000  N
  C21      1.0000 0.10670  0.91280  0.62990  Biso   1.000  C
  H11      1.0000 0.09360  0.91710  0.54400  Biso   1.000  H
  C22      1.0000 0.15020  0.86980  0.75160  Biso   1.000  C
  H12      1.0000 0.16800  0.84410  0.75070  Biso   1.000  H
  N13      1.0000 0.08426  0.11010  0.38830  Biso   1.000  N
  C23      1.0000 0.01490  0.61110  0.11820  Biso   1.000  C
  H13      1.0000 0.01580  0.62890  0.02540  Biso   1.000  H
  C24      1.0000 0.14430  0.90050  0.88240  Biso   1.000  C
  H14      1.0000 0.15760  0.89530  0.96720  Biso   1.000  H
  C25      1.0000 0.11860  0.93790  0.88240  Biso   1.000  C
  N14      1.0000 0.00810  0.52200  0.99200  Biso   1.000  N
  C26      1.0000 0.09920  0.94570  0.75370  Biso   1.000  C
  H15      1.0000 0.08180  0.97210  0.75100  Biso   1.000  H
  C27      1.0000 0.08660  0.05580  0.40390  Biso   1.000  C
  H16      1.0000 0.08670  0.04180  0.50130  Biso   1.000  H
  C28      1.0000 0.01010  0.55300  0.13120  Biso   1.000  C
  C29      1.0000 0.01140  0.52660  0.26910  Biso   1.000  C
  H17      1.0000 0.00930  0.48780  0.27840  Biso   1.000  H
  C30      1.0000 0.08100  0.12700  0.24920  Biso   1.000  C
  H18      1.0000 0.07770  0.16520  0.23330  Biso   1.000  H
  N15      1.0000 0.09071  0.00350  0.01350  Biso   1.000  N
  N16      1.0000 0.11463  0.97130  0.01730  Biso   1.000  N
  C31      1.0000 0.08790  0.03750  0.14690  Biso   1.000  C
  C32      1.0000 0.08870  0.01740  0.28910  Biso   1.000  C
  H19      1.0000 0.09070  0.97910  0.30840  Biso   1.000  H
  C33      1.0000 0.08200  0.09300  0.12500  Biso   1.000  C
  H20      1.0000 0.07870  0.10750  0.02920  Biso   1.000  H
  Zn4      1.0000 0.47836  0.83627  0.58594  Biso   1.000  Zn
  Zn5      1.0000 0.59973  0.66724  0.42846  Biso   1.000  Zn
  Zn6      1.0000 0.35572  0.67038  0.41948  Biso   1.000  Zn
  C34      1.0000 0.38068  0.77150  0.57760  Biso   1.000  C
  N17      1.0000 0.52384  0.78930  0.53190  Biso   1.000  N
  N18      1.0000 0.31416  0.61260  0.39260  Biso   1.000  N
  N19      1.0000 0.14292  0.38600  0.10640  Biso   1.000  N
  N20      1.0000 0.53159  0.74350  0.45730  Biso   1.000  N
  N21      1.0000 0.56355  0.73000  0.48960  Biso   1.000  N
  N22      1.0000 0.39253  0.73410  0.47710  Biso   1.000  N
  N23      1.0000 0.43384  0.79180  0.52690  Biso   1.000  N
  N24      1.0000 0.42449  0.74640  0.44740  Biso   1.000  N
  C35      1.0000 0.57548  0.76820  0.58990  Biso   1.000  C
  C36      1.0000 0.40651  0.80850  0.61100  Biso   1.000  C
  C37      1.0000 0.54995  0.80650  0.61630  Biso   1.000  C
  C38      1.0000 0.25540  0.59450  0.41330  Biso   1.000  C
  H21      1.0000 0.23450  0.60500  0.45230  Biso   1.000  H
  C39      1.0000 0.28381  0.62570  0.44440  Biso   1.000  C
  H22      1.0000 0.28160  0.65750  0.50450  Biso   1.000  H
  C40      1.0000 0.29010  0.53340  0.26800  Biso   1.000  C
  H23      1.0000 0.29290  0.50200  0.20710  Biso   1.000  H
  N25      1.0000 0.22774  0.51620  0.29780  Biso   1.000  N
  C41      1.0000 0.25826  0.54760  0.32390  Biso   1.000  C
  C42      1.0000 0.19960  0.45040  0.16990  Biso   1.000  C
  C43      1.0000 0.14510  0.41630  0.23070  Biso   1.000  C
  H24      1.0000 0.12700  0.41500  0.29780  Biso   1.000  H
  C44      1.0000 0.16840  0.38830  0.01380  Biso   1.000  C
  H25      1.0000 0.16720  0.36790  0.92500  Biso   1.000  H
  C45      1.0000 0.17240  0.44930  0.26610  Biso   1.000  C
  H26      1.0000 0.17250  0.47060  0.35360  Biso   1.000  H
  N26      1.0000 0.23017  0.48240  0.19340  Biso   1.000  N
  C46      1.0000 0.19740  0.41960  0.04130  Biso   1.000  C
  H27      1.0000 0.21520  0.41950  0.97270  Biso   1.000  H
  C47      1.0000 0.31730  0.56680  0.30480  Biso   1.000  C
  H28      1.0000 0.33860  0.55750  0.26770  Biso   1.000  H
  O9       1.0000 0.62680  0.71780  0.58410  Biso   1.000  O
  O10      1.0000 0.32815  0.72620  0.55670  Biso   1.000  O
  O11      1.0000 0.43943  0.88480  0.68880  Biso   1.000  O
  C48      1.0000 0.41162  0.85950  0.70550  Biso   1.000  C
  C49      1.0000 0.61096  0.75720  0.64750  Biso   1.000  C
  C50      1.0000 0.34501  0.76290  0.62770  Biso   1.000  C
  O12      1.0000 0.38841  0.87640  0.79210  Biso   1.000  O
  O13      1.0000 0.33319  0.79050  0.73450  Biso   1.000  O
  O14      1.0000 0.51752  0.88350  0.68960  Biso   1.000  O
  O15      1.0000 0.62195  0.78560  0.75390  Biso   1.000  O
  C51      1.0000 0.54535  0.85970  0.70420  Biso   1.000  C
  O16      1.0000 0.56954  0.87720  0.78320  Biso   1.000  O
  N27      1.0000 0.48110  0.88360  0.38620  Biso   1.000  N
  C52      1.0000 0.48396  0.93910  0.39230  Biso   1.000  C
  H29      1.0000 0.48280  0.95610  0.48610  Biso   1.000  H
  C53      1.0000 0.48190  0.85960  0.25060  Biso   1.000  C
  H30      1.0000 0.48020  0.82070  0.24540  Biso   1.000  H
  N28      1.0000 0.36847  0.62440  0.62770  Biso   1.000  N
  C54      1.0000 0.39330  0.58720  0.62990  Biso   1.000  C
  H31      1.0000 0.40640  0.58290  0.54400  Biso   1.000  H
  C55      1.0000 0.34980  0.63020  0.75160  Biso   1.000  C
  H32      1.0000 0.33200  0.65590  0.75070  Biso   1.000  H
  N29      1.0000 0.41574  0.38990  0.38830  Biso   1.000  N
  C56      1.0000 0.48510  0.88890  0.11820  Biso   1.000  C
  H33      1.0000 0.48420  0.87110  0.02540  Biso   1.000  H
  C57      1.0000 0.35570  0.59950  0.88240  Biso   1.000  C
  H34      1.0000 0.34240  0.60470  0.96720  Biso   1.000  H
  C58      1.0000 0.38140  0.56210  0.88240  Biso   1.000  C
  N30      1.0000 0.49190  0.97800  0.99200  Biso   1.000  N
  C59      1.0000 0.40080  0.55430  0.75370  Biso   1.000  C
  H35      1.0000 0.41820  0.52790  0.75100  Biso   1.000  H
  C60      1.0000 0.41340  0.44420  0.40390  Biso   1.000  C
  H36      1.0000 0.41330  0.45820  0.50130  Biso   1.000  H
  C61      1.0000 0.48990  0.94700  0.13120  Biso   1.000  C
  C62      1.0000 0.48860  0.97340  0.26910  Biso   1.000  C
  H37      1.0000 0.49070  0.01220  0.27840  Biso   1.000  H
  C63      1.0000 0.41900  0.37300  0.24920  Biso   1.000  C
  H38      1.0000 0.42230  0.33480  0.23330  Biso   1.000  H
  N31      1.0000 0.40929  0.49650  0.01350  Biso   1.000  N
  N32      1.0000 0.38537  0.52870  0.01730  Biso   1.000  N
  C64      1.0000 0.41210  0.46250  0.14690  Biso   1.000  C
  C65      1.0000 0.41130  0.48260  0.28910  Biso   1.000  C
  H39      1.0000 0.40930  0.52090  0.30840  Biso   1.000  H
  C66      1.0000 0.41800  0.40700  0.12500  Biso   1.000  C
  H40      1.0000 0.42130  0.39250  0.02920  Biso   1.000  H
  Zn7      1.0000 0.97836  0.16373  0.91406  Biso   1.000  Zn
  Zn8      1.0000 0.09973  0.33276  0.07154  Biso   1.000  Zn
  Zn9      1.0000 0.85572  0.32962  0.08052  Biso   1.000  Zn
  C67      1.0000 0.88068  0.22850  0.92240  Biso   1.000  C
  N33      1.0000 0.02384  0.21070  0.96810  Biso   1.000  N
  N34      1.0000 0.81416  0.38740  0.10740  Biso   1.000  N
  N35      1.0000 0.64292  0.61400  0.39360  Biso   1.000  N
  N36      1.0000 0.03159  0.25650  0.04270  Biso   1.000  N
  N37      1.0000 0.06355  0.27000  0.01040  Biso   1.000  N
  N38      1.0000 0.89253  0.26590  0.02290  Biso   1.000  N
  N39      1.0000 0.93384  0.20820  0.97310  Biso   1.000  N
  N40      1.0000 0.92449  0.25360  0.05260  Biso   1.000  N
  C68      1.0000 0.07548  0.23180  0.91010  Biso   1.000  C
  C69      1.0000 0.90651  0.19150  0.88900  Biso   1.000  C
  C70      1.0000 0.04995  0.19350  0.88370  Biso   1.000  C
  C71      1.0000 0.75540  0.40550  0.08670  Biso   1.000  C
  H41      1.0000 0.73450  0.39500  0.04770  Biso   1.000  H
  C72      1.0000 0.78381  0.37430  0.05560  Biso   1.000  C
  H42      1.0000 0.78160  0.34250  0.99550  Biso   1.000  H
  C73      1.0000 0.79010  0.46660  0.23200  Biso   1.000  C
  H43      1.0000 0.79290  0.49800  0.29290  Biso   1.000  H
  N41      1.0000 0.72774  0.48380  0.20220  Biso   1.000  N
  C74      1.0000 0.75826  0.45240  0.17610  Biso   1.000  C
  C75      1.0000 0.69960  0.54960  0.33010  Biso   1.000  C
  C76      1.0000 0.64510  0.58370  0.26930  Biso   1.000  C
  H44      1.0000 0.62700  0.58500  0.20220  Biso   1.000  H
  C77      1.0000 0.66840  0.61170  0.48620  Biso   1.000  C
  H45      1.0000 0.66720  0.63210  0.57500  Biso   1.000  H
  C78      1.0000 0.67240  0.55070  0.23390  Biso   1.000  C
  H46      1.0000 0.67250  0.52940  0.14640  Biso   1.000  H
  N42      1.0000 0.73017  0.51760  0.30660  Biso   1.000  N
  C79      1.0000 0.69740  0.58040  0.45870  Biso   1.000  C
  H47      1.0000 0.71520  0.58050  0.52730  Biso   1.000  H
  C80      1.0000 0.81730  0.43320  0.19520  Biso   1.000  C
  H48      1.0000 0.83860  0.44250  0.23230  Biso   1.000  H
  O17      1.0000 0.12680  0.28220  0.91590  Biso   1.000  O
  O18      1.0000 0.82815  0.27380  0.94330  Biso   1.000  O
  O19      1.0000 0.93943  0.11520  0.81120  Biso   1.000  O
  C81      1.0000 0.91162  0.14050  0.79450  Biso   1.000  C
  C82      1.0000 0.11096  0.24280  0.85250  Biso   1.000  C
  C83      1.0000 0.84501  0.23710  0.87230  Biso   1.000  C
  O20      1.0000 0.88841  0.12360  0.70790  Biso   1.000  O
  O21      1.0000 0.83319  0.20950  0.76550  Biso   1.000  O
  O22      1.0000 0.01752  0.11650  0.81040  Biso   1.000  O
  O23      1.0000 0.12195  0.21440  0.74610  Biso   1.000  O
  C84      1.0000 0.04535  0.14030  0.79580  Biso   1.000  C
  O24      1.0000 0.06954  0.12280  0.71680  Biso   1.000  O
  N43      1.0000 0.98110  0.11640  0.11380  Biso   1.000  N
  C85      1.0000 0.98396  0.06090  0.10770  Biso   1.000  C
  H49      1.0000 0.98280  0.04390  0.01390  Biso   1.000  H
  C86      1.0000 0.98190  0.14040  0.24940  Biso   1.000  C
  H50      1.0000 0.98020  0.17930  0.25460  Biso   1.000  H
  N44      1.0000 0.86847  0.37560  0.87230  Biso   1.000  N
  C87      1.0000 0.89330  0.41280  0.87010  Biso   1.000  C
  H51      1.0000 0.90640  0.41710  0.95600  Biso   1.000  H
  C88      1.0000 0.84980  0.36980  0.74840  Biso   1.000  C
  H52      1.0000 0.83200  0.34410  0.74930  Biso   1.000  H
  N45      1.0000 0.91574  0.61010  0.11170  Biso   1.000  N
  C89      1.0000 0.98510  0.11110  0.38180  Biso   1.000  C
  H53      1.0000 0.98420  0.12890  0.47460  Biso   1.000  H
  C90      1.0000 0.85570  0.40050  0.61760  Biso   1.000  C
  H54      1.0000 0.84240  0.39530  0.53280  Biso   1.000  H
  C91      1.0000 0.88140  0.43790  0.61760  Biso   1.000  C
  N46      1.0000 0.99190  0.02200  0.50800  Biso   1.000  N
  C92      1.0000 0.90080  0.44570  0.74630  Biso   1.000  C
  H55      1.0000 0.91820  0.47210  0.74900  Biso   1.000  H
  C93      1.0000 0.91340  0.55580  0.09610  Biso   1.000  C
  H56      1.0000 0.91330  0.54180  0.99870  Biso   1.000  H
  C94      1.0000 0.98990  0.05300  0.36880  Biso   1.000  C
  C95      1.0000 0.98860  0.02660  0.23090  Biso   1.000  C
  H57      1.0000 0.99070  0.98780  0.22160  Biso   1.000  H
  C96      1.0000 0.91900  0.62700  0.25080  Biso   1.000  C
  H58      1.0000 0.92230  0.66520  0.26670  Biso   1.000  H
  N47      1.0000 0.90929  0.50350  0.48650  Biso   1.000  N
  N48      1.0000 0.88537  0.47130  0.48270  Biso   1.000  N
  C97      1.0000 0.91210  0.53750  0.35310  Biso   1.000  C
  C98      1.0000 0.91130  0.51740  0.21090  Biso   1.000  C
  H59      1.0000 0.90930  0.47910  0.19160  Biso   1.000  H
  C99      1.0000 0.91800  0.59300  0.37500  Biso   1.000  C
  H60      1.0000 0.92130  0.60750  0.47080  Biso   1.000  H
  Zn10     1.0000 0.52164  0.33627  0.91406  Biso   1.000  Zn
  Zn11     1.0000 0.40027  0.16724  0.07154  Biso   1.000  Zn
  Zn12     1.0000 0.64428  0.17038  0.08052  Biso   1.000  Zn
  C100     1.0000 0.61932  0.27150  0.92240  Biso   1.000  C
  N49      1.0000 0.47616  0.28930  0.96810  Biso   1.000  N
  N50      1.0000 0.68584  0.11260  0.10740  Biso   1.000  N
  N51      1.0000 0.85708  0.88600  0.39360  Biso   1.000  N
  N52      1.0000 0.46841  0.24350  0.04270  Biso   1.000  N
  N53      1.0000 0.43645  0.23000  0.01040  Biso   1.000  N
  N54      1.0000 0.60747  0.23410  0.02290  Biso   1.000  N
  N55      1.0000 0.56616  0.29180  0.97310  Biso   1.000  N
  N56      1.0000 0.57551  0.24640  0.05260  Biso   1.000  N
  C101     1.0000 0.42452  0.26820  0.91010  Biso   1.000  C
  C102     1.0000 0.59349  0.30850  0.88900  Biso   1.000  C
  C103     1.0000 0.45005  0.30650  0.88370  Biso   1.000  C
  C104     1.0000 0.74460  0.09450  0.08670  Biso   1.000  C
  H61      1.0000 0.76550  0.10500  0.04770  Biso   1.000  H
  C105     1.0000 0.71619  0.12570  0.05560  Biso   1.000  C
  H62      1.0000 0.71840  0.15750  0.99550  Biso   1.000  H
  C106     1.0000 0.70990  0.03340  0.23200  Biso   1.000  C
  H63      1.0000 0.70710  0.00200  0.29290  Biso   1.000  H
  N57      1.0000 0.77226  0.01620  0.20220  Biso   1.000  N
  C107     1.0000 0.74174  0.04760  0.17610  Biso   1.000  C
  C108     1.0000 0.80040  0.95040  0.33010  Biso   1.000  C
  C109     1.0000 0.85490  0.91630  0.26930  Biso   1.000  C
  H64      1.0000 0.87300  0.91500  0.20220  Biso   1.000  H
  C110     1.0000 0.83160  0.88830  0.48620  Biso   1.000  C
  H65      1.0000 0.83280  0.86790  0.57500  Biso   1.000  H
  C111     1.0000 0.82760  0.94930  0.23390  Biso   1.000  C
  H66      1.0000 0.82750  0.97060  0.14640  Biso   1.000  H
  N58      1.0000 0.76983  0.98240  0.30660  Biso   1.000  N
  C112     1.0000 0.80260  0.91960  0.45870  Biso   1.000  C
  H67      1.0000 0.78480  0.91950  0.52730  Biso   1.000  H
  C113     1.0000 0.68270  0.06680  0.19520  Biso   1.000  C
  H68      1.0000 0.66140  0.05750  0.23230  Biso   1.000  H
  O25      1.0000 0.37320  0.21780  0.91590  Biso   1.000  O
  O26      1.0000 0.67185  0.22620  0.94330  Biso   1.000  O
  O27      1.0000 0.56057  0.38480  0.81120  Biso   1.000  O
  C114     1.0000 0.58838  0.35950  0.79450  Biso   1.000  C
  C115     1.0000 0.38904  0.25720  0.85250  Biso   1.000  C
  C116     1.0000 0.65499  0.26290  0.87230  Biso   1.000  C
  O28      1.0000 0.61159  0.37640  0.70790  Biso   1.000  O
  O29      1.0000 0.66681  0.29050  0.76550  Biso   1.000  O
  O30      1.0000 0.48248  0.38350  0.81040  Biso   1.000  O
  O31      1.0000 0.37805  0.28560  0.74610  Biso   1.000  O
  C117     1.0000 0.45465  0.35970  0.79580  Biso   1.000  C
  O32      1.0000 0.43046  0.37720  0.71680  Biso   1.000  O
  N59      1.0000 0.51890  0.38360  0.11380  Biso   1.000  N
  C118     1.0000 0.51604  0.43910  0.10770  Biso   1.000  C
  H69      1.0000 0.51720  0.45610  0.01390  Biso   1.000  H
  C119     1.0000 0.51810  0.35960  0.24940  Biso   1.000  C
  H70      1.0000 0.51980  0.32070  0.25460  Biso   1.000  H
  N60      1.0000 0.63153  0.12440  0.87230  Biso   1.000  N
  C120     1.0000 0.60670  0.08720  0.87010  Biso   1.000  C
  H71      1.0000 0.59360  0.08290  0.95600  Biso   1.000  H
  C121     1.0000 0.65020  0.13020  0.74840  Biso   1.000  C
  H72      1.0000 0.66800  0.15590  0.74930  Biso   1.000  H
  N61      1.0000 0.58426  0.88990  0.11170  Biso   1.000  N
  C122     1.0000 0.51490  0.38890  0.38180  Biso   1.000  C
  H73      1.0000 0.51580  0.37110  0.47460  Biso   1.000  H
  C123     1.0000 0.64430  0.09950  0.61760  Biso   1.000  C
  H74      1.0000 0.65760  0.10470  0.53280  Biso   1.000  H
  C124     1.0000 0.61860  0.06210  0.61760  Biso   1.000  C
  N62      1.0000 0.50810  0.47800  0.50800  Biso   1.000  N
  C125     1.0000 0.59920  0.05430  0.74630  Biso   1.000  C
  H75      1.0000 0.58180  0.02790  0.74900  Biso   1.000  H
  C126     1.0000 0.58660  0.94420  0.09610  Biso   1.000  C
  H76      1.0000 0.58670  0.95820  0.99870  Biso   1.000  H
  C127     1.0000 0.51010  0.44700  0.36880  Biso   1.000  C
  C128     1.0000 0.51140  0.47340  0.23090  Biso   1.000  C
  H77      1.0000 0.50930  0.51220  0.22160  Biso   1.000  H
  C129     1.0000 0.58100  0.87300  0.25080  Biso   1.000  C
  H78      1.0000 0.57770  0.83480  0.26670  Biso   1.000  H
  N63      1.0000 0.59071  0.99650  0.48650  Biso   1.000  N
  N64      1.0000 0.61463  0.02870  0.48270  Biso   1.000  N
  C130     1.0000 0.58790  0.96250  0.35310  Biso   1.000  C
  C131     1.0000 0.58870  0.98260  0.21090  Biso   1.000  C
  H79      1.0000 0.59070  0.02090  0.19160  Biso   1.000  H
  C132     1.0000 0.58200  0.90700  0.37500  Biso   1.000  C
  H80      1.0000 0.57870  0.89250  0.47080  Biso   1.000  H
  Zn13     1.0000 0.97836  0.33627  0.41406  Biso   1.000  Zn
  Zn14     1.0000 0.09973  0.16724  0.57154  Biso   1.000  Zn
  Zn15     1.0000 0.85572  0.17038  0.58052  Biso   1.000  Zn
  C133     1.0000 0.88068  0.27150  0.42240  Biso   1.000  C
  N65      1.0000 0.02384  0.28930  0.46810  Biso   1.000  N
  N66      1.0000 0.81416  0.11260  0.60740  Biso   1.000  N
  N67      1.0000 0.64292  0.88600  0.89360  Biso   1.000  N
  N68      1.0000 0.03159  0.24350  0.54270  Biso   1.000  N
  N69      1.0000 0.06355  0.23000  0.51040  Biso   1.000  N
  N70      1.0000 0.89253  0.23410  0.52290  Biso   1.000  N
  N71      1.0000 0.93384  0.29180  0.47310  Biso   1.000  N
  N72      1.0000 0.92449  0.24640  0.55260  Biso   1.000  N
  C134     1.0000 0.07548  0.26820  0.41010  Biso   1.000  C
  C135     1.0000 0.90651  0.30850  0.38900  Biso   1.000  C
  C136     1.0000 0.04995  0.30650  0.38370  Biso   1.000  C
  C137     1.0000 0.75540  0.09450  0.58670  Biso   1.000  C
  H81      1.0000 0.73450  0.10500  0.54770  Biso   1.000  H
  C138     1.0000 0.78381  0.12570  0.55560  Biso   1.000  C
  H82      1.0000 0.78160  0.15750  0.49550  Biso   1.000  H
  C139     1.0000 0.79010  0.03340  0.73200  Biso   1.000  C
  H83      1.0000 0.79290  0.00200  0.79290  Biso   1.000  H
  N73      1.0000 0.72774  0.01620  0.70220  Biso   1.000  N
  C140     1.0000 0.75826  0.04760  0.67610  Biso   1.000  C
  C141     1.0000 0.69960  0.95040  0.83010  Biso   1.000  C
  C142     1.0000 0.64510  0.91630  0.76930  Biso   1.000  C
  H84      1.0000 0.62700  0.91500  0.70220  Biso   1.000  H
  C143     1.0000 0.66840  0.88830  0.98620  Biso   1.000  C
  H85      1.0000 0.66720  0.86790  0.07500  Biso   1.000  H
  C144     1.0000 0.67240  0.94930  0.73390  Biso   1.000  C
  H86      1.0000 0.67250  0.97060  0.64640  Biso   1.000  H
  N74      1.0000 0.73017  0.98240  0.80660  Biso   1.000  N
  C145     1.0000 0.69740  0.91960  0.95870  Biso   1.000  C
  H87      1.0000 0.71520  0.91950  0.02730  Biso   1.000  H
  C146     1.0000 0.81730  0.06680  0.69520  Biso   1.000  C
  H88      1.0000 0.83860  0.05750  0.73230  Biso   1.000  H
  O33      1.0000 0.12680  0.21780  0.41590  Biso   1.000  O
  O34      1.0000 0.82815  0.22620  0.44330  Biso   1.000  O
  O35      1.0000 0.93943  0.38480  0.31120  Biso   1.000  O
  C147     1.0000 0.91162  0.35950  0.29450  Biso   1.000  C
  C148     1.0000 0.11096  0.25720  0.35250  Biso   1.000  C
  C149     1.0000 0.84501  0.26290  0.37230  Biso   1.000  C
  O36      1.0000 0.88841  0.37640  0.20790  Biso   1.000  O
  O37      1.0000 0.83319  0.29050  0.26550  Biso   1.000  O
  O38      1.0000 0.01752  0.38350  0.31040  Biso   1.000  O
  O39      1.0000 0.12195  0.28560  0.24610  Biso   1.000  O
  C150     1.0000 0.04535  0.35970  0.29580  Biso   1.000  C
  O40      1.0000 0.06954  0.37720  0.21680  Biso   1.000  O
  N75      1.0000 0.98110  0.38360  0.61380  Biso   1.000  N
  C151     1.0000 0.98396  0.43910  0.60770  Biso   1.000  C
  H89      1.0000 0.98280  0.45610  0.51390  Biso   1.000  H
  C152     1.0000 0.98190  0.35960  0.74940  Biso   1.000  C
  H90      1.0000 0.98020  0.32070  0.75460  Biso   1.000  H
  N76      1.0000 0.86847  0.12440  0.37230  Biso   1.000  N
  C153     1.0000 0.89330  0.08720  0.37010  Biso   1.000  C
  H91      1.0000 0.90640  0.08290  0.45600  Biso   1.000  H
  C154     1.0000 0.84980  0.13020  0.24840  Biso   1.000  C
  H92      1.0000 0.83200  0.15590  0.24930  Biso   1.000  H
  N77      1.0000 0.91574  0.88990  0.61170  Biso   1.000  N
  C155     1.0000 0.98510  0.38890  0.88180  Biso   1.000  C
  H93      1.0000 0.98420  0.37110  0.97460  Biso   1.000  H
  C156     1.0000 0.85570  0.09950  0.11760  Biso   1.000  C
  H94      1.0000 0.84240  0.10470  0.03280  Biso   1.000  H
  C157     1.0000 0.88140  0.06210  0.11760  Biso   1.000  C
  N78      1.0000 0.99190  0.47800  0.00800  Biso   1.000  N
  C158     1.0000 0.90080  0.05430  0.24630  Biso   1.000  C
  H95      1.0000 0.91820  0.02790  0.24900  Biso   1.000  H
  C159     1.0000 0.91340  0.94420  0.59610  Biso   1.000  C
  H96      1.0000 0.91330  0.95820  0.49870  Biso   1.000  H
  C160     1.0000 0.98990  0.44700  0.86880  Biso   1.000  C
  C161     1.0000 0.98860  0.47340  0.73090  Biso   1.000  C
  H97      1.0000 0.99070  0.51220  0.72160  Biso   1.000  H
  C162     1.0000 0.91900  0.87300  0.75080  Biso   1.000  C
  H98      1.0000 0.92230  0.83480  0.76670  Biso   1.000  H
  N79      1.0000 0.90929  0.99650  0.98650  Biso   1.000  N
  N80      1.0000 0.88537  0.02870  0.98270  Biso   1.000  N
  C163     1.0000 0.91210  0.96250  0.85310  Biso   1.000  C
  C164     1.0000 0.91130  0.98260  0.71090  Biso   1.000  C
  H99      1.0000 0.90930  0.02090  0.69160  Biso   1.000  H
  C165     1.0000 0.91800  0.90700  0.87500  Biso   1.000  C
  H100     1.0000 0.92130  0.89250  0.97080  Biso   1.000  H
  Zn16     1.0000 0.52164  0.16373  0.41406  Biso   1.000  Zn
  Zn17     1.0000 0.40027  0.33276  0.57154  Biso   1.000  Zn
  Zn18     1.0000 0.64428  0.32962  0.58052  Biso   1.000  Zn
  C166     1.0000 0.61932  0.22850  0.42240  Biso   1.000  C
  N81      1.0000 0.47616  0.21070  0.46810  Biso   1.000  N
  N82      1.0000 0.68584  0.38740  0.60740  Biso   1.000  N
  N83      1.0000 0.85708  0.61400  0.89360  Biso   1.000  N
  N84      1.0000 0.46841  0.25650  0.54270  Biso   1.000  N
  N85      1.0000 0.43645  0.27000  0.51040  Biso   1.000  N
  N86      1.0000 0.60747  0.26590  0.52290  Biso   1.000  N
  N87      1.0000 0.56616  0.20820  0.47310  Biso   1.000  N
  N88      1.0000 0.57551  0.25360  0.55260  Biso   1.000  N
  C167     1.0000 0.42452  0.23180  0.41010  Biso   1.000  C
  C168     1.0000 0.59349  0.19150  0.38900  Biso   1.000  C
  C169     1.0000 0.45005  0.19350  0.38370  Biso   1.000  C
  C170     1.0000 0.74460  0.40550  0.58670  Biso   1.000  C
  H101     1.0000 0.76550  0.39500  0.54770  Biso   1.000  H
  C171     1.0000 0.71619  0.37430  0.55560  Biso   1.000  C
  H102     1.0000 0.71840  0.34250  0.49550  Biso   1.000  H
  C172     1.0000 0.70990  0.46660  0.73200  Biso   1.000  C
  H103     1.0000 0.70710  0.49800  0.79290  Biso   1.000  H
  N89      1.0000 0.77226  0.48380  0.70220  Biso   1.000  N
  C173     1.0000 0.74174  0.45240  0.67610  Biso   1.000  C
  C174     1.0000 0.80040  0.54960  0.83010  Biso   1.000  C
  C175     1.0000 0.85490  0.58370  0.76930  Biso   1.000  C
  H104     1.0000 0.87300  0.58500  0.70220  Biso   1.000  H
  C176     1.0000 0.83160  0.61170  0.98620  Biso   1.000  C
  H105     1.0000 0.83280  0.63210  0.07500  Biso   1.000  H
  C177     1.0000 0.82760  0.55070  0.73390  Biso   1.000  C
  H106     1.0000 0.82750  0.52940  0.64640  Biso   1.000  H
  N90      1.0000 0.76983  0.51760  0.80660  Biso   1.000  N
  C178     1.0000 0.80260  0.58040  0.95870  Biso   1.000  C
  H107     1.0000 0.78480  0.58050  0.02730  Biso   1.000  H
  C179     1.0000 0.68270  0.43320  0.69520  Biso   1.000  C
  H108     1.0000 0.66140  0.44250  0.73230  Biso   1.000  H
  O41      1.0000 0.37320  0.28220  0.41590  Biso   1.000  O
  O42      1.0000 0.67185  0.27380  0.44330  Biso   1.000  O
  O43      1.0000 0.56057  0.11520  0.31120  Biso   1.000  O
  C180     1.0000 0.58838  0.14050  0.29450  Biso   1.000  C
  C181     1.0000 0.38904  0.24280  0.35250  Biso   1.000  C
  C182     1.0000 0.65499  0.23710  0.37230  Biso   1.000  C
  O44      1.0000 0.61159  0.12360  0.20790  Biso   1.000  O
  O45      1.0000 0.66681  0.20950  0.26550  Biso   1.000  O
  O46      1.0000 0.48248  0.11650  0.31040  Biso   1.000  O
  O47      1.0000 0.37805  0.21440  0.24610  Biso   1.000  O
  C183     1.0000 0.45465  0.14030  0.29580  Biso   1.000  C
  O48      1.0000 0.43046  0.12280  0.21680  Biso   1.000  O
  N91      1.0000 0.51890  0.11640  0.61380  Biso   1.000  N
  C184     1.0000 0.51604  0.06090  0.60770  Biso   1.000  C
  H109     1.0000 0.51720  0.04390  0.51390  Biso   1.000  H
  C185     1.0000 0.51810  0.14040  0.74940  Biso   1.000  C
  H110     1.0000 0.51980  0.17930  0.75460  Biso   1.000  H
  N92      1.0000 0.63153  0.37560  0.37230  Biso   1.000  N
  C186     1.0000 0.60670  0.41280  0.37010  Biso   1.000  C
  H111     1.0000 0.59360  0.41710  0.45600  Biso   1.000  H
  C187     1.0000 0.65020  0.36980  0.24840  Biso   1.000  C
  H112     1.0000 0.66800  0.34410  0.24930  Biso   1.000  H
  N93      1.0000 0.58426  0.61010  0.61170  Biso   1.000  N
  C188     1.0000 0.51490  0.11110  0.88180  Biso   1.000  C
  H113     1.0000 0.51580  0.12890  0.97460  Biso   1.000  H
  C189     1.0000 0.64430  0.40050  0.11760  Biso   1.000  C
  H114     1.0000 0.65760  0.39530  0.03280  Biso   1.000  H
  C190     1.0000 0.61860  0.43790  0.11760  Biso   1.000  C
  N94      1.0000 0.50810  0.02200  0.00800  Biso   1.000  N
  C191     1.0000 0.59920  0.44570  0.24630  Biso   1.000  C
  H115     1.0000 0.58180  0.47210  0.24900  Biso   1.000  H
  C192     1.0000 0.58660  0.55580  0.59610  Biso   1.000  C
  H116     1.0000 0.58670  0.54180  0.49870  Biso   1.000  H
  C193     1.0000 0.51010  0.05300  0.86880  Biso   1.000  C
  C194     1.0000 0.51140  0.02660  0.73090  Biso   1.000  C
  H117     1.0000 0.50930  0.98780  0.72160  Biso   1.000  H
  C195     1.0000 0.58100  0.62700  0.75080  Biso   1.000  C
  H118     1.0000 0.57770  0.66520  0.76670  Biso   1.000  H
  N95      1.0000 0.59071  0.50350  0.98650  Biso   1.000  N
  N96      1.0000 0.61463  0.47130  0.98270  Biso   1.000  N
  C196     1.0000 0.58790  0.53750  0.85310  Biso   1.000  C
  C197     1.0000 0.58870  0.51740  0.71090  Biso   1.000  C
  H119     1.0000 0.59070  0.47910  0.69160  Biso   1.000  H
  C198     1.0000 0.58200  0.59300  0.87500  Biso   1.000  C
  H120     1.0000 0.57870  0.60750  0.97080  Biso   1.000  H
  Zn19     1.0000 0.02164  0.83627  0.08594  Biso   1.000  Zn
  Zn20     1.0000 0.90027  0.66724  0.92846  Biso   1.000  Zn
  Zn21     1.0000 0.14428  0.67038  0.91948  Biso   1.000  Zn
  C199     1.0000 0.11932  0.77150  0.07760  Biso   1.000  C
  N97      1.0000 0.97616  0.78930  0.03190  Biso   1.000  N
  N98      1.0000 0.18584  0.61260  0.89260  Biso   1.000  N
  N99      1.0000 0.35708  0.38600  0.60640  Biso   1.000  N
  N100     1.0000 0.96841  0.74350  0.95730  Biso   1.000  N
  N101     1.0000 0.93645  0.73000  0.98960  Biso   1.000  N
  N102     1.0000 0.10747  0.73410  0.97710  Biso   1.000  N
  N103     1.0000 0.06616  0.79180  0.02690  Biso   1.000  N
  N104     1.0000 0.07551  0.74640  0.94740  Biso   1.000  N
  C200     1.0000 0.92452  0.76820  0.08990  Biso   1.000  C
  C201     1.0000 0.09349  0.80850  0.11100  Biso   1.000  C
  C202     1.0000 0.95005  0.80650  0.11630  Biso   1.000  C
  C203     1.0000 0.24460  0.59450  0.91330  Biso   1.000  C
  H121     1.0000 0.26550  0.60500  0.95230  Biso   1.000  H
  C204     1.0000 0.21619  0.62570  0.94440  Biso   1.000  C
  H122     1.0000 0.21840  0.65750  0.00450  Biso   1.000  H
  C205     1.0000 0.20990  0.53340  0.76800  Biso   1.000  C
  H123     1.0000 0.20710  0.50200  0.70710  Biso   1.000  H
  N105     1.0000 0.27226  0.51620  0.79780  Biso   1.000  N
  C206     1.0000 0.24174  0.54760  0.82390  Biso   1.000  C
  C207     1.0000 0.30040  0.45040  0.66990  Biso   1.000  C
  C208     1.0000 0.35490  0.41630  0.73070  Biso   1.000  C
  H124     1.0000 0.37300  0.41500  0.79780  Biso   1.000  H
  C209     1.0000 0.33160  0.38830  0.51380  Biso   1.000  C
  H125     1.0000 0.33280  0.36790  0.42500  Biso   1.000  H
  C210     1.0000 0.32760  0.44930  0.76610  Biso   1.000  C
  H126     1.0000 0.32750  0.47060  0.85360  Biso   1.000  H
  N106     1.0000 0.26983  0.48240  0.69340  Biso   1.000  N
  C211     1.0000 0.30260  0.41960  0.54130  Biso   1.000  C
  H127     1.0000 0.28480  0.41950  0.47270  Biso   1.000  H
  C212     1.0000 0.18270  0.56680  0.80480  Biso   1.000  C
  H128     1.0000 0.16140  0.55750  0.76770  Biso   1.000  H
  O49      1.0000 0.87320  0.71780  0.08410  Biso   1.000  O
  O50      1.0000 0.17185  0.72620  0.05670  Biso   1.000  O
  O51      1.0000 0.06057  0.88480  0.18880  Biso   1.000  O
  C213     1.0000 0.08838  0.85950  0.20550  Biso   1.000  C
  C214     1.0000 0.88904  0.75720  0.14750  Biso   1.000  C
  C215     1.0000 0.15499  0.76290  0.12770  Biso   1.000  C
  O52      1.0000 0.11159  0.87640  0.29210  Biso   1.000  O
  O53      1.0000 0.16681  0.79050  0.23450  Biso   1.000  O
  O54      1.0000 0.98248  0.88350  0.18960  Biso   1.000  O
  O55      1.0000 0.87805  0.78560  0.25390  Biso   1.000  O
  C216     1.0000 0.95465  0.85970  0.20420  Biso   1.000  C
  O56      1.0000 0.93046  0.87720  0.28320  Biso   1.000  O
  N107     1.0000 0.01890  0.88360  0.88620  Biso   1.000  N
  C217     1.0000 0.01604  0.93910  0.89230  Biso   1.000  C
  H129     1.0000 0.01720  0.95610  0.98610  Biso   1.000  H
  C218     1.0000 0.01810  0.85960  0.75060  Biso   1.000  C
  H130     1.0000 0.01980  0.82070  0.74540  Biso   1.000  H
  N108     1.0000 0.13153  0.62440  0.12770  Biso   1.000  N
  C219     1.0000 0.10670  0.58720  0.12990  Biso   1.000  C
  H131     1.0000 0.09360  0.58290  0.04400  Biso   1.000  H
  C220     1.0000 0.15020  0.63020  0.25160  Biso   1.000  C
  H132     1.0000 0.16800  0.65590  0.25070  Biso   1.000  H
  N109     1.0000 0.08426  0.38990  0.88830  Biso   1.000  N
  C221     1.0000 0.01490  0.88890  0.61820  Biso   1.000  C
  H133     1.0000 0.01580  0.87110  0.52540  Biso   1.000  H
  C222     1.0000 0.14430  0.59950  0.38240  Biso   1.000  C
  H134     1.0000 0.15760  0.60470  0.46720  Biso   1.000  H
  C223     1.0000 0.11860  0.56210  0.38240  Biso   1.000  C
  N110     1.0000 0.00810  0.97800  0.49200  Biso   1.000  N
  C224     1.0000 0.09920  0.55430  0.25370  Biso   1.000  C
  H135     1.0000 0.08180  0.52790  0.25100  Biso   1.000  H
  C225     1.0000 0.08660  0.44420  0.90390  Biso   1.000  C
  H136     1.0000 0.08670  0.45820  0.00130  Biso   1.000  H
  C226     1.0000 0.01010  0.94700  0.63120  Biso   1.000  C
  C227     1.0000 0.01140  0.97340  0.76910  Biso   1.000  C
  H137     1.0000 0.00930  0.01220  0.77840  Biso   1.000  H
  C228     1.0000 0.08100  0.37300  0.74920  Biso   1.000  C
  H138     1.0000 0.07770  0.33480  0.73330  Biso   1.000  H
  N111     1.0000 0.09071  0.49650  0.51350  Biso   1.000  N
  N112     1.0000 0.11463  0.52870  0.51730  Biso   1.000  N
  C229     1.0000 0.08790  0.46250  0.64690  Biso   1.000  C
  C230     1.0000 0.08870  0.48260  0.78910  Biso   1.000  C
  H139     1.0000 0.09070  0.52090  0.80840  Biso   1.000  H
  C231     1.0000 0.08200  0.40700  0.62500  Biso   1.000  C
  H140     1.0000 0.07870  0.39250  0.52920  Biso   1.000  H
  Zn22     1.0000 0.47836  0.66373  0.08594  Biso   1.000  Zn
  Zn23     1.0000 0.59973  0.83276  0.92846  Biso   1.000  Zn
  Zn24     1.0000 0.35572  0.82962  0.91948  Biso   1.000  Zn
  C232     1.0000 0.38068  0.72850  0.07760  Biso   1.000  C
  N113     1.0000 0.52384  0.71070  0.03190  Biso   1.000  N
  N114     1.0000 0.31416  0.88740  0.89260  Biso   1.000  N
  N115     1.0000 0.14292  0.11400  0.60640  Biso   1.000  N
  N116     1.0000 0.53159  0.75650  0.95730  Biso   1.000  N
  N117     1.0000 0.56355  0.77000  0.98960  Biso   1.000  N
  N118     1.0000 0.39253  0.76590  0.97710  Biso   1.000  N
  N119     1.0000 0.43384  0.70820  0.02690  Biso   1.000  N
  N120     1.0000 0.42449  0.75360  0.94740  Biso   1.000  N
  C233     1.0000 0.57548  0.73180  0.08990  Biso   1.000  C
  C234     1.0000 0.40651  0.69150  0.11100  Biso   1.000  C
  C235     1.0000 0.54995  0.69350  0.11630  Biso   1.000  C
  C236     1.0000 0.25540  0.90550  0.91330  Biso   1.000  C
  H141     1.0000 0.23450  0.89500  0.95230  Biso   1.000  H
  C237     1.0000 0.28381  0.87430  0.94440  Biso   1.000  C
  H142     1.0000 0.28160  0.84250  0.00450  Biso   1.000  H
  C238     1.0000 0.29010  0.96660  0.76800  Biso   1.000  C
  H143     1.0000 0.29290  0.99800  0.70710  Biso   1.000  H
  N121     1.0000 0.22774  0.98380  0.79780  Biso   1.000  N
  C239     1.0000 0.25826  0.95240  0.82390  Biso   1.000  C
  C240     1.0000 0.19960  0.04960  0.66990  Biso   1.000  C
  C241     1.0000 0.14510  0.08370  0.73070  Biso   1.000  C
  H144     1.0000 0.12700  0.08500  0.79780  Biso   1.000  H
  C242     1.0000 0.16840  0.11170  0.51380  Biso   1.000  C
  H145     1.0000 0.16720  0.13210  0.42500  Biso   1.000  H
  C243     1.0000 0.17240  0.05070  0.76610  Biso   1.000  C
  H146     1.0000 0.17250  0.02940  0.85360  Biso   1.000  H
  N122     1.0000 0.23017  0.01760  0.69340  Biso   1.000  N
  C244     1.0000 0.19740  0.08040  0.54130  Biso   1.000  C
  H147     1.0000 0.21520  0.08050  0.47270  Biso   1.000  H
  C245     1.0000 0.31730  0.93320  0.80480  Biso   1.000  C
  H148     1.0000 0.33860  0.94250  0.76770  Biso   1.000  H
  O57      1.0000 0.62680  0.78220  0.08410  Biso   1.000  O
  O58      1.0000 0.32815  0.77380  0.05670  Biso   1.000  O
  O59      1.0000 0.43943  0.61520  0.18880  Biso   1.000  O
  C246     1.0000 0.41162  0.64050  0.20550  Biso   1.000  C
  C247     1.0000 0.61096  0.74280  0.14750  Biso   1.000  C
  C248     1.0000 0.34501  0.73710  0.12770  Biso   1.000  C
  O60      1.0000 0.38841  0.62360  0.29210  Biso   1.000  O
  O61      1.0000 0.33319  0.70950  0.23450  Biso   1.000  O
  O62      1.0000 0.51752  0.61650  0.18960  Biso   1.000  O
  O63      1.0000 0.62195  0.71440  0.25390  Biso   1.000  O
  C249     1.0000 0.54535  0.64030  0.20420  Biso   1.000  C
  O64      1.0000 0.56954  0.62280  0.28320  Biso   1.000  O
  N123     1.0000 0.48110  0.61640  0.88620  Biso   1.000  N
  C250     1.0000 0.48396  0.56090  0.89230  Biso   1.000  C
  H149     1.0000 0.48280  0.54390  0.98610  Biso   1.000  H
  C251     1.0000 0.48190  0.64040  0.75060  Biso   1.000  C
  H150     1.0000 0.48020  0.67930  0.74540  Biso   1.000  H
  N124     1.0000 0.36847  0.87560  0.12770  Biso   1.000  N
  C252     1.0000 0.39330  0.91280  0.12990  Biso   1.000  C
  H151     1.0000 0.40640  0.91710  0.04400  Biso   1.000  H
  C253     1.0000 0.34980  0.86980  0.25160  Biso   1.000  C
  H152     1.0000 0.33200  0.84410  0.25070  Biso   1.000  H
  N125     1.0000 0.41574  0.11010  0.88830  Biso   1.000  N
  C254     1.0000 0.48510  0.61110  0.61820  Biso   1.000  C
  H153     1.0000 0.48420  0.62890  0.52540  Biso   1.000  H
  C255     1.0000 0.35570  0.90050  0.38240  Biso   1.000  C
  H154     1.0000 0.34240  0.89530  0.46720  Biso   1.000  H
  C256     1.0000 0.38140  0.93790  0.38240  Biso   1.000  C
  N126     1.0000 0.49190  0.52200  0.49200  Biso   1.000  N
  C257     1.0000 0.40080  0.94570  0.25370  Biso   1.000  C
  H155     1.0000 0.41820  0.97210  0.25100  Biso   1.000  H
  C258     1.0000 0.41340  0.05580  0.90390  Biso   1.000  C
  H156     1.0000 0.41330  0.04180  0.00130  Biso   1.000  H
  C259     1.0000 0.48990  0.55300  0.63120  Biso   1.000  C
  C260     1.0000 0.48860  0.52660  0.76910  Biso   1.000  C
  H157     1.0000 0.49070  0.48780  0.77840  Biso   1.000  H
  C261     1.0000 0.41900  0.12700  0.74920  Biso   1.000  C
  H158     1.0000 0.42230  0.16520  0.73330  Biso   1.000  H
  N127     1.0000 0.40929  0.00350  0.51350  Biso   1.000  N
  N128     1.0000 0.38537  0.97130  0.51730  Biso   1.000  N
  C262     1.0000 0.41210  0.03750  0.64690  Biso   1.000  C
  C263     1.0000 0.41130  0.01740  0.78910  Biso   1.000  C
  H159     1.0000 0.40930  0.97910  0.80840  Biso   1.000  H
  C264     1.0000 0.41800  0.09300  0.62500  Biso   1.000  C
  H160     1.0000 0.42130  0.10750  0.52920  Biso   1.000  H
