data_REYPIW_clean
_audit_creation_date              2014-07-02
_audit_creation_method            'Materials Studio'
_symmetry_space_group_name_H-M    'P1'
_symmetry_Int_Tables_number       1
_symmetry_cell_setting            triclinic
loop_
_symmetry_equiv_pos_as_xyz
  x,y,z
_cell_length_a                    11.4581
_cell_length_b                    11.6819
_cell_length_c                    11.8696
_cell_angle_alpha                 64.1320
_cell_angle_beta                  81.2020
_cell_angle_gamma                 72.6630
loop_
_atom_site_label
_atom_site_type_symbol
_atom_site_fract_x
_atom_site_fract_y
_atom_site_fract_z
_atom_site_U_iso_or_equiv
_atom_site_adp_type
_atom_site_occupancy
Zn1    Zn    0.00000   0.00000   0.50000   0.01267  Uiso   1.00
Zn2    Zn    0.00000   0.50000   0.50000   0.01267  Uiso   1.00
Zn3    Zn    0.00000   0.00000   0.00000   0.01267  Uiso   1.00
H1     H     0.77980   0.99930   0.68800   0.01267  Uiso   1.00
H2     H     0.64010   0.40190   0.36740   0.01267  Uiso   1.00
H3     H     0.58190   0.11710   0.69960   0.01267  Uiso   1.00
H4     H     0.20840   0.37220   0.69980   0.01267  Uiso   1.00
H5     H     0.83640   0.27620   0.36620   0.01267  Uiso   1.00
H6     H     0.41630   0.27710   0.71480   0.01267  Uiso   1.00
H7     H     0.44170   0.44190   0.33910   0.01267  Uiso   1.00
H8     H     0.23380   0.52980   0.33630   0.01267  Uiso   1.00
H9     H     0.53960   0.19440   0.95140   0.01267  Uiso   1.00
H10    H     0.84110   0.81370   0.03160   0.01267  Uiso   1.00
H11    H     0.64390   0.80770   0.03470   0.01267  Uiso   1.00
H12    H     0.74040   0.19000   0.94570   0.01267  Uiso   1.00
H13    H     0.22020   0.00070   0.31200   0.01267  Uiso   1.00
H14    H     0.35990   0.59810   0.63260   0.01267  Uiso   1.00
H15    H     0.41810   0.88290   0.30040   0.01267  Uiso   1.00
H16    H     0.79160   0.62780   0.30020   0.01267  Uiso   1.00
H17    H     0.16360   0.72380   0.63380   0.01267  Uiso   1.00
H18    H     0.58370   0.72290   0.28520   0.01267  Uiso   1.00
H19    H     0.55830   0.55810   0.66090   0.01267  Uiso   1.00
H20    H     0.76620   0.47020   0.66370   0.01267  Uiso   1.00
H21    H     0.46040   0.80560   0.04860   0.01267  Uiso   1.00
H22    H     0.15890   0.18630   0.96840   0.01267  Uiso   1.00
H23    H     0.35610   0.19230   0.96530   0.01267  Uiso   1.00
H24    H     0.25960   0.81000   0.05430   0.01267  Uiso   1.00
C1     C     0.75080   0.08060   0.62230   0.01267  Uiso   1.00
C2     C     0.02330   0.22050   0.61950   0.01267  Uiso   1.00
C3     C     0.03960   0.96680   0.76660   0.01267  Uiso   1.00
C4     C     0.45330   0.34370   0.52750   0.01267  Uiso   1.00
C5     C     0.66570   0.31960   0.43300   0.01267  Uiso   1.00
C6     C     0.63130   0.15060   0.62980   0.01267  Uiso   1.00
C7     C     0.25580   0.38420   0.62660   0.01267  Uiso   1.00
C8     C     0.05150   0.24760   0.48390   0.01267  Uiso   1.00
C9     C     0.01960   0.11130   0.72980   0.01267  Uiso   1.00
C10    C     0.58540   0.27240   0.53140   0.01267  Uiso   1.00
C11    C     0.78400   0.24330   0.43310   0.01267  Uiso   1.00
C12    C     0.38120   0.32640   0.63660   0.01267  Uiso   1.00
C13    C     0.39630   0.42390   0.41390   0.01267  Uiso   1.00
C14    C     0.27090   0.47690   0.41320   0.01267  Uiso   1.00
C15    C     0.56560   0.00060   0.99670   0.01267  Uiso   1.00
C16    C     0.59920   0.11520   0.96840   0.01267  Uiso   1.00
C17    C     0.77950   0.89130   0.01520   0.01267  Uiso   1.00
C18    C     0.66090   0.88660   0.01830   0.01267  Uiso   1.00
C19    C     0.72030   0.11170   0.96550   0.01267  Uiso   1.00
C20    C     0.24920   0.91940   0.37770   0.01267  Uiso   1.00
C21    C     0.97670   0.77950   0.38050   0.01267  Uiso   1.00
C22    C     0.96040   0.03320   0.23340   0.01267  Uiso   1.00
C23    C     0.54670   0.65630   0.47250   0.01267  Uiso   1.00
C24    C     0.33430   0.68040   0.56700   0.01267  Uiso   1.00
C25    C     0.36870   0.84940   0.37020   0.01267  Uiso   1.00
C26    C     0.74420   0.61580   0.37340   0.01267  Uiso   1.00
C27    C     0.94850   0.75240   0.51610   0.01267  Uiso   1.00
C28    C     0.98040   0.88870   0.27020   0.01267  Uiso   1.00
C29    C     0.41460   0.72760   0.46860   0.01267  Uiso   1.00
C30    C     0.21600   0.75670   0.56690   0.01267  Uiso   1.00
C31    C     0.61880   0.67360   0.36340   0.01267  Uiso   1.00
C32    C     0.60370   0.57610   0.58610   0.01267  Uiso   1.00
C33    C     0.72910   0.52310   0.58680   0.01267  Uiso   1.00
C34    C     0.43440   0.99940   0.00330   0.01267  Uiso   1.00
C35    C     0.40080   0.88480   0.03160   0.01267  Uiso   1.00
C36    C     0.22050   0.10870   0.98480   0.01267  Uiso   1.00
C37    C     0.33910   0.11340   0.98170   0.01267  Uiso   1.00
C38    C     0.27970   0.88830   0.03450   0.01267  Uiso   1.00
N1     N     0.99680   0.32400   0.65050   0.01267  Uiso   1.00
N2     N     0.82680   0.12420   0.52510   0.01267  Uiso   1.00
N3     N     0.20040   0.45590   0.51720   0.01267  Uiso   1.00
N4     N     0.97660   0.28290   0.77350   0.01267  Uiso   1.00
N5     N     0.99070   0.15370   0.82250   0.01267  Uiso   1.00
N6     N     0.81130   0.00140   0.98980   0.01267  Uiso   1.00
N7     N     0.00320   0.67600   0.34950   0.01267  Uiso   1.00
N8     N     0.17320   0.87580   0.47490   0.01267  Uiso   1.00
N9     N     0.79960   0.54410   0.48280   0.01267  Uiso   1.00
N10    N     0.02340   0.71710   0.22650   0.01267  Uiso   1.00
N11    N     0.00930   0.84630   0.17750   0.01267  Uiso   1.00
N12    N     0.18870   0.99860   0.01020   0.01267  Uiso   1.00
O1     O     0.08360   0.15490   0.44960   0.01267  Uiso   1.00
O2     O     0.04370   0.36720   0.41150   0.01267  Uiso   1.00
O3     O     0.04360   0.92220   0.68830   0.01267  Uiso   1.00
O4     O     0.05210   0.89570   0.88350   0.01267  Uiso   1.00
O5     O     0.91640   0.84510   0.55040   0.01267  Uiso   1.00
O6     O     0.95630   0.63280   0.58850   0.01267  Uiso   1.00
O7     O     0.95640   0.07780   0.31170   0.01267  Uiso   1.00
O8     O     0.94790   0.10430   0.11650   0.01267  Uiso   1.00
