data_image0
_cell_length_a       12.3034
_cell_length_b       12.4408
_cell_length_c       12.8156
_cell_angle_alpha    90
_cell_angle_beta     91.19
_cell_angle_gamma    90

_symmetry_space_group_name_H-M    "P 1"
_symmetry_int_tables_number       1

loop_
  _symmetry_equiv_pos_as_xyz
  'x, y, z'

loop_
  _atom_site_label
  _atom_site_occupancy
  _atom_site_fract_x
  _atom_site_fract_y
  _atom_site_fract_z
  _atom_site_thermal_displace_type
  _atom_site_B_iso_or_equiv
  _atom_site_type_symbol
  C1       1.0000 0.71920  0.50276  0.02290  Biso   1.000  C
  C2       1.0000 0.77480  0.00123  0.98690  Biso   1.000  C
  C3       1.0000 0.73690  0.27110  0.75530  Biso   1.000  C
  C4       1.0000 0.75280  0.78080  0.24150  Biso   1.000  C
  C5       1.0000 0.01050  0.71740  0.99650  Biso   1.000  C
  C6       1.0000 0.49250  0.22950  0.04320  Biso   1.000  C
  H1       1.0000 0.79000  0.32600  0.75900  Biso   1.000  H
  H2       1.0000 0.79700  0.83300  0.24400  Biso   1.000  H
  H3       1.0000 0.00500  0.77100  0.93800  Biso   1.000  H
  H4       1.0000 0.49600  0.30500  0.07700  Biso   1.000  H
  H5       1.0000 0.77900  0.50400  0.07300  Biso   1.000  H
  H6       1.0000 0.71000  0.99600  0.94100  Biso   1.000  H
  Mn1      1.0000 0.74030  0.25281  0.00780  Biso   1.000  Mn
  Mn2      1.0000 0.75929  0.75241  0.99347  Biso   1.000  Mn
  O1       1.0000 0.57821  0.19195  0.01782  Biso   1.000  O
  O2       1.0000 0.92170  0.68697  0.02970  Biso   1.000  O
  O3       1.0000 0.80603  0.09038  0.01845  Biso   1.000  O
  O4       1.0000 0.10034  0.68317  0.02520  Biso   1.000  O
  O5       1.0000 0.40137  0.18823  0.03794  Biso   1.000  O
  O6       1.0000 0.70690  0.23381  0.83995  Biso   1.000  O
  O7       1.0000 0.81761  0.91445  0.00940  Biso   1.000  O
  O8       1.0000 0.67444  0.41515  0.00262  Biso   1.000  O
  O9       1.0000 0.70250  0.24079  0.67021  Biso   1.000  O
  O10      1.0000 0.72750  0.74059  0.15771  Biso   1.000  O
  O11      1.0000 0.72110  0.75103  0.32746  Biso   1.000  O
  O12      1.0000 0.69965  0.58790  0.97976  Biso   1.000  O
  C7       1.0000 0.78080  0.00276  0.47710  Biso   1.000  C
  C8       1.0000 0.72520  0.50123  0.51310  Biso   1.000  C
  C9       1.0000 0.76310  0.77110  0.74470  Biso   1.000  C
  C10      1.0000 0.74720  0.28080  0.25850  Biso   1.000  C
  C11      1.0000 0.48950  0.21740  0.50350  Biso   1.000  C
  C12      1.0000 0.00750  0.72950  0.45680  Biso   1.000  C
  H7       1.0000 0.71000  0.82600  0.74100  Biso   1.000  H
  H8       1.0000 0.70300  0.33300  0.25600  Biso   1.000  H
  H9       1.0000 0.49500  0.27100  0.56200  Biso   1.000  H
  H10      1.0000 0.00400  0.80500  0.42300  Biso   1.000  H
  H11      1.0000 0.72100  0.00400  0.42700  Biso   1.000  H
  H12      1.0000 0.79000  0.49600  0.55900  Biso   1.000  H
  Mn3      1.0000 0.75970  0.75281  0.49220  Biso   1.000  Mn
  Mn4      1.0000 0.74071  0.25241  0.50653  Biso   1.000  Mn
  O13      1.0000 0.92179  0.69195  0.48218  Biso   1.000  O
  O14      1.0000 0.57830  0.18697  0.47030  Biso   1.000  O
  O15      1.0000 0.69397  0.59038  0.48155  Biso   1.000  O
  O16      1.0000 0.39966  0.18317  0.47480  Biso   1.000  O
  O17      1.0000 0.09863  0.68823  0.46206  Biso   1.000  O
  O18      1.0000 0.79310  0.73381  0.66005  Biso   1.000  O
  O19      1.0000 0.68239  0.41445  0.49060  Biso   1.000  O
  O20      1.0000 0.82556  0.91515  0.49738  Biso   1.000  O
  O21      1.0000 0.79750  0.74079  0.82979  Biso   1.000  O
  O22      1.0000 0.77250  0.24059  0.34229  Biso   1.000  O
  O23      1.0000 0.77890  0.25103  0.17254  Biso   1.000  O
  O24      1.0000 0.80035  0.08790  0.52024  Biso   1.000  O
  C13      1.0000 0.28080  0.49724  0.97710  Biso   1.000  C
  C14      1.0000 0.22520  0.99877  0.01310  Biso   1.000  C
  C15      1.0000 0.26310  0.72890  0.24470  Biso   1.000  C
  C16      1.0000 0.24720  0.21920  0.75850  Biso   1.000  C
  C17      1.0000 0.98950  0.28260  0.00350  Biso   1.000  C
  C18      1.0000 0.50750  0.77050  0.95680  Biso   1.000  C
  H13      1.0000 0.21000  0.67400  0.24100  Biso   1.000  H
  H14      1.0000 0.20300  0.16700  0.75600  Biso   1.000  H
  H15      1.0000 0.99500  0.22900  0.06200  Biso   1.000  H
  H16      1.0000 0.50400  0.69500  0.92300  Biso   1.000  H
  H17      1.0000 0.22100  0.49600  0.92700  Biso   1.000  H
  H18      1.0000 0.29000  0.00400  0.05900  Biso   1.000  H
  Mn5      1.0000 0.25970  0.74719  0.99220  Biso   1.000  Mn
  Mn6      1.0000 0.24071  0.24759  0.00653  Biso   1.000  Mn
  O25      1.0000 0.42179  0.80805  0.98218  Biso   1.000  O
  O26      1.0000 0.07830  0.31303  0.97030  Biso   1.000  O
  O27      1.0000 0.19397  0.90962  0.98155  Biso   1.000  O
  O28      1.0000 0.89966  0.31683  0.97480  Biso   1.000  O
  O29      1.0000 0.59863  0.81177  0.96206  Biso   1.000  O
  O30      1.0000 0.29310  0.76619  0.16005  Biso   1.000  O
  O31      1.0000 0.18239  0.08555  0.99060  Biso   1.000  O
  O32      1.0000 0.32556  0.58485  0.99738  Biso   1.000  O
  O33      1.0000 0.29750  0.75921  0.32979  Biso   1.000  O
  O34      1.0000 0.27250  0.25941  0.84229  Biso   1.000  O
  O35      1.0000 0.27890  0.24897  0.67254  Biso   1.000  O
  O36      1.0000 0.30035  0.41210  0.02024  Biso   1.000  O
  C19      1.0000 0.21920  0.99724  0.52290  Biso   1.000  C
  C20      1.0000 0.27480  0.49877  0.48690  Biso   1.000  C
  C21      1.0000 0.23690  0.22890  0.25530  Biso   1.000  C
  C22      1.0000 0.25280  0.71920  0.74150  Biso   1.000  C
  C23      1.0000 0.51050  0.78260  0.49650  Biso   1.000  C
  C24      1.0000 0.99250  0.27050  0.54320  Biso   1.000  C
  H19      1.0000 0.29000  0.17400  0.25900  Biso   1.000  H
  H20      1.0000 0.29700  0.66700  0.74400  Biso   1.000  H
  H21      1.0000 0.50500  0.72900  0.43800  Biso   1.000  H
  H22      1.0000 0.99600  0.19500  0.57700  Biso   1.000  H
  H23      1.0000 0.27900  0.99600  0.57300  Biso   1.000  H
  H24      1.0000 0.21000  0.50400  0.44100  Biso   1.000  H
  Mn7      1.0000 0.24030  0.24719  0.50780  Biso   1.000  Mn
  Mn8      1.0000 0.25929  0.74759  0.49347  Biso   1.000  Mn
  O37      1.0000 0.07821  0.30805  0.51782  Biso   1.000  O
  O38      1.0000 0.42170  0.81303  0.52970  Biso   1.000  O
  O39      1.0000 0.30603  0.40962  0.51845  Biso   1.000  O
  O40      1.0000 0.60034  0.81683  0.52520  Biso   1.000  O
  O41      1.0000 0.90137  0.31177  0.53794  Biso   1.000  O
  O42      1.0000 0.20690  0.26619  0.33995  Biso   1.000  O
  O43      1.0000 0.31761  0.58555  0.50940  Biso   1.000  O
  O44      1.0000 0.17444  0.08485  0.50262  Biso   1.000  O
  O45      1.0000 0.20250  0.25921  0.17021  Biso   1.000  O
  O46      1.0000 0.22750  0.75941  0.65771  Biso   1.000  O
  O47      1.0000 0.22110  0.74897  0.82746  Biso   1.000  O
  O48      1.0000 0.19965  0.91210  0.47976  Biso   1.000  O
