data_REZVAU_clean
_audit_creation_date              2014-07-02
_audit_creation_method            'Materials Studio'
_symmetry_space_group_name_H-M    'P1'
_symmetry_Int_Tables_number       1
_symmetry_cell_setting            triclinic
loop_
_symmetry_equiv_pos_as_xyz
  x,y,z
_cell_length_a                    11.3457
_cell_length_b                    11.4680
_cell_length_c                    18.2077
_cell_angle_alpha                 97.5296
_cell_angle_beta                  90.0000
_cell_angle_gamma                 90.0000
loop_
_atom_site_label
_atom_site_type_symbol
_atom_site_fract_x
_atom_site_fract_y
_atom_site_fract_z
_atom_site_U_iso_or_equiv
_atom_site_adp_type
_atom_site_occupancy
Co1    Co    0.50000   0.00000   0.00000   0.01267  Uiso   1.00
Co2    Co    0.50000   0.50000   0.50000   0.01267  Uiso   1.00
Co3    Co    0.24810   0.75000   0.75000   0.01267  Uiso   1.00
Co4    Co    0.75190   0.25000   0.25000   0.01267  Uiso   1.00
H1     H     0.55450   0.96090   0.83480   0.01267  Uiso   1.00
H2     H     0.65820   0.66980   0.84170   0.01267  Uiso   1.00
H3     H     0.45590   0.66740   0.83690   0.01267  Uiso   1.00
H4     H     0.56750   0.05620   0.73180   0.01267  Uiso   1.00
H5     H     0.21510   0.56160   0.85790   0.01267  Uiso   1.00
H6     H     0.48800   0.35690   0.85970   0.01267  Uiso   1.00
H7     H     0.19590   0.36300   0.85940   0.01267  Uiso   1.00
H8     H     0.47990   0.25380   0.95970   0.01267  Uiso   1.00
H9     H     0.23330   0.31680   0.64020   0.01267  Uiso   1.00
H10    H     0.83610   0.81880   0.85650   0.01267  Uiso   1.00
H11    H     0.25390   0.51580   0.64410   0.01267  Uiso   1.00
H12    H     0.03790   0.81880   0.85350   0.01267  Uiso   1.00
H13    H     0.55450   0.53910   0.66520   0.01267  Uiso   1.00
H14    H     0.65820   0.83020   0.65830   0.01267  Uiso   1.00
H15    H     0.45590   0.83260   0.66310   0.01267  Uiso   1.00
H16    H     0.56750   0.44380   0.76820   0.01267  Uiso   1.00
H17    H     0.21510   0.93840   0.64210   0.01267  Uiso   1.00
H18    H     0.48800   0.14310   0.64030   0.01267  Uiso   1.00
H19    H     0.19590   0.13700   0.64060   0.01267  Uiso   1.00
H20    H     0.47990   0.24620   0.54030   0.01267  Uiso   1.00
H21    H     0.23330   0.18320   0.85980   0.01267  Uiso   1.00
H22    H     0.83610   0.68120   0.64350   0.01267  Uiso   1.00
H23    H     0.25390   0.98420   0.85590   0.01267  Uiso   1.00
H24    H     0.03790   0.68120   0.64650   0.01267  Uiso   1.00
H25    H     0.44550   0.03910   0.16520   0.01267  Uiso   1.00
H26    H     0.34180   0.33020   0.15830   0.01267  Uiso   1.00
H27    H     0.54410   0.33260   0.16310   0.01267  Uiso   1.00
H28    H     0.43250   0.94380   0.26820   0.01267  Uiso   1.00
H29    H     0.78490   0.43840   0.14210   0.01267  Uiso   1.00
H30    H     0.51200   0.64310   0.14030   0.01267  Uiso   1.00
H31    H     0.80410   0.63700   0.14060   0.01267  Uiso   1.00
H32    H     0.52010   0.74620   0.04030   0.01267  Uiso   1.00
H33    H     0.76670   0.68320   0.35980   0.01267  Uiso   1.00
H34    H     0.16390   0.18120   0.14350   0.01267  Uiso   1.00
H35    H     0.74610   0.48420   0.35590   0.01267  Uiso   1.00
H36    H     0.96210   0.18120   0.14650   0.01267  Uiso   1.00
H37    H     0.44550   0.46090   0.33480   0.01267  Uiso   1.00
H38    H     0.34180   0.16980   0.34170   0.01267  Uiso   1.00
H39    H     0.54410   0.16740   0.33690   0.01267  Uiso   1.00
H40    H     0.43250   0.55620   0.23180   0.01267  Uiso   1.00
H41    H     0.78490   0.06160   0.35790   0.01267  Uiso   1.00
H42    H     0.51200   0.85690   0.35970   0.01267  Uiso   1.00
H43    H     0.80410   0.86300   0.35940   0.01267  Uiso   1.00
H44    H     0.52010   0.75380   0.45970   0.01267  Uiso   1.00
H45    H     0.76670   0.81680   0.14020   0.01267  Uiso   1.00
H46    H     0.16390   0.31880   0.35650   0.01267  Uiso   1.00
H47    H     0.74610   0.01580   0.14410   0.01267  Uiso   1.00
H48    H     0.96210   0.31880   0.35350   0.01267  Uiso   1.00
C1     C     0.54060   0.04145   0.83985   0.01267  Uiso   1.00
C2     C     0.61911   0.70184   0.80414   0.01267  Uiso   1.00
C3     C     0.52700   0.21856   0.78296   0.01267  Uiso   1.00
C4     C     0.21530   0.31464   0.75004   0.01267  Uiso   1.00
C5     C     0.49733   0.70210   0.80140   0.01267  Uiso   1.00
C6     C     0.54820   0.09838   0.77738   0.01267  Uiso   1.00
C7     C     0.21970   0.51196   0.81336   0.01267  Uiso   1.00
C8     C     0.50160   0.27625   0.85305   0.01267  Uiso   1.00
C9     C     0.20840   0.39179   0.81459   0.01267  Uiso   1.00
C10    C     0.49650   0.21341   0.91321   0.01267  Uiso   1.00
C11    C     0.23070   0.36449   0.68559   0.01267  Uiso   1.00
C12    C     0.87540   0.79089   0.81289   0.01267  Uiso   1.00
C13    C     0.24210   0.48503   0.68833   0.01267  Uiso   1.00
C14    C     0.99690   0.79010   0.81070   0.01267  Uiso   1.00
C15    C     0.54060   0.45855   0.66015   0.01267  Uiso   1.00
C16    C     0.61911   0.79816   0.69586   0.01267  Uiso   1.00
C17    C     0.52700   0.28144   0.71704   0.01267  Uiso   1.00
C18    C     0.21530   0.18536   0.74996   0.01267  Uiso   1.00
C19    C     0.49733   0.79790   0.69860   0.01267  Uiso   1.00
C20    C     0.54820   0.40162   0.72262   0.01267  Uiso   1.00
C21    C     0.21970   0.98804   0.68664   0.01267  Uiso   1.00
C22    C     0.50160   0.22375   0.64695   0.01267  Uiso   1.00
C23    C     0.20840   0.10821   0.68541   0.01267  Uiso   1.00
C24    C     0.49650   0.28659   0.58679   0.01267  Uiso   1.00
C25    C     0.23070   0.13551   0.81441   0.01267  Uiso   1.00
C26    C     0.87540   0.70911   0.68711   0.01267  Uiso   1.00
C27    C     0.24210   0.01497   0.81167   0.01267  Uiso   1.00
C28    C     0.99690   0.70990   0.68930   0.01267  Uiso   1.00
C29    C     0.45940   0.95855   0.16015   0.01267  Uiso   1.00
C30    C     0.38089   0.29816   0.19586   0.01267  Uiso   1.00
C31    C     0.47300   0.78144   0.21704   0.01267  Uiso   1.00
C32    C     0.78470   0.68536   0.24996   0.01267  Uiso   1.00
C33    C     0.50267   0.29790   0.19860   0.01267  Uiso   1.00
C34    C     0.45180   0.90162   0.22262   0.01267  Uiso   1.00
C35    C     0.78030   0.48804   0.18664   0.01267  Uiso   1.00
C36    C     0.49840   0.72375   0.14695   0.01267  Uiso   1.00
C37    C     0.79160   0.60821   0.18541   0.01267  Uiso   1.00
C38    C     0.50350   0.78659   0.08679   0.01267  Uiso   1.00
C39    C     0.76930   0.63551   0.31441   0.01267  Uiso   1.00
C40    C     0.12460   0.20911   0.18711   0.01267  Uiso   1.00
C41    C     0.75790   0.51497   0.31167   0.01267  Uiso   1.00
C42    C     0.00310   0.20990   0.18930   0.01267  Uiso   1.00
C43    C     0.45940   0.54145   0.33985   0.01267  Uiso   1.00
C44    C     0.38089   0.20184   0.30414   0.01267  Uiso   1.00
C45    C     0.47300   0.71856   0.28296   0.01267  Uiso   1.00
C46    C     0.78470   0.81464   0.25004   0.01267  Uiso   1.00
C47    C     0.50267   0.20210   0.30140   0.01267  Uiso   1.00
C48    C     0.45180   0.59838   0.27738   0.01267  Uiso   1.00
C49    C     0.78030   0.01196   0.31336   0.01267  Uiso   1.00
C50    C     0.49840   0.77625   0.35305   0.01267  Uiso   1.00
C51    C     0.79160   0.89179   0.31459   0.01267  Uiso   1.00
C52    C     0.50350   0.71341   0.41321   0.01267  Uiso   1.00
C53    C     0.76930   0.86449   0.18559   0.01267  Uiso   1.00
C54    C     0.12460   0.29089   0.31289   0.01267  Uiso   1.00
C55    C     0.75790   0.98503   0.18833   0.01267  Uiso   1.00
C56    C     0.00310   0.29010   0.31070   0.01267  Uiso   1.00
C57    C     0.81250   0.75000   0.75000   0.01267  Uiso   1.00
C58    C     0.68230   0.75000   0.75000   0.01267  Uiso   1.00
C59    C     0.18750   0.25000   0.25000   0.01267  Uiso   1.00
C60    C     0.31770   0.25000   0.25000   0.01267  Uiso   1.00
S1     S     0.29810   0.80075   0.93975   0.01267  Uiso   1.00
S2     S     0.29810   0.69925   0.56025   0.01267  Uiso   1.00
S3     S     0.70190   0.19925   0.06025   0.01267  Uiso   1.00
S4     S     0.70190   0.30075   0.43975   0.01267  Uiso   1.00
N1     N     0.23697   0.55947   0.75108   0.01267  Uiso   1.00
N2     N     0.51429   0.09697   0.90715   0.01267  Uiso   1.00
N3     N     0.23697   0.94053   0.74892   0.01267  Uiso   1.00
N4     N     0.51429   0.40303   0.59285   0.01267  Uiso   1.00
N5     N     0.76303   0.44053   0.24892   0.01267  Uiso   1.00
N6     N     0.48571   0.90303   0.09285   0.01267  Uiso   1.00
N7     N     0.76303   0.05947   0.25108   0.01267  Uiso   1.00
N8     N     0.48571   0.59697   0.40715   0.01267  Uiso   1.00
N9     N     0.43640   0.75000   0.75000   0.01267  Uiso   1.00
N10    N     0.05850   0.75000   0.75000   0.01267  Uiso   1.00
N11    N     0.56360   0.25000   0.25000   0.01267  Uiso   1.00
N12    N     0.94150   0.25000   0.25000   0.01267  Uiso   1.00
O1     O     0.40967   0.86622   0.93331   0.01267  Uiso   1.00
O2     O     0.24555   0.77444   0.86528   0.01267  Uiso   1.00
O3     O     0.32170   0.69071   0.96791   0.01267  Uiso   1.00
O4     O     0.21610   0.87567   0.98667   0.01267  Uiso   1.00
O5     O     0.40967   0.63378   0.56669   0.01267  Uiso   1.00
O6     O     0.24555   0.72556   0.63472   0.01267  Uiso   1.00
O7     O     0.32170   0.80929   0.53209   0.01267  Uiso   1.00
O8     O     0.21610   0.62433   0.51333   0.01267  Uiso   1.00
O9     O     0.59033   0.13378   0.06669   0.01267  Uiso   1.00
O10    O     0.75445   0.22556   0.13472   0.01267  Uiso   1.00
O11    O     0.67830   0.30929   0.03209   0.01267  Uiso   1.00
O12    O     0.78390   0.12433   0.01333   0.01267  Uiso   1.00
O13    O     0.59033   0.36622   0.43331   0.01267  Uiso   1.00
O14    O     0.75445   0.27444   0.36528   0.01267  Uiso   1.00
O15    O     0.67830   0.19071   0.46791   0.01267  Uiso   1.00
O16    O     0.78390   0.37567   0.48667   0.01267  Uiso   1.00
