data_image0
_cell_length_a       13.871
_cell_length_b       13.871
_cell_length_c       12.663
_cell_angle_alpha    90
_cell_angle_beta     90
_cell_angle_gamma    120

_symmetry_space_group_name_H-M    "P 1"
_symmetry_int_tables_number       1

loop_
  _symmetry_equiv_pos_as_xyz
  'x, y, z'

loop_
  _atom_site_label
  _atom_site_occupancy
  _atom_site_fract_x
  _atom_site_fract_y
  _atom_site_fract_z
  _atom_site_thermal_displace_type
  _atom_site_B_iso_or_equiv
  _atom_site_type_symbol
  O1       1.0000 0.80810  0.37860  0.10650  Biso   1.000  O
  O2       1.0000 0.85220  0.54540  0.13560  Biso   1.000  O
  C1       1.0000 0.88200  0.47540  0.11130  Biso   1.000  C
  C2       1.0000 0.99120  0.50720  0.05820  Biso   1.000  C
  O3       1.0000 0.62140  0.42950  0.10650  Biso   1.000  O
  O4       1.0000 0.45460  0.30680  0.13560  Biso   1.000  O
  C3       1.0000 0.52460  0.40660  0.11130  Biso   1.000  C
  C4       1.0000 0.49280  0.48400  0.05820  Biso   1.000  C
  O5       1.0000 0.57050  0.19190  0.10650  Biso   1.000  O
  O6       1.0000 0.69320  0.14780  0.13560  Biso   1.000  O
  C5       1.0000 0.59340  0.11800  0.11130  Biso   1.000  C
  C6       1.0000 0.51600  0.00880  0.05820  Biso   1.000  C
  O7       1.0000 0.80810  0.37860  0.39350  Biso   1.000  O
  O8       1.0000 0.85220  0.54540  0.36440  Biso   1.000  O
  C7       1.0000 0.88200  0.47540  0.38870  Biso   1.000  C
  C8       1.0000 0.99120  0.50720  0.44180  Biso   1.000  C
  O9       1.0000 0.62140  0.42950  0.39350  Biso   1.000  O
  O10      1.0000 0.45460  0.30680  0.36440  Biso   1.000  O
  C9       1.0000 0.52460  0.40660  0.38870  Biso   1.000  C
  C10      1.0000 0.49280  0.48400  0.44180  Biso   1.000  C
  O11      1.0000 0.57050  0.19190  0.39350  Biso   1.000  O
  O12      1.0000 0.69320  0.14780  0.36440  Biso   1.000  O
  C11      1.0000 0.59340  0.11800  0.38870  Biso   1.000  C
  C12      1.0000 0.51600  0.00880  0.44180  Biso   1.000  C
  O13      1.0000 0.37860  0.80810  0.89350  Biso   1.000  O
  O14      1.0000 0.54540  0.85220  0.86440  Biso   1.000  O
  C13      1.0000 0.47540  0.88200  0.88870  Biso   1.000  C
  C14      1.0000 0.50720  0.99120  0.94180  Biso   1.000  C
  O15      1.0000 0.42950  0.62140  0.89350  Biso   1.000  O
  O16      1.0000 0.30680  0.45460  0.86440  Biso   1.000  O
  C15      1.0000 0.40660  0.52460  0.88870  Biso   1.000  C
  C16      1.0000 0.48400  0.49280  0.94180  Biso   1.000  C
  O17      1.0000 0.19190  0.57050  0.89350  Biso   1.000  O
  O18      1.0000 0.14780  0.69320  0.86440  Biso   1.000  O
  C17      1.0000 0.11800  0.59340  0.88870  Biso   1.000  C
  C18      1.0000 0.00880  0.51600  0.94180  Biso   1.000  C
  O19      1.0000 0.37860  0.80810  0.60650  Biso   1.000  O
  O20      1.0000 0.54540  0.85220  0.63560  Biso   1.000  O
  C19      1.0000 0.47540  0.88200  0.61130  Biso   1.000  C
  C20      1.0000 0.50720  0.99120  0.55820  Biso   1.000  C
  O21      1.0000 0.42950  0.62140  0.60650  Biso   1.000  O
  O22      1.0000 0.30680  0.45460  0.63560  Biso   1.000  O
  C21      1.0000 0.40660  0.52460  0.61130  Biso   1.000  C
  C22      1.0000 0.48400  0.49280  0.55820  Biso   1.000  C
  O23      1.0000 0.19190  0.57050  0.60650  Biso   1.000  O
  O24      1.0000 0.14780  0.69320  0.63560  Biso   1.000  O
  C23      1.0000 0.11800  0.59340  0.61130  Biso   1.000  C
  C24      1.0000 0.00880  0.51600  0.55820  Biso   1.000  C
  Fe1      1.0000 0.77060  0.28660  0.25000  Biso   1.000  Fe
  Fe2      1.0000 0.71340  0.48400  0.25000  Biso   1.000  Fe
  Fe3      1.0000 0.51600  0.22940  0.25000  Biso   1.000  Fe
  Fe4      1.0000 0.28660  0.77060  0.75000  Biso   1.000  Fe
  Fe5      1.0000 0.48400  0.71340  0.75000  Biso   1.000  Fe
  Fe6      1.0000 0.22940  0.51600  0.75000  Biso   1.000  Fe
  O25      1.0000 0.66667  0.33333  0.25000  Biso   1.000  O
  O26      1.0000 0.33333  0.66667  0.75000  Biso   1.000  O
