data_image0
_cell_length_a       15.6261
_cell_length_b       15.6261
_cell_length_c       15.9604
_cell_angle_alpha    90
_cell_angle_beta     90
_cell_angle_gamma    120

_symmetry_space_group_name_H-M    "P 1"
_symmetry_int_tables_number       1

loop_
  _symmetry_equiv_pos_as_xyz
  'x, y, z'

loop_
  _atom_site_label
  _atom_site_occupancy
  _atom_site_fract_x
  _atom_site_fract_y
  _atom_site_fract_z
  _atom_site_thermal_displace_type
  _atom_site_B_iso_or_equiv
  _atom_site_type_symbol
  O1       1.0000 0.65530  0.48450  0.84140  Biso   1.000  O
  C1       1.0000 0.44140  0.40750  0.96520  Biso   1.000  C
  O2       1.0000 0.51550  0.17080  0.84140  Biso   1.000  O
  C2       1.0000 0.59250  0.03390  0.96520  Biso   1.000  C
  O3       1.0000 0.82920  0.34470  0.84140  Biso   1.000  O
  C3       1.0000 0.96610  0.55860  0.96520  Biso   1.000  C
  O4       1.0000 0.34470  0.51550  0.34140  Biso   1.000  O
  C4       1.0000 0.55860  0.59250  0.46520  Biso   1.000  C
  O5       1.0000 0.48450  0.82920  0.34140  Biso   1.000  O
  C5       1.0000 0.40750  0.96610  0.46520  Biso   1.000  C
  O6       1.0000 0.17080  0.65530  0.34140  Biso   1.000  O
  C6       1.0000 0.03390  0.44140  0.46520  Biso   1.000  C
  O7       1.0000 0.48450  0.65530  0.15860  Biso   1.000  O
  C7       1.0000 0.40750  0.44140  0.03480  Biso   1.000  C
  O8       1.0000 0.17080  0.51550  0.15860  Biso   1.000  O
  C8       1.0000 0.03390  0.59250  0.03480  Biso   1.000  C
  O9       1.0000 0.34470  0.82920  0.15860  Biso   1.000  O
  C9       1.0000 0.55860  0.96610  0.03480  Biso   1.000  C
  O10      1.0000 0.51550  0.34470  0.65860  Biso   1.000  O
  C10      1.0000 0.59250  0.55860  0.53480  Biso   1.000  C
  O11      1.0000 0.82920  0.48450  0.65860  Biso   1.000  O
  C11      1.0000 0.96610  0.40750  0.53480  Biso   1.000  C
  O12      1.0000 0.65530  0.17080  0.65860  Biso   1.000  O
  C12      1.0000 0.44140  0.03390  0.53480  Biso   1.000  C
  O13      1.0000 0.34470  0.51550  0.15860  Biso   1.000  O
  C13      1.0000 0.55860  0.59250  0.03480  Biso   1.000  C
  O14      1.0000 0.48450  0.82920  0.15860  Biso   1.000  O
  C14      1.0000 0.40750  0.96610  0.03480  Biso   1.000  C
  O15      1.0000 0.17080  0.65530  0.15860  Biso   1.000  O
  C15      1.0000 0.03390  0.44140  0.03480  Biso   1.000  C
  O16      1.0000 0.65530  0.48450  0.65860  Biso   1.000  O
  C16      1.0000 0.44140  0.40750  0.53480  Biso   1.000  C
  O17      1.0000 0.51550  0.17080  0.65860  Biso   1.000  O
  C17      1.0000 0.59250  0.03390  0.53480  Biso   1.000  C
  O18      1.0000 0.82920  0.34470  0.65860  Biso   1.000  O
  C18      1.0000 0.96610  0.55860  0.53480  Biso   1.000  C
  O19      1.0000 0.51550  0.34470  0.84140  Biso   1.000  O
  C19      1.0000 0.59250  0.55860  0.96520  Biso   1.000  C
  O20      1.0000 0.82920  0.48450  0.84140  Biso   1.000  O
  C20      1.0000 0.96610  0.40750  0.96520  Biso   1.000  C
  O21      1.0000 0.65530  0.17080  0.84140  Biso   1.000  O
  C21      1.0000 0.44140  0.03390  0.96520  Biso   1.000  C
  O22      1.0000 0.48450  0.65530  0.34140  Biso   1.000  O
  C22      1.0000 0.40750  0.44140  0.46520  Biso   1.000  C
  O23      1.0000 0.17080  0.51550  0.34140  Biso   1.000  O
  C23      1.0000 0.03390  0.59250  0.46520  Biso   1.000  C
  O24      1.0000 0.34470  0.82920  0.34140  Biso   1.000  O
  C24      1.0000 0.55860  0.96610  0.46520  Biso   1.000  C
  Cr1      1.0000 0.73520  0.47040  0.75000  Biso   1.000  Cr
  Cr2      1.0000 0.52960  0.26480  0.75000  Biso   1.000  Cr
  Cr3      1.0000 0.73520  0.26480  0.75000  Biso   1.000  Cr
  Cr4      1.0000 0.26480  0.52960  0.25000  Biso   1.000  Cr
  Cr5      1.0000 0.47040  0.73520  0.25000  Biso   1.000  Cr
  Cr6      1.0000 0.26480  0.73520  0.25000  Biso   1.000  Cr
  O25      1.0000 0.66667  0.33333  0.75000  Biso   1.000  O
  O26      1.0000 0.33333  0.66667  0.25000  Biso   1.000  O
  C25      1.0000 0.57570  0.42430  0.87860  Biso   1.000  C
  C26      1.0000 0.54250  0.45750  0.94830  Biso   1.000  C
  C27      1.0000 0.57570  0.15140  0.87860  Biso   1.000  C
  C28      1.0000 0.54250  0.08500  0.94830  Biso   1.000  C
  C29      1.0000 0.84860  0.42430  0.87860  Biso   1.000  C
  C30      1.0000 0.91500  0.45750  0.94830  Biso   1.000  C
  C31      1.0000 0.42430  0.57570  0.37860  Biso   1.000  C
  C32      1.0000 0.45750  0.54250  0.44830  Biso   1.000  C
  C33      1.0000 0.42430  0.84860  0.37860  Biso   1.000  C
  C34      1.0000 0.45750  0.91500  0.44830  Biso   1.000  C
  C35      1.0000 0.15140  0.57570  0.37860  Biso   1.000  C
  C36      1.0000 0.08500  0.54250  0.44830  Biso   1.000  C
  C37      1.0000 0.42430  0.57570  0.12140  Biso   1.000  C
  C38      1.0000 0.45750  0.54250  0.05170  Biso   1.000  C
  C39      1.0000 0.15140  0.57570  0.12140  Biso   1.000  C
  C40      1.0000 0.08500  0.54250  0.05170  Biso   1.000  C
  C41      1.0000 0.42430  0.84860  0.12140  Biso   1.000  C
  C42      1.0000 0.45750  0.91500  0.05170  Biso   1.000  C
  C43      1.0000 0.57570  0.42430  0.62140  Biso   1.000  C
  C44      1.0000 0.54250  0.45750  0.55170  Biso   1.000  C
  C45      1.0000 0.84860  0.42430  0.62140  Biso   1.000  C
  C46      1.0000 0.91500  0.45750  0.55170  Biso   1.000  C
  C47      1.0000 0.57570  0.15140  0.62140  Biso   1.000  C
  C48      1.0000 0.54250  0.08500  0.55170  Biso   1.000  C
