data_image0
_cell_length_a       18.7529
_cell_length_b       18.7529
_cell_length_c       18.7425
_cell_angle_alpha    90
_cell_angle_beta     90
_cell_angle_gamma    120

_symmetry_space_group_name_H-M    "P 1"
_symmetry_int_tables_number       1

loop_
  _symmetry_equiv_pos_as_xyz
  'x, y, z'

loop_
  _atom_site_label
  _atom_site_occupancy
  _atom_site_fract_x
  _atom_site_fract_y
  _atom_site_fract_z
  _atom_site_thermal_displace_type
  _atom_site_B_iso_or_equiv
  _atom_site_type_symbol
  O1       1.0000 0.81610  0.36710  0.18060  Biso   1.000  O
  O2       1.0000 0.78740  0.46080  0.17340  Biso   1.000  O
  C1       1.0000 0.82270  0.42810  0.15090  Biso   1.000  C
  C2       1.0000 0.90030  0.47850  0.10410  Biso   1.000  C
  C3       1.0000 0.97700  0.52020  0.13380  Biso   1.000  C
  C4       1.0000 0.04830  0.54790  0.08660  Biso   1.000  C
  C5       1.0000 0.03980  0.56210  0.01460  Biso   1.000  C
  C6       1.0000 0.89050  0.47570  0.03150  Biso   1.000  C
  O3       1.0000 0.63290  0.44900  0.18060  Biso   1.000  O
  O4       1.0000 0.53920  0.32660  0.17340  Biso   1.000  O
  C7       1.0000 0.57190  0.39460  0.15090  Biso   1.000  C
  C8       1.0000 0.52150  0.42180  0.10410  Biso   1.000  C
  C9       1.0000 0.47980  0.45680  0.13380  Biso   1.000  C
  C10      1.0000 0.45210  0.50040  0.08660  Biso   1.000  C
  C11      1.0000 0.43790  0.47770  0.01460  Biso   1.000  C
  C12      1.0000 0.52430  0.41480  0.03150  Biso   1.000  C
  O5       1.0000 0.55100  0.18390  0.18060  Biso   1.000  O
  O6       1.0000 0.67340  0.21260  0.17340  Biso   1.000  O
  C13      1.0000 0.60540  0.17730  0.15090  Biso   1.000  C
  C14      1.0000 0.57820  0.09970  0.10410  Biso   1.000  C
  C15      1.0000 0.54320  0.02300  0.13380  Biso   1.000  C
  C16      1.0000 0.49960  0.95170  0.08660  Biso   1.000  C
  C17      1.0000 0.52230  0.96020  0.01460  Biso   1.000  C
  C18      1.0000 0.58520  0.10950  0.03150  Biso   1.000  C
  O7       1.0000 0.81610  0.36710  0.31940  Biso   1.000  O
  O8       1.0000 0.78740  0.46080  0.32660  Biso   1.000  O
  C19      1.0000 0.82270  0.42810  0.34910  Biso   1.000  C
  C20      1.0000 0.90030  0.47850  0.39590  Biso   1.000  C
  C21      1.0000 0.97700  0.52020  0.36620  Biso   1.000  C
  C22      1.0000 0.04830  0.54790  0.41340  Biso   1.000  C
  C23      1.0000 0.03980  0.56210  0.48540  Biso   1.000  C
  C24      1.0000 0.89050  0.47570  0.46850  Biso   1.000  C
  O9       1.0000 0.63290  0.44900  0.31940  Biso   1.000  O
  O10      1.0000 0.53920  0.32660  0.32660  Biso   1.000  O
  C25      1.0000 0.57190  0.39460  0.34910  Biso   1.000  C
  C26      1.0000 0.52150  0.42180  0.39590  Biso   1.000  C
  C27      1.0000 0.47980  0.45680  0.36620  Biso   1.000  C
  C28      1.0000 0.45210  0.50040  0.41340  Biso   1.000  C
  C29      1.0000 0.43790  0.47770  0.48540  Biso   1.000  C
  C30      1.0000 0.52430  0.41480  0.46850  Biso   1.000  C
  O11      1.0000 0.55100  0.18390  0.31940  Biso   1.000  O
  O12      1.0000 0.67340  0.21260  0.32660  Biso   1.000  O
  C31      1.0000 0.60540  0.17730  0.34910  Biso   1.000  C
  C32      1.0000 0.57820  0.09970  0.39590  Biso   1.000  C
  C33      1.0000 0.54320  0.02300  0.36620  Biso   1.000  C
  C34      1.0000 0.49960  0.95170  0.41340  Biso   1.000  C
  C35      1.0000 0.52230  0.96020  0.48540  Biso   1.000  C
  C36      1.0000 0.58520  0.10950  0.46850  Biso   1.000  C
  O13      1.0000 0.36710  0.81610  0.81940  Biso   1.000  O
  O14      1.0000 0.46080  0.78740  0.82660  Biso   1.000  O
  C37      1.0000 0.42810  0.82270  0.84910  Biso   1.000  C
  C38      1.0000 0.47850  0.90030  0.89590  Biso   1.000  C
  C39      1.0000 0.52020  0.97700  0.86620  Biso   1.000  C
  C40      1.0000 0.54790  0.04830  0.91340  Biso   1.000  C
  C41      1.0000 0.56210  0.03980  0.98540  Biso   1.000  C
  C42      1.0000 0.47570  0.89050  0.96850  Biso   1.000  C
  O15      1.0000 0.44900  0.63290  0.81940  Biso   1.000  O
  O16      1.0000 0.32660  0.53920  0.82660  Biso   1.000  O
  C43      1.0000 0.39460  0.57190  0.84910  Biso   1.000  C
  C44      1.0000 0.42180  0.52150  0.89590  Biso   1.000  C
  C45      1.0000 0.45680  0.47980  0.86620  Biso   1.000  C
  C46      1.0000 0.50040  0.45210  0.91340  Biso   1.000  C
  C47      1.0000 0.47770  0.43790  0.98540  Biso   1.000  C
  C48      1.0000 0.41480  0.52430  0.96850  Biso   1.000  C
  O17      1.0000 0.18390  0.55100  0.81940  Biso   1.000  O
  O18      1.0000 0.21260  0.67340  0.82660  Biso   1.000  O
  C49      1.0000 0.17730  0.60540  0.84910  Biso   1.000  C
  C50      1.0000 0.09970  0.57820  0.89590  Biso   1.000  C
  C51      1.0000 0.02300  0.54320  0.86620  Biso   1.000  C
  C52      1.0000 0.95170  0.49960  0.91340  Biso   1.000  C
  C53      1.0000 0.96020  0.52230  0.98540  Biso   1.000  C
  C54      1.0000 0.10950  0.58520  0.96850  Biso   1.000  C
  O19      1.0000 0.36710  0.81610  0.68060  Biso   1.000  O
  O20      1.0000 0.46080  0.78740  0.67340  Biso   1.000  O
  C55      1.0000 0.42810  0.82270  0.65090  Biso   1.000  C
  C56      1.0000 0.47850  0.90030  0.60410  Biso   1.000  C
  C57      1.0000 0.52020  0.97700  0.63380  Biso   1.000  C
  C58      1.0000 0.54790  0.04830  0.58660  Biso   1.000  C
  C59      1.0000 0.56210  0.03980  0.51460  Biso   1.000  C
  C60      1.0000 0.47570  0.89050  0.53150  Biso   1.000  C
  O21      1.0000 0.44900  0.63290  0.68060  Biso   1.000  O
  O22      1.0000 0.32660  0.53920  0.67340  Biso   1.000  O
  C61      1.0000 0.39460  0.57190  0.65090  Biso   1.000  C
  C62      1.0000 0.42180  0.52150  0.60410  Biso   1.000  C
  C63      1.0000 0.45680  0.47980  0.63380  Biso   1.000  C
  C64      1.0000 0.50040  0.45210  0.58660  Biso   1.000  C
  C65      1.0000 0.47770  0.43790  0.51460  Biso   1.000  C
  C66      1.0000 0.41480  0.52430  0.53150  Biso   1.000  C
  O23      1.0000 0.18390  0.55100  0.68060  Biso   1.000  O
  O24      1.0000 0.21260  0.67340  0.67340  Biso   1.000  O
  C67      1.0000 0.17730  0.60540  0.65090  Biso   1.000  C
  C68      1.0000 0.09970  0.57820  0.60410  Biso   1.000  C
  C69      1.0000 0.02300  0.54320  0.63380  Biso   1.000  C
  C70      1.0000 0.95170  0.49960  0.58660  Biso   1.000  C
  C71      1.0000 0.96020  0.52230  0.51460  Biso   1.000  C
  C72      1.0000 0.10950  0.58520  0.53150  Biso   1.000  C
  Fe1      1.0000 0.73450  0.27590  0.25000  Biso   1.000  Fe
  Fe2      1.0000 0.72410  0.45860  0.25000  Biso   1.000  Fe
  Fe3      1.0000 0.54140  0.26550  0.25000  Biso   1.000  Fe
  Fe4      1.0000 0.27590  0.73450  0.75000  Biso   1.000  Fe
  Fe5      1.0000 0.45860  0.72410  0.75000  Biso   1.000  Fe
  Fe6      1.0000 0.26550  0.54140  0.75000  Biso   1.000  Fe
  O25      1.0000 0.66667  0.33333  0.25000  Biso   1.000  O
  O26      1.0000 0.33333  0.66667  0.75000  Biso   1.000  O
