data_image0
_cell_length_a       20.0405
_cell_length_b       20.0405
_cell_length_c       22.9108
_cell_angle_alpha    90
_cell_angle_beta     90
_cell_angle_gamma    120

_symmetry_space_group_name_H-M    "P 1"
_symmetry_int_tables_number       1

loop_
  _symmetry_equiv_pos_as_xyz
  'x, y, z'

loop_
  _atom_site_label
  _atom_site_occupancy
  _atom_site_fract_x
  _atom_site_fract_y
  _atom_site_fract_z
  _atom_site_thermal_displace_type
  _atom_site_B_iso_or_equiv
  _atom_site_type_symbol
  O1       1.0000 0.78810  0.34750  0.18700  Biso   1.000  O
  O2       1.0000 0.78570  0.45250  0.18790  Biso   1.000  O
  C1       1.0000 0.79470  0.40500  0.15920  Biso   1.000  C
  C2       1.0000 0.85970  0.43880  0.11470  Biso   1.000  C
  C3       1.0000 0.89100  0.51430  0.09570  Biso   1.000  C
  C4       1.0000 0.94770  0.54340  0.04940  Biso   1.000  C
  C5       1.0000 0.97180  0.49650  0.02390  Biso   1.000  C
  C6       1.0000 0.93630  0.41920  0.04090  Biso   1.000  C
  C7       1.0000 0.87270  0.38880  0.08070  Biso   1.000  C
  O3       1.0000 0.65250  0.44060  0.18700  Biso   1.000  O
  O4       1.0000 0.54750  0.33320  0.18790  Biso   1.000  O
  C8       1.0000 0.59500  0.38970  0.15920  Biso   1.000  C
  C9       1.0000 0.56120  0.42090  0.11470  Biso   1.000  C
  C10      1.0000 0.48570  0.37670  0.09570  Biso   1.000  C
  C11      1.0000 0.45660  0.40430  0.04940  Biso   1.000  C
  C12      1.0000 0.50350  0.47530  0.02390  Biso   1.000  C
  C13      1.0000 0.58080  0.51710  0.04090  Biso   1.000  C
  C14      1.0000 0.61120  0.48390  0.08070  Biso   1.000  C
  O5       1.0000 0.55940  0.21190  0.18700  Biso   1.000  O
  O6       1.0000 0.66680  0.21430  0.18790  Biso   1.000  O
  C15      1.0000 0.61030  0.20530  0.15920  Biso   1.000  C
  C16      1.0000 0.57910  0.14030  0.11470  Biso   1.000  C
  C17      1.0000 0.62330  0.10900  0.09570  Biso   1.000  C
  C18      1.0000 0.59570  0.05230  0.04940  Biso   1.000  C
  C19      1.0000 0.52470  0.02820  0.02390  Biso   1.000  C
  C20      1.0000 0.48290  0.06370  0.04090  Biso   1.000  C
  C21      1.0000 0.51610  0.12730  0.08070  Biso   1.000  C
  O7       1.0000 0.78810  0.34750  0.31300  Biso   1.000  O
  O8       1.0000 0.78570  0.45250  0.31210  Biso   1.000  O
  C22      1.0000 0.79470  0.40500  0.34080  Biso   1.000  C
  C23      1.0000 0.85970  0.43880  0.38530  Biso   1.000  C
  C24      1.0000 0.89100  0.51430  0.40430  Biso   1.000  C
  C25      1.0000 0.94770  0.54340  0.45060  Biso   1.000  C
  C26      1.0000 0.97180  0.49650  0.47610  Biso   1.000  C
  C27      1.0000 0.93630  0.41920  0.45910  Biso   1.000  C
  C28      1.0000 0.87270  0.38880  0.41930  Biso   1.000  C
  O9       1.0000 0.65250  0.44060  0.31300  Biso   1.000  O
  O10      1.0000 0.54750  0.33320  0.31210  Biso   1.000  O
  C29      1.0000 0.59500  0.38970  0.34080  Biso   1.000  C
  C30      1.0000 0.56120  0.42090  0.38530  Biso   1.000  C
  C31      1.0000 0.48570  0.37670  0.40430  Biso   1.000  C
  C32      1.0000 0.45660  0.40430  0.45060  Biso   1.000  C
  C33      1.0000 0.50350  0.47530  0.47610  Biso   1.000  C
  C34      1.0000 0.58080  0.51710  0.45910  Biso   1.000  C
  C35      1.0000 0.61120  0.48390  0.41930  Biso   1.000  C
  O11      1.0000 0.55940  0.21190  0.31300  Biso   1.000  O
  O12      1.0000 0.66680  0.21430  0.31210  Biso   1.000  O
  C36      1.0000 0.61030  0.20530  0.34080  Biso   1.000  C
  C37      1.0000 0.57910  0.14030  0.38530  Biso   1.000  C
  C38      1.0000 0.62330  0.10900  0.40430  Biso   1.000  C
  C39      1.0000 0.59570  0.05230  0.45060  Biso   1.000  C
  C40      1.0000 0.52470  0.02820  0.47610  Biso   1.000  C
  C41      1.0000 0.48290  0.06370  0.45910  Biso   1.000  C
  C42      1.0000 0.51610  0.12730  0.41930  Biso   1.000  C
  O13      1.0000 0.34750  0.78810  0.81300  Biso   1.000  O
  O14      1.0000 0.45250  0.78570  0.81210  Biso   1.000  O
  C43      1.0000 0.40500  0.79470  0.84080  Biso   1.000  C
  C44      1.0000 0.43880  0.85970  0.88530  Biso   1.000  C
  C45      1.0000 0.51430  0.89100  0.90430  Biso   1.000  C
  C46      1.0000 0.54340  0.94770  0.95060  Biso   1.000  C
  C47      1.0000 0.49650  0.97180  0.97610  Biso   1.000  C
  C48      1.0000 0.41920  0.93630  0.95910  Biso   1.000  C
  C49      1.0000 0.38880  0.87270  0.91930  Biso   1.000  C
  O15      1.0000 0.44060  0.65250  0.81300  Biso   1.000  O
  O16      1.0000 0.33320  0.54750  0.81210  Biso   1.000  O
  C50      1.0000 0.38970  0.59500  0.84080  Biso   1.000  C
  C51      1.0000 0.42090  0.56120  0.88530  Biso   1.000  C
  C52      1.0000 0.37670  0.48570  0.90430  Biso   1.000  C
  C53      1.0000 0.40430  0.45660  0.95060  Biso   1.000  C
  C54      1.0000 0.47530  0.50350  0.97610  Biso   1.000  C
  C55      1.0000 0.51710  0.58080  0.95910  Biso   1.000  C
  C56      1.0000 0.48390  0.61120  0.91930  Biso   1.000  C
  O17      1.0000 0.21190  0.55940  0.81300  Biso   1.000  O
  O18      1.0000 0.21430  0.66680  0.81210  Biso   1.000  O
  C57      1.0000 0.20530  0.61030  0.84080  Biso   1.000  C
  C58      1.0000 0.14030  0.57910  0.88530  Biso   1.000  C
  C59      1.0000 0.10900  0.62330  0.90430  Biso   1.000  C
  C60      1.0000 0.05230  0.59570  0.95060  Biso   1.000  C
  C61      1.0000 0.02820  0.52470  0.97610  Biso   1.000  C
  C62      1.0000 0.06370  0.48290  0.95910  Biso   1.000  C
  C63      1.0000 0.12730  0.51610  0.91930  Biso   1.000  C
  O19      1.0000 0.34750  0.78810  0.68700  Biso   1.000  O
  O20      1.0000 0.45250  0.78570  0.68790  Biso   1.000  O
  C64      1.0000 0.40500  0.79470  0.65920  Biso   1.000  C
  C65      1.0000 0.43880  0.85970  0.61470  Biso   1.000  C
  C66      1.0000 0.51430  0.89100  0.59570  Biso   1.000  C
  C67      1.0000 0.54340  0.94770  0.54940  Biso   1.000  C
  C68      1.0000 0.49650  0.97180  0.52390  Biso   1.000  C
  C69      1.0000 0.41920  0.93630  0.54090  Biso   1.000  C
  C70      1.0000 0.38880  0.87270  0.58070  Biso   1.000  C
  O21      1.0000 0.44060  0.65250  0.68700  Biso   1.000  O
  O22      1.0000 0.33320  0.54750  0.68790  Biso   1.000  O
  C71      1.0000 0.38970  0.59500  0.65920  Biso   1.000  C
  C72      1.0000 0.42090  0.56120  0.61470  Biso   1.000  C
  C73      1.0000 0.37670  0.48570  0.59570  Biso   1.000  C
  C74      1.0000 0.40430  0.45660  0.54940  Biso   1.000  C
  C75      1.0000 0.47530  0.50350  0.52390  Biso   1.000  C
  C76      1.0000 0.51710  0.58080  0.54090  Biso   1.000  C
  C77      1.0000 0.48390  0.61120  0.58070  Biso   1.000  C
  O23      1.0000 0.21190  0.55940  0.68700  Biso   1.000  O
  O24      1.0000 0.21430  0.66680  0.68790  Biso   1.000  O
  C78      1.0000 0.20530  0.61030  0.65920  Biso   1.000  C
  C79      1.0000 0.14030  0.57910  0.61470  Biso   1.000  C
  C80      1.0000 0.10900  0.62330  0.59570  Biso   1.000  C
  C81      1.0000 0.05230  0.59570  0.54940  Biso   1.000  C
  C82      1.0000 0.02820  0.52470  0.52390  Biso   1.000  C
  C83      1.0000 0.06370  0.48290  0.54090  Biso   1.000  C
  C84      1.0000 0.12730  0.51610  0.58070  Biso   1.000  C
  Cr1      1.0000 0.72710  0.28000  0.25000  Biso   1.000  Cr
  Cr2      1.0000 0.72000  0.44710  0.25000  Biso   1.000  Cr
  Cr3      1.0000 0.55290  0.27290  0.25000  Biso   1.000  Cr
  Cr4      1.0000 0.28000  0.72710  0.75000  Biso   1.000  Cr
  Cr5      1.0000 0.44710  0.72000  0.75000  Biso   1.000  Cr
  Cr6      1.0000 0.27290  0.55290  0.75000  Biso   1.000  Cr
  O25      1.0000 0.66667  0.33333  0.25000  Biso   1.000  O
  O26      1.0000 0.33333  0.66667  0.75000  Biso   1.000  O
