data_RIBDAJ_clean
_audit_creation_date              2014-07-02
_audit_creation_method            'Materials Studio'
_symmetry_space_group_name_H-M    'P1'
_symmetry_Int_Tables_number       1
_symmetry_cell_setting            triclinic
loop_
_symmetry_equiv_pos_as_xyz
  x,y,z
_cell_length_a                    9.9616
_cell_length_b                    9.9616
_cell_length_c                    19.6800
_cell_angle_alpha                 90.0000
_cell_angle_beta                  90.0000
_cell_angle_gamma                 102.8790
loop_
_atom_site_label
_atom_site_type_symbol
_atom_site_fract_x
_atom_site_fract_y
_atom_site_fract_z
_atom_site_U_iso_or_equiv
_atom_site_adp_type
_atom_site_occupancy
Ni1    Ni    0.31304   0.43132   0.73365   0.01267  Uiso   1.00
Ni2    Ni    0.68696   0.56868   0.23365   0.01267  Uiso   1.00
Ni3    Ni    0.56868   0.68696   0.76635   0.01267  Uiso   1.00
Ni4    Ni    0.43132   0.31304   0.26635   0.01267  Uiso   1.00
H1     H     0.67440   0.71220   0.60000   0.01267  Uiso   1.00
H2     H     0.33610   0.98830   0.74840   0.01267  Uiso   1.00
H3     H     0.32560   0.28780   0.10000   0.01267  Uiso   1.00
H4     H     0.66390   0.01170   0.24840   0.01267  Uiso   1.00
H5     H     0.28780   0.32560   0.90000   0.01267  Uiso   1.00
H6     H     0.01170   0.66390   0.75160   0.01267  Uiso   1.00
H7     H     0.71220   0.67440   0.40000   0.01267  Uiso   1.00
H8     H     0.98830   0.33610   0.25160   0.01267  Uiso   1.00
H9     H     0.41370   0.41370   0.50000   0.01267  Uiso   1.00
H10    H     0.58630   0.58630   0.00000   0.01267  Uiso   1.00
H11    H     0.95110   0.04890   0.75000   0.01267  Uiso   1.00
H12    H     0.04890   0.95110   0.25000   0.01267  Uiso   1.00
C1     C     0.64310   0.66750   0.55960   0.01267  Uiso   1.00
C2     C     0.44170   0.50490   0.62340   0.01267  Uiso   1.00
C3     C     0.53030   0.55950   0.56100   0.01267  Uiso   1.00
C4     C     0.20970   0.19390   0.74660   0.01267  Uiso   1.00
C5     C     0.24150   0.95270   0.74910   0.01267  Uiso   1.00
C6     C     0.15110   0.04190   0.74950   0.01267  Uiso   1.00
C7     C     0.35690   0.33250   0.05960   0.01267  Uiso   1.00
C8     C     0.55830   0.49510   0.12340   0.01267  Uiso   1.00
C9     C     0.46970   0.44050   0.06100   0.01267  Uiso   1.00
C10    C     0.79030   0.80610   0.24660   0.01267  Uiso   1.00
C11    C     0.75850   0.04730   0.24910   0.01267  Uiso   1.00
C12    C     0.84890   0.95810   0.24950   0.01267  Uiso   1.00
C13    C     0.33250   0.35690   0.94040   0.01267  Uiso   1.00
C14    C     0.49510   0.55830   0.87660   0.01267  Uiso   1.00
C15    C     0.44050   0.46970   0.93900   0.01267  Uiso   1.00
C16    C     0.80610   0.79030   0.75340   0.01267  Uiso   1.00
C17    C     0.04730   0.75850   0.75090   0.01267  Uiso   1.00
C18    C     0.95810   0.84890   0.75050   0.01267  Uiso   1.00
C19    C     0.66750   0.64310   0.44040   0.01267  Uiso   1.00
C20    C     0.50490   0.44170   0.37660   0.01267  Uiso   1.00
C21    C     0.55950   0.53030   0.43900   0.01267  Uiso   1.00
C22    C     0.19390   0.20970   0.25340   0.01267  Uiso   1.00
C23    C     0.95270   0.24150   0.25090   0.01267  Uiso   1.00
C24    C     0.04190   0.15110   0.25050   0.01267  Uiso   1.00
C25    C     0.83190   0.83190   0.50000   0.01267  Uiso   1.00
C26    C     0.71110   0.71110   0.50000   0.01267  Uiso   1.00
C27    C     0.48850   0.48850   0.50000   0.01267  Uiso   1.00
C28    C     0.16810   0.16810   0.00000   0.01267  Uiso   1.00
C29    C     0.28890   0.28890   0.00000   0.01267  Uiso   1.00
C30    C     0.51150   0.51150   0.00000   0.01267  Uiso   1.00
C31    C     0.01080   0.98920   0.75000   0.01267  Uiso   1.00
C32    C     0.28630   0.71370   0.75000   0.01267  Uiso   1.00
C33    C     0.18990   0.81010   0.75000   0.01267  Uiso   1.00
C34    C     0.98920   0.01080   0.25000   0.01267  Uiso   1.00
C35    C     0.71370   0.28630   0.25000   0.01267  Uiso   1.00
C36    C     0.81010   0.18990   0.25000   0.01267  Uiso   1.00
O1     O     0.85590   0.89590   0.55370   0.01267  Uiso   1.00
O2     O     0.32750   0.43410   0.61410   0.01267  Uiso   1.00
O3     O     0.13790   0.27830   0.75980   0.01267  Uiso   1.00
O4     O     0.33670   0.23910   0.73260   0.01267  Uiso   1.00
O5     O     0.23120   0.58860   0.74160   0.01267  Uiso   1.00
O6     O     0.48820   0.53580   0.67930   0.01267  Uiso   1.00
O7     O     0.14410   0.10410   0.05370   0.01267  Uiso   1.00
O8     O     0.67250   0.56590   0.11410   0.01267  Uiso   1.00
O9     O     0.86210   0.72170   0.25980   0.01267  Uiso   1.00
O10    O     0.66330   0.76090   0.23260   0.01267  Uiso   1.00
O11    O     0.76880   0.41140   0.24160   0.01267  Uiso   1.00
O12    O     0.51180   0.46420   0.17930   0.01267  Uiso   1.00
O13    O     0.10410   0.14410   0.94630   0.01267  Uiso   1.00
O14    O     0.56590   0.67250   0.88590   0.01267  Uiso   1.00
O15    O     0.72170   0.86210   0.74020   0.01267  Uiso   1.00
O16    O     0.76090   0.66330   0.76740   0.01267  Uiso   1.00
O17    O     0.41140   0.76880   0.75840   0.01267  Uiso   1.00
O18    O     0.46420   0.51180   0.82070   0.01267  Uiso   1.00
O19    O     0.89590   0.85590   0.44630   0.01267  Uiso   1.00
O20    O     0.43410   0.32750   0.38590   0.01267  Uiso   1.00
O21    O     0.27830   0.13790   0.24020   0.01267  Uiso   1.00
O22    O     0.23910   0.33670   0.26740   0.01267  Uiso   1.00
O23    O     0.58860   0.23120   0.25840   0.01267  Uiso   1.00
O24    O     0.53580   0.48820   0.32070   0.01267  Uiso   1.00
