data_RICHIV_clean
_audit_creation_date              2014-07-02
_audit_creation_method            'Materials Studio'
_symmetry_space_group_name_H-M    'P1'
_symmetry_Int_Tables_number       1
_symmetry_cell_setting            triclinic
loop_
_symmetry_equiv_pos_as_xyz
  x,y,z
_cell_length_a                    9.8785
_cell_length_b                    11.1986
_cell_length_c                    14.7456
_cell_angle_alpha                 93.9190
_cell_angle_beta                  97.4090
_cell_angle_gamma                 104.5170
loop_
_atom_site_label
_atom_site_type_symbol
_atom_site_fract_x
_atom_site_fract_y
_atom_site_fract_z
_atom_site_U_iso_or_equiv
_atom_site_adp_type
_atom_site_occupancy
La1    La    0.38197   0.52480   0.88245   0.01267  Uiso   1.00
La2    La    0.17582   0.57847   0.61474   0.01267  Uiso   1.00
La3    La    0.61803   0.47520   0.11755   0.01267  Uiso   1.00
La4    La    0.82418   0.42153   0.38526   0.01267  Uiso   1.00
H1     H     0.13600   0.88970   0.80720   0.01267  Uiso   1.00
H2     H     0.41210   0.90570   0.88000   0.01267  Uiso   1.00
H3     H     0.35400   0.92290   0.77920   0.01267  Uiso   1.00
H4     H     0.05010   0.86220   0.93240   0.01267  Uiso   1.00
H5     H     0.19650   0.86320   0.98830   0.01267  Uiso   1.00
H6     H     0.16770   0.05320   0.02600   0.01267  Uiso   1.00
H7     H     0.11380   0.06860   0.92410   0.01267  Uiso   1.00
H8     H     0.33290   0.11280   0.81850   0.01267  Uiso   1.00
H9     H     0.47520   0.11130   0.87880   0.01267  Uiso   1.00
H10    H     0.37530   0.07750   0.00150   0.01267  Uiso   1.00
H11    H     0.05470   0.23250   0.80890   0.01267  Uiso   1.00
H12    H     0.84110   0.17160   0.70030   0.01267  Uiso   1.00
H13    H     0.82700   0.13340   0.79960   0.01267  Uiso   1.00
H14    H     0.08650   0.41570   0.91150   0.01267  Uiso   1.00
H15    H     0.98200   0.29800   0.93870   0.01267  Uiso   1.00
H16    H     0.88520   0.46780   0.95190   0.01267  Uiso   1.00
H17    H     0.89540   0.48760   0.84830   0.01267  Uiso   1.00
H18    H     0.63480   0.20780   0.75230   0.01267  Uiso   1.00
H19    H     0.73160   0.32830   0.72310   0.01267  Uiso   1.00
H20    H     0.72350   0.27210   0.90640   0.01267  Uiso   1.00
H21    H     0.90820   0.76250   0.63890   0.01267  Uiso   1.00
H22    H     0.76950   0.85730   0.54440   0.01267  Uiso   1.00
H23    H     0.63320   0.75200   0.55050   0.01267  Uiso   1.00
H24    H     0.81270   0.57470   0.69730   0.01267  Uiso   1.00
H25    H     0.66030   0.57100   0.64900   0.01267  Uiso   1.00
H26    H     0.68210   0.64180   0.80340   0.01267  Uiso   1.00
H27    H     0.81740   0.74730   0.79550   0.01267  Uiso   1.00
H28    H     0.78830   0.92700   0.69900   0.01267  Uiso   1.00
H29    H     0.63630   0.92340   0.65010   0.01267  Uiso   1.00
H30    H     0.63360   0.83750   0.79310   0.01267  Uiso   1.00
H31    H     0.86400   0.11030   0.19280   0.01267  Uiso   1.00
H32    H     0.58790   0.09430   0.12000   0.01267  Uiso   1.00
H33    H     0.64600   0.07710   0.22080   0.01267  Uiso   1.00
H34    H     0.94990   0.13780   0.06760   0.01267  Uiso   1.00
H35    H     0.80350   0.13680   0.01170   0.01267  Uiso   1.00
H36    H     0.83230   0.94680   0.97400   0.01267  Uiso   1.00
H37    H     0.88620   0.93140   0.07590   0.01267  Uiso   1.00
H38    H     0.66710   0.88720   0.18150   0.01267  Uiso   1.00
H39    H     0.52480   0.88870   0.12120   0.01267  Uiso   1.00
H40    H     0.62470   0.92250   0.99850   0.01267  Uiso   1.00
H41    H     0.94530   0.76750   0.19110   0.01267  Uiso   1.00
H42    H     0.15890   0.82840   0.29970   0.01267  Uiso   1.00
H43    H     0.17300   0.86660   0.20040   0.01267  Uiso   1.00
H44    H     0.91350   0.58430   0.08850   0.01267  Uiso   1.00
H45    H     0.01800   0.70200   0.06130   0.01267  Uiso   1.00
H46    H     0.11480   0.53220   0.04810   0.01267  Uiso   1.00
H47    H     0.10460   0.51240   0.15170   0.01267  Uiso   1.00
H48    H     0.36520   0.79220   0.24770   0.01267  Uiso   1.00
H49    H     0.26840   0.67170   0.27690   0.01267  Uiso   1.00
H50    H     0.27650   0.72790   0.09360   0.01267  Uiso   1.00
H51    H     0.09180   0.23750   0.36110   0.01267  Uiso   1.00
H52    H     0.23050   0.14270   0.45560   0.01267  Uiso   1.00
H53    H     0.36680   0.24800   0.44950   0.01267  Uiso   1.00
H54    H     0.18730   0.42530   0.30270   0.01267  Uiso   1.00
H55    H     0.33970   0.42900   0.35100   0.01267  Uiso   1.00
H56    H     0.31790   0.35820   0.19660   0.01267  Uiso   1.00
H57    H     0.18260   0.25270   0.20450   0.01267  Uiso   1.00
H58    H     0.21170   0.07300   0.30100   0.01267  Uiso   1.00
H59    H     0.36370   0.07660   0.34990   0.01267  Uiso   1.00
H60    H     0.36640   0.16250   0.20690   0.01267  Uiso   1.00
C1     C     0.18130   0.72940   0.82890   0.01267  Uiso   1.00
C2     C     0.19910   0.86600   0.85550   0.01267  Uiso   1.00
C3     C     0.34280   0.93720   0.84310   0.01267  Uiso   1.00
C4     C     0.15130   0.89850   0.93840   0.01267  Uiso   1.00
C5     C     0.18210   0.03810   0.96280   0.01267  Uiso   1.00
C6     C     0.37360   0.07550   0.86910   0.01267  Uiso   1.00
C7     C     0.31580   0.10590   0.95370   0.01267  Uiso   1.00
C8     C     0.35560   0.24500   0.98070   0.01267  Uiso   1.00
C9     C     0.05510   0.37720   0.73360   0.01267  Uiso   1.00
C10    C     0.99210   0.28730   0.79880   0.01267  Uiso   1.00
C11    C     0.84430   0.20350   0.76360   0.01267  Uiso   1.00
C12    C     0.99480   0.35690   0.89320   0.01267  Uiso   1.00
C13    C     0.88030   0.42560   0.89140   0.01267  Uiso   1.00
C14    C     0.72560   0.26870   0.76810   0.01267  Uiso   1.00
C15    C     0.73400   0.33500   0.86280   0.01267  Uiso   1.00
C16    C     0.61900   0.40020   0.86980   0.01267  Uiso   1.00
C17    C     0.83410   0.63270   0.52840   0.01267  Uiso   1.00
C18    C     0.81470   0.71250   0.60930   0.01267  Uiso   1.00
C19    C     0.72370   0.79970   0.58430   0.01267  Uiso   1.00
C20    C     0.74990   0.62570   0.67860   0.01267  Uiso   1.00
C21    C     0.72670   0.69880   0.76270   0.01267  Uiso   1.00
C22    C     0.69900   0.87240   0.66890   0.01267  Uiso   1.00
C23    C     0.63360   0.78550   0.73690   0.01267  Uiso   1.00
C24    C     0.48050   0.71650   0.70110   0.01267  Uiso   1.00
C25    C     0.81870   0.27060   0.17110   0.01267  Uiso   1.00
C26    C     0.80090   0.13400   0.14450   0.01267  Uiso   1.00
C27    C     0.65720   0.06280   0.15690   0.01267  Uiso   1.00
C28    C     0.84870   0.10150   0.06160   0.01267  Uiso   1.00
C29    C     0.81790   0.96190   0.03720   0.01267  Uiso   1.00
C30    C     0.62640   0.92450   0.13090   0.01267  Uiso   1.00
C31    C     0.68420   0.89410   0.04630   0.01267  Uiso   1.00
C32    C     0.64440   0.75500   0.01930   0.01267  Uiso   1.00
C33    C     0.94490   0.62280   0.26640   0.01267  Uiso   1.00
C34    C     0.00790   0.71270   0.20120   0.01267  Uiso   1.00
C35    C     0.15570   0.79650   0.23640   0.01267  Uiso   1.00
C36    C     0.00520   0.64310   0.10680   0.01267  Uiso   1.00
C37    C     0.11970   0.57440   0.10860   0.01267  Uiso   1.00
C38    C     0.27440   0.73130   0.23190   0.01267  Uiso   1.00
C39    C     0.26600   0.66500   0.13720   0.01267  Uiso   1.00
C40    C     0.38100   0.59980   0.13020   0.01267  Uiso   1.00
C41    C     0.16590   0.36730   0.47160   0.01267  Uiso   1.00
C42    C     0.18530   0.28750   0.39070   0.01267  Uiso   1.00
C43    C     0.27630   0.20030   0.41570   0.01267  Uiso   1.00
C44    C     0.25010   0.37430   0.32140   0.01267  Uiso   1.00
C45    C     0.27330   0.30120   0.23730   0.01267  Uiso   1.00
C46    C     0.30100   0.12760   0.33110   0.01267  Uiso   1.00
C47    C     0.36640   0.21450   0.26310   0.01267  Uiso   1.00
C48    C     0.51950   0.28350   0.29890   0.01267  Uiso   1.00
O1     O     0.22470   0.66430   0.88640   0.01267  Uiso   1.00
O2     O     0.12700   0.68930   0.74760   0.01267  Uiso   1.00
O3     O     0.43700   0.28440   0.05460   0.01267  Uiso   1.00
O4     O     0.30850   0.31260   0.92670   0.01267  Uiso   1.00
O5     O     0.18680   0.43050   0.75140   0.01267  Uiso   1.00
O6     O     0.98460   0.39780   0.66510   0.01267  Uiso   1.00
O7     O     0.61440   0.45590   0.94750   0.01267  Uiso   1.00
O8     O     0.53060   0.40270   0.80180   0.01267  Uiso   1.00
O9     O     0.42110   0.62340   0.73900   0.01267  Uiso   1.00
O10    O     0.41080   0.75150   0.63770   0.01267  Uiso   1.00
O11    O     0.94110   0.58770   0.53510   0.01267  Uiso   1.00
O12    O     0.74290   0.60070   0.45690   0.01267  Uiso   1.00
O13    O     0.77530   0.33570   0.11360   0.01267  Uiso   1.00
O14    O     0.87300   0.31070   0.25240   0.01267  Uiso   1.00
O15    O     0.56300   0.71560   0.94540   0.01267  Uiso   1.00
O16    O     0.69150   0.68740   0.07330   0.01267  Uiso   1.00
O17    O     0.81320   0.56950   0.24860   0.01267  Uiso   1.00
O18    O     0.01540   0.60220   0.33490   0.01267  Uiso   1.00
O19    O     0.38560   0.54410   0.05250   0.01267  Uiso   1.00
O20    O     0.46940   0.59730   0.19820   0.01267  Uiso   1.00
O21    O     0.57890   0.37660   0.26100   0.01267  Uiso   1.00
O22    O     0.58920   0.24850   0.36230   0.01267  Uiso   1.00
O23    O     0.05890   0.41230   0.46490   0.01267  Uiso   1.00
O24    O     0.25710   0.39930   0.54310   0.01267  Uiso   1.00
