data_RIDKOE_charged
_audit_creation_date              2014-07-02
_audit_creation_method            'Materials Studio'
_symmetry_space_group_name_H-M    'P1'
_symmetry_Int_Tables_number       1
_symmetry_cell_setting            triclinic
loop_
_symmetry_equiv_pos_as_xyz
  x,y,z
_cell_length_a                    13.1562
_cell_length_b                    13.1562
_cell_length_c                    15.9120
_cell_angle_alpha                 90.0000
_cell_angle_beta                  90.0000
_cell_angle_gamma                 101.7810
loop_
_atom_site_label
_atom_site_type_symbol
_atom_site_fract_x
_atom_site_fract_y
_atom_site_fract_z
_atom_site_U_iso_or_equiv
_atom_site_adp_type
_atom_site_occupancy
Cu1    Cu    0.57567   0.28715   0.50309   0.01267  Uiso   1.00
Cu2    Cu    0.59669   0.88577   0.32926   0.01267  Uiso   1.00
Cu3    Cu    0.42433   0.71285   0.00309   0.01267  Uiso   1.00
Cu4    Cu    0.40331   0.11423   0.82926   0.01267  Uiso   1.00
Cu5    Cu    0.71285   0.42433   0.00309   0.01267  Uiso   1.00
Cu6    Cu    0.11423   0.40331   0.82926   0.01267  Uiso   1.00
Cu7    Cu    0.28715   0.57567   0.50309   0.01267  Uiso   1.00
Cu8    Cu    0.88577   0.59669   0.32926   0.01267  Uiso   1.00
H1     H     0.59440   0.07060   0.45010   0.01267  Uiso   1.00
H2     H     0.61180   0.05460   0.20760   0.01267  Uiso   1.00
H3     H     0.61520   0.22860   0.19610   0.01267  Uiso   1.00
H4     H     0.58610   0.31590   0.32010   0.01267  Uiso   1.00
H5     H     0.47020   0.23020   0.66470   0.01267  Uiso   1.00
H6     H     0.72290   0.16930   0.57720   0.01267  Uiso   1.00
H7     H     0.74720   0.08460   0.70270   0.01267  Uiso   1.00
H8     H     0.38400   0.93360   0.30120   0.01267  Uiso   1.00
H9     H     0.77430   0.96470   0.21010   0.01267  Uiso   1.00
H10    H     0.73170   0.42450   0.39230   0.01267  Uiso   1.00
H11    H     0.63920   0.47580   0.61670   0.01267  Uiso   1.00
H12    H     0.75580   0.62620   0.62370   0.01267  Uiso   1.00
H13    H     0.67480   0.86280   0.50660   0.01267  Uiso   1.00
H14    H     0.36170   0.16710   0.46870   0.01267  Uiso   1.00
H15    H     0.40560   0.92940   0.95010   0.01267  Uiso   1.00
H16    H     0.38820   0.94540   0.70760   0.01267  Uiso   1.00
H17    H     0.38480   0.77140   0.69610   0.01267  Uiso   1.00
H18    H     0.41390   0.68410   0.82010   0.01267  Uiso   1.00
H19    H     0.52980   0.76980   0.16470   0.01267  Uiso   1.00
H20    H     0.27710   0.83070   0.07720   0.01267  Uiso   1.00
H21    H     0.25280   0.91540   0.20270   0.01267  Uiso   1.00
H22    H     0.61600   0.06640   0.80120   0.01267  Uiso   1.00
H23    H     0.22570   0.03530   0.71010   0.01267  Uiso   1.00
H24    H     0.26830   0.57550   0.89230   0.01267  Uiso   1.00
H25    H     0.36080   0.52420   0.11670   0.01267  Uiso   1.00
H26    H     0.24420   0.37380   0.12370   0.01267  Uiso   1.00
H27    H     0.32520   0.13720   0.00660   0.01267  Uiso   1.00
H28    H     0.63830   0.83290   0.96870   0.01267  Uiso   1.00
H29    H     0.92940   0.40560   0.95010   0.01267  Uiso   1.00
H30    H     0.94540   0.38820   0.70760   0.01267  Uiso   1.00
H31    H     0.77140   0.38480   0.69610   0.01267  Uiso   1.00
H32    H     0.68410   0.41390   0.82010   0.01267  Uiso   1.00
H33    H     0.76980   0.52980   0.16470   0.01267  Uiso   1.00
H34    H     0.83070   0.27710   0.07720   0.01267  Uiso   1.00
H35    H     0.91540   0.25280   0.20270   0.01267  Uiso   1.00
H36    H     0.06640   0.61600   0.80120   0.01267  Uiso   1.00
H37    H     0.03530   0.22570   0.71010   0.01267  Uiso   1.00
H38    H     0.57550   0.26830   0.89230   0.01267  Uiso   1.00
H39    H     0.52420   0.36080   0.11670   0.01267  Uiso   1.00
H40    H     0.37380   0.24420   0.12370   0.01267  Uiso   1.00
H41    H     0.13720   0.32520   0.00660   0.01267  Uiso   1.00
H42    H     0.83290   0.63830   0.96870   0.01267  Uiso   1.00
H43    H     0.07060   0.59440   0.45010   0.01267  Uiso   1.00
H44    H     0.05460   0.61180   0.20760   0.01267  Uiso   1.00
H45    H     0.22860   0.61520   0.19610   0.01267  Uiso   1.00
H46    H     0.31590   0.58610   0.32010   0.01267  Uiso   1.00
H47    H     0.23020   0.47020   0.66470   0.01267  Uiso   1.00
H48    H     0.16930   0.72290   0.57720   0.01267  Uiso   1.00
H49    H     0.08460   0.74720   0.70270   0.01267  Uiso   1.00
H50    H     0.93360   0.38400   0.30120   0.01267  Uiso   1.00
H51    H     0.96470   0.77430   0.21010   0.01267  Uiso   1.00
H52    H     0.42450   0.73170   0.39230   0.01267  Uiso   1.00
H53    H     0.47580   0.63920   0.61670   0.01267  Uiso   1.00
H54    H     0.62620   0.75580   0.62370   0.01267  Uiso   1.00
H55    H     0.86280   0.67480   0.50660   0.01267  Uiso   1.00
H56    H     0.16710   0.36170   0.46870   0.01267  Uiso   1.00
H57    H     0.19720   0.19720   0.43920   0.01267  Uiso   1.00
H58    H     0.45560   0.45560   0.51570   0.01267  Uiso   1.00
H59    H     0.80280   0.80280   0.93920   0.01267  Uiso   1.00
H60    H     0.54440   0.54440   0.01570   0.01267  Uiso   1.00
H61    H     0.72000   0.72000   0.34690   0.01267  Uiso   1.00
H62    H     0.92230   0.92230   0.15680   0.01267  Uiso   1.00
H63    H     0.28000   0.28000   0.84690   0.01267  Uiso   1.00
H64    H     0.07770   0.07770   0.65680   0.01267  Uiso   1.00
C1     C     0.59800   0.10280   0.39780   0.01267  Uiso   1.00
C2     C     0.60950   0.09310   0.25630   0.01267  Uiso   1.00
C3     C     0.60780   0.19540   0.24790   0.01267  Uiso   1.00
C4     C     0.59420   0.24740   0.32250   0.01267  Uiso   1.00
C5     C     0.52670   0.19870   0.67170   0.01267  Uiso   1.00
C6     C     0.67460   0.16500   0.62040   0.01267  Uiso   1.00
C7     C     0.68860   0.11260   0.69390   0.01267  Uiso   1.00
C8     C     0.38880   0.89560   0.25250   0.01267  Uiso   1.00
C9     C     0.79200   0.90340   0.22800   0.01267  Uiso   1.00
C10    C     0.73680   0.46620   0.43990   0.01267  Uiso   1.00
C11    C     0.68290   0.49530   0.57100   0.01267  Uiso   1.00
C12    C     0.75060   0.58460   0.57600   0.01267  Uiso   1.00
C13    C     0.61290   0.81390   0.50530   0.01267  Uiso   1.00
C14    C     0.34970   0.23410   0.47220   0.01267  Uiso   1.00
C15    C     0.40200   0.89720   0.89780   0.01267  Uiso   1.00
C16    C     0.39050   0.90690   0.75630   0.01267  Uiso   1.00
C17    C     0.39220   0.80460   0.74790   0.01267  Uiso   1.00
C18    C     0.40580   0.75260   0.82250   0.01267  Uiso   1.00
C19    C     0.47330   0.80130   0.17170   0.01267  Uiso   1.00
C20    C     0.32540   0.83500   0.12040   0.01267  Uiso   1.00
C21    C     0.31140   0.88740   0.19390   0.01267  Uiso   1.00
C22    C     0.61120   0.10440   0.75250   0.01267  Uiso   1.00
C23    C     0.20800   0.09660   0.72800   0.01267  Uiso   1.00
C24    C     0.26320   0.53380   0.93990   0.01267  Uiso   1.00
C25    C     0.31710   0.50470   0.07100   0.01267  Uiso   1.00
C26    C     0.24940   0.41540   0.07600   0.01267  Uiso   1.00
C27    C     0.38710   0.18610   0.00530   0.01267  Uiso   1.00
C28    C     0.65030   0.76590   0.97220   0.01267  Uiso   1.00
C29    C     0.89720   0.40200   0.89780   0.01267  Uiso   1.00
C30    C     0.90690   0.39050   0.75630   0.01267  Uiso   1.00
C31    C     0.80460   0.39220   0.74790   0.01267  Uiso   1.00
C32    C     0.75260   0.40580   0.82250   0.01267  Uiso   1.00
C33    C     0.80130   0.47330   0.17170   0.01267  Uiso   1.00
C34    C     0.83500   0.32540   0.12040   0.01267  Uiso   1.00
C35    C     0.88740   0.31140   0.19390   0.01267  Uiso   1.00
C36    C     0.10440   0.61120   0.75250   0.01267  Uiso   1.00
C37    C     0.09660   0.20800   0.72800   0.01267  Uiso   1.00
C38    C     0.53380   0.26320   0.93990   0.01267  Uiso   1.00
C39    C     0.50470   0.31710   0.07100   0.01267  Uiso   1.00
C40    C     0.41540   0.24940   0.07600   0.01267  Uiso   1.00
C41    C     0.18610   0.38710   0.00530   0.01267  Uiso   1.00
C42    C     0.76590   0.65030   0.97220   0.01267  Uiso   1.00
C43    C     0.10280   0.59800   0.39780   0.01267  Uiso   1.00
C44    C     0.09310   0.60950   0.25630   0.01267  Uiso   1.00
C45    C     0.19540   0.60780   0.24790   0.01267  Uiso   1.00
C46    C     0.24740   0.59420   0.32250   0.01267  Uiso   1.00
C47    C     0.19870   0.52670   0.67170   0.01267  Uiso   1.00
C48    C     0.16500   0.67460   0.62040   0.01267  Uiso   1.00
C49    C     0.11260   0.68860   0.69390   0.01267  Uiso   1.00
C50    C     0.89560   0.38880   0.25250   0.01267  Uiso   1.00
C51    C     0.90340   0.79200   0.22800   0.01267  Uiso   1.00
C52    C     0.46620   0.73680   0.43990   0.01267  Uiso   1.00
C53    C     0.49530   0.68290   0.57100   0.01267  Uiso   1.00
C54    C     0.58460   0.75060   0.57600   0.01267  Uiso   1.00
C55    C     0.81390   0.61290   0.50530   0.01267  Uiso   1.00
C56    C     0.23410   0.34970   0.47220   0.01267  Uiso   1.00
C57    C     0.25030   0.25030   0.45770   0.01267  Uiso   1.00
C58    C     0.40160   0.40160   0.50010   0.01267  Uiso   1.00
C59    C     0.74970   0.74970   0.95770   0.01267  Uiso   1.00
C60    C     0.59840   0.59840   0.00010   0.01267  Uiso   1.00
C61    C     0.76110   0.76110   0.30730   0.01267  Uiso   1.00
C62    C     0.88100   0.88100   0.19620   0.01267  Uiso   1.00
C63    C     0.23890   0.23890   0.80730   0.01267  Uiso   1.00
C64    C     0.11900   0.11900   0.69620   0.01267  Uiso   1.00
N1     N     0.59240   0.20040   0.39700   0.01267  Uiso   1.00
N2     N     0.67280   0.43080   0.50440   0.01267  Uiso   1.00
N3     N     0.59310   0.20890   0.61110   0.01267  Uiso   1.00
N4     N     0.42600   0.30960   0.49030   0.01267  Uiso   1.00
N5     N     0.60810   0.04390   0.33040   0.01267  Uiso   1.00
N6     N     0.46870   0.85250   0.24320   0.01267  Uiso   1.00
N7     N     0.72900   0.84640   0.28170   0.01267  Uiso   1.00
N8     N     0.55520   0.80660   0.43760   0.01267  Uiso   1.00
N9     N     0.40760   0.79960   0.89700   0.01267  Uiso   1.00
N10    N     0.32720   0.56920   0.00440   0.01267  Uiso   1.00
N11    N     0.40690   0.79110   0.11110   0.01267  Uiso   1.00
N12    N     0.57400   0.69040   0.99030   0.01267  Uiso   1.00
N13    N     0.39190   0.95610   0.83040   0.01267  Uiso   1.00
N14    N     0.53130   0.14750   0.74320   0.01267  Uiso   1.00
N15    N     0.27100   0.15360   0.78170   0.01267  Uiso   1.00
N16    N     0.44480   0.19340   0.93760   0.01267  Uiso   1.00
N17    N     0.79960   0.40760   0.89700   0.01267  Uiso   1.00
N18    N     0.56920   0.32720   0.00440   0.01267  Uiso   1.00
N19    N     0.79110   0.40690   0.11110   0.01267  Uiso   1.00
N20    N     0.69040   0.57400   0.99030   0.01267  Uiso   1.00
N21    N     0.95610   0.39190   0.83040   0.01267  Uiso   1.00
N22    N     0.14750   0.53130   0.74320   0.01267  Uiso   1.00
N23    N     0.15360   0.27100   0.78170   0.01267  Uiso   1.00
N24    N     0.19340   0.44480   0.93760   0.01267  Uiso   1.00
N25    N     0.20040   0.59240   0.39700   0.01267  Uiso   1.00
N26    N     0.43080   0.67280   0.50440   0.01267  Uiso   1.00
N27    N     0.20890   0.59310   0.61110   0.01267  Uiso   1.00
N28    N     0.30960   0.42600   0.49030   0.01267  Uiso   1.00
N29    N     0.04390   0.60810   0.33040   0.01267  Uiso   1.00
N30    N     0.85250   0.46870   0.24320   0.01267  Uiso   1.00
N31    N     0.84640   0.72900   0.28170   0.01267  Uiso   1.00
N32    N     0.80660   0.55520   0.43760   0.01267  Uiso   1.00
B1     B     0.63630   0.04750   0.02970   0.01267  Uiso   1.00
F1     F     0.61990   0.01470   0.94700   0.01267  Uiso   1.00
F2     F     0.68630   0.98730   0.07230   0.01267  Uiso   1.00
F3     F     0.52850   0.02490   0.06170   0.01267  Uiso   1.00
F4     F     0.67190   0.14050   0.04240   0.01267  Uiso   1.00
B2     B     0.36370   0.95250   0.52970   0.01267  Uiso   1.00
F5     F     0.38010   0.98530   0.44700   0.01267  Uiso   1.00
F6     F     0.31370   0.01270   0.57230   0.01267  Uiso   1.00
F7     F     0.47150   0.97510   0.56170   0.01267  Uiso   1.00
F8     F     0.32810   0.85950   0.54240   0.01267  Uiso   1.00
B3     B     0.95250   0.36370   0.52970   0.01267  Uiso   1.00
F9     F     0.98530   0.38010   0.44700   0.01267  Uiso   1.00
F10    F     0.01270   0.31370   0.57230   0.01267  Uiso   1.00
F11    F     0.97510   0.47150   0.56170   0.01267  Uiso   1.00
F12    F     0.85950   0.32810   0.54240   0.01267  Uiso   1.00
B4     B     0.04750   0.63630   0.02970   0.01267  Uiso   1.00
F13    F     0.01470   0.61990   0.94700   0.01267  Uiso   1.00
F14    F     0.98730   0.68630   0.07230   0.01267  Uiso   1.00
F15    F     0.02490   0.52850   0.06170   0.01267  Uiso   1.00
F16    F     0.14050   0.67190   0.04240   0.01267  Uiso   1.00
B5     B     0.47150   0.47150   0.76440   0.01267  Uiso   1.00
F17    F     0.53430   0.41870   0.74550   0.01267  Uiso   1.00
F18    F     0.41870   0.53430   0.74550   0.01267  Uiso   1.00
F19    F     0.40090   0.40090   0.69900   0.01267  Uiso   1.00
F20    F     0.55670   0.55670   0.75490   0.01267  Uiso   1.00
F21    F     0.44020   0.44020   0.84050   0.01267  Uiso   1.00
B6     B     0.52850   0.52850   0.26440   0.01267  Uiso   1.00
F22    F     0.46570   0.58130   0.24550   0.01267  Uiso   1.00
F23    F     0.58130   0.46570   0.24550   0.01267  Uiso   1.00
F24    F     0.59910   0.59910   0.19900   0.01267  Uiso   1.00
F25    F     0.44330   0.44330   0.25490   0.01267  Uiso   1.00
F26    F     0.55980   0.55980   0.34050   0.01267  Uiso   1.00
