data_image0
_cell_length_a       14.291
_cell_length_b       17.345
_cell_length_c       19.371
_cell_angle_alpha    63.737
_cell_angle_beta     83.571
_cell_angle_gamma    82.359

_symmetry_space_group_name_H-M    "P 1"
_symmetry_int_tables_number       1

loop_
  _symmetry_equiv_pos_as_xyz
  'x, y, z'

loop_
  _atom_site_label
  _atom_site_occupancy
  _atom_site_fract_x
  _atom_site_fract_y
  _atom_site_fract_z
  _atom_site_thermal_displace_type
  _atom_site_B_iso_or_equiv
  _atom_site_type_symbol
  La1      1.0000 0.17664  0.54013  0.77055  Biso   1.000  La
  La2      1.0000 0.07152  0.51684  0.57933  Biso   1.000  La
  Ni1      1.0000 0.52027  0.01140  0.76096  Biso   1.000  Ni
  O1       1.0000 0.01390  0.37290  0.62710  Biso   1.000  O
  O2       1.0000 0.90110  0.53210  0.52530  Biso   1.000  O
  O3       1.0000 0.93380  0.35190  0.54380  Biso   1.000  O
  O4       1.0000 0.13730  0.43180  0.70980  Biso   1.000  O
  O5       1.0000 0.23820  0.38010  0.79890  Biso   1.000  O
  O6       1.0000 0.65940  0.47350  0.17830  Biso   1.000  O
  O7       1.0000 0.76930  0.54210  0.08900  Biso   1.000  O
  O8       1.0000 0.07720  0.61100  0.64450  Biso   1.000  O
  O9       1.0000 0.96750  0.73070  0.60870  Biso   1.000  O
  O10      1.0000 0.90320  0.53370  0.63630  Biso   1.000  O
  O11      1.0000 0.75440  0.51600  0.60130  Biso   1.000  O
  O12      1.0000 0.20840  0.69610  0.71840  Biso   1.000  O
  O13      1.0000 0.14700  0.64260  0.83800  Biso   1.000  O
  O14      1.0000 0.01550  0.65250  0.72740  Biso   1.000  O
  O15      1.0000 0.22070  0.29290  0.73380  Biso   1.000  O
  N1       1.0000 0.02120  0.66330  0.65260  Biso   1.000  N
  N2       1.0000 0.86050  0.52630  0.58870  Biso   1.000  N
  N3       1.0000 0.19580  0.37340  0.74800  Biso   1.000  N
  O16      1.0000 0.24450  0.52890  0.56210  Biso   1.000  O
  N4       1.0000 0.64700  0.94730  0.80610  Biso   1.000  N
  C1       1.0000 0.69230  0.99280  0.82960  Biso   1.000  C
  N5       1.0000 0.47910  0.90360  0.75180  Biso   1.000  N
  N6       1.0000 0.78580  0.96660  0.83550  Biso   1.000  N
  N7       1.0000 0.55010  0.09200  0.81330  Biso   1.000  N
  N8       1.0000 0.39280  0.08170  0.72160  Biso   1.000  N
  N9       1.0000 0.59920  0.10180  0.67180  Biso   1.000  N
  N10      1.0000 0.23550  0.08230  0.73700  Biso   1.000  N
  N11      1.0000 0.64770  0.23390  0.62570  Biso   1.000  N
  N12      1.0000 0.43090  0.77310  0.81800  Biso   1.000  N
  N13      1.0000 0.43300  0.95310  0.86590  Biso   1.000  N
  C2       1.0000 0.47180  0.86970  0.69910  Biso   1.000  C
  O17      1.0000 0.28680  0.55570  0.65630  Biso   1.000  O
  C3       1.0000 0.88200  0.09010  0.78950  Biso   1.000  C
  C4       1.0000 0.90250  0.18430  0.65580  Biso   1.000  C
  H1       1.0000 0.89740  0.19570  0.60470  Biso   1.000  H
  C5       1.0000 0.68560  0.20010  0.57330  Biso   1.000  C
  C6       1.0000 0.32070  0.04870  0.76870  Biso   1.000  C
  C7       1.0000 0.13270  0.80540  0.84070  Biso   1.000  C
  H2       1.0000 0.11370  0.75910  0.88570  Biso   1.000  H
  C8       1.0000 0.61160  0.56480  0.04950  Biso   1.000  C
  C9       1.0000 0.35300  0.14030  0.65010  Biso   1.000  C
  C10      1.0000 0.39400  0.47150  0.61100  Biso   1.000  C
  C11      1.0000 0.59700  0.17360  0.68070  Biso   1.000  C
  C12      1.0000 0.71640  0.88790  0.79540  Biso   1.000  C
  C13      1.0000 0.45250  0.84540  0.82040  Biso   1.000  C
  C14      1.0000 0.41470  0.42910  0.56430  Biso   1.000  C
  H3       1.0000 0.37110  0.43450  0.52980  Biso   1.000  H
  C15      1.0000 0.25550  0.14130  0.65990  Biso   1.000  C
  C16      1.0000 0.50000  0.37860  0.56830  Biso   1.000  C
  H4       1.0000 0.51230  0.34900  0.53780  Biso   1.000  H
  C17      1.0000 0.14960  0.95500  0.77290  Biso   1.000  C
  C18      1.0000 0.16670  0.79210  0.77680  Biso   1.000  C
  C19      1.0000 0.66030  0.31860  0.62140  Biso   1.000  C
  H5       1.0000 0.70060  0.34930  0.57610  Biso   1.000  H
  H6       1.0000 0.69160  0.31050  0.66640  Biso   1.000  H
  C20      1.0000 0.56640  0.37250  0.61750  Biso   1.000  C
  C21      1.0000 0.80320  0.89940  0.81520  Biso   1.000  C
  C22      1.0000 0.45120  0.85960  0.88960  Biso   1.000  C
  H7       1.0000 0.51150  0.83810  0.91310  Biso   1.000  H
  H8       1.0000 0.40190  0.82940  0.92690  Biso   1.000  H
  C23      1.0000 0.14600  0.04550  0.77020  Biso   1.000  C
  H9       1.0000 0.09480  0.08270  0.73940  Biso   1.000  H
  H10      1.0000 0.13410  0.04140  0.82200  Biso   1.000  H
  C24      1.0000 0.94500  0.22580  0.74800  Biso   1.000  C
  H11      1.0000 0.97090  0.26460  0.75980  Biso   1.000  H
  C25      1.0000 0.47610  0.64830  0.94050  Biso   1.000  C
  C26      1.0000 0.54590  0.18060  0.74950  Biso   1.000  C
  H12      1.0000 0.57590  0.21860  0.76310  Biso   1.000  H
  H13      1.0000 0.48070  0.20360  0.73900  Biso   1.000  H
  C27      1.0000 0.76980  0.18140  0.47090  Biso   1.000  C
  H14      1.0000 0.80690  0.20220  0.42500  Biso   1.000  H
  C28      1.0000 0.46140  0.98400  0.91910  Biso   1.000  C
  H15      1.0000 0.51960  0.95140  0.94180  Biso   1.000  H
  H16      1.0000 0.41280  0.97500  0.96040  Biso   1.000  H
  C29      1.0000 0.44390  0.78680  0.74020  Biso   1.000  C
  C30      1.0000 0.87690  0.10840  0.71340  Biso   1.000  C
  H17      1.0000 0.85550  0.06800  0.70090  Biso   1.000  H
  C31      1.0000 0.45980  0.46270  0.66200  Biso   1.000  C
  H18      1.0000 0.44680  0.49010  0.69430  Biso   1.000  H
  C32      1.0000 0.12640  0.88590  0.83860  Biso   1.000  C
  H19      1.0000 0.10590  0.89300  0.88290  Biso   1.000  H
  C33      1.0000 0.85550  0.00580  0.85560  Biso   1.000  C
  H20      1.0000 0.91190  0.96580  0.87060  Biso   1.000  H
  H21      1.0000 0.83050  0.01650  0.89950  Biso   1.000  H
  C34      1.0000 0.93630  0.24520  0.67290  Biso   1.000  C
  C35      1.0000 0.30140  0.52230  0.61070  Biso   1.000  C
  C36      1.0000 0.64710  0.06560  0.84400  Biso   1.000  C
  H22      1.0000 0.68540  0.11390  0.81920  Biso   1.000  H
  H23      1.0000 0.64220  0.04920  0.89900  Biso   1.000  H
  C37      1.0000 0.54610  0.41260  0.66480  Biso   1.000  C
  H24      1.0000 0.58990  0.40670  0.69930  Biso   1.000  H
  C38      1.0000 0.57020  0.65110  0.91860  Biso   1.000  C
  H25      1.0000 0.58870  0.68080  0.86670  Biso   1.000  H
  C39      1.0000 0.68490  0.52510  0.10880  Biso   1.000  C
  C40      1.0000 0.91680  0.15090  0.80720  Biso   1.000  C
  H26      1.0000 0.92070  0.14050  0.85820  Biso   1.000  H
  C41      1.0000 0.39730  0.18930  0.58090  Biso   1.000  C
  H27      1.0000 0.46280  0.18840  0.57370  Biso   1.000  H
  C42      1.0000 0.19820  0.18800  0.60100  Biso   1.000  C
  H28      1.0000 0.13310  0.18560  0.60680  Biso   1.000  H
  C43      1.0000 0.71120  0.82380  0.77060  Biso   1.000  C
  H29      1.0000 0.65400  0.81400  0.75870  Biso   1.000  H
  C44      1.0000 0.47580  0.07790  0.87730  Biso   1.000  C
  H30      1.0000 0.41690  0.11080  0.85650  Biso   1.000  H
  H31      1.0000 0.49500  0.09760  0.91280  Biso   1.000  H
  C45      1.0000 0.74360  0.23300  0.50550  Biso   1.000  C
  H32      1.0000 0.76290  0.28830  0.48550  Biso   1.000  H
  C46      1.0000 0.74330  0.09610  0.50160  Biso   1.000  C
  H33      1.0000 0.76380  0.06220  0.47570  Biso   1.000  H
  C47      1.0000 0.68680  0.06220  0.57020  Biso   1.000  C
  H34      1.0000 0.67040  0.00580  0.59170  Biso   1.000  H
  C48      1.0000 0.48990  0.90340  0.62140  Biso   1.000  C
  H35      1.0000 0.50930  0.95860  0.59330  Biso   1.000  H
  C49      1.0000 0.43170  0.73540  0.70420  Biso   1.000  C
  H36      1.0000 0.41370  0.67960  0.73160  Biso   1.000  H
  C50      1.0000 0.40070  0.69390  0.88330  Biso   1.000  C
  H37      1.0000 0.38450  0.65490  0.86380  Biso   1.000  H
  H38      1.0000 0.34420  0.70860  0.90950  Biso   1.000  H
  C51      1.0000 0.18620  0.94200  0.70740  Biso   1.000  C
  H39      1.0000 0.20400  0.98830  0.66190  Biso   1.000  H
  C52      1.0000 0.32980  0.98300  0.84840  Biso   1.000  C
  H40      1.0000 0.29680  0.93400  0.85680  Biso   1.000  H
  H41      1.0000 0.30060  0.00670  0.88340  Biso   1.000  H
  C53      1.0000 0.44880  0.60310  0.01750  Biso   1.000  C
  H42      1.0000 0.38490  0.60160  0.03320  Biso   1.000  H
  C54      1.0000 0.79310  0.77630  0.76470  Biso   1.000  C
  H43      1.0000 0.79170  0.73440  0.74740  Biso   1.000  H
  C55      1.0000 0.51630  0.55980  0.07190  Biso   1.000  C
  H44      1.0000 0.49740  0.52760  0.12330  Biso   1.000  H
  C56      1.0000 0.88640  0.85080  0.80790  Biso   1.000  C
  H45      1.0000 0.94460  0.85990  0.81890  Biso   1.000  H
  C57      1.0000 0.87790  0.78910  0.78380  Biso   1.000  C
  H46      1.0000 0.93170  0.75420  0.78020  Biso   1.000  H
  C58      1.0000 0.33770  0.24100  0.52200  Biso   1.000  C
  H47      1.0000 0.36420  0.27760  0.47440  Biso   1.000  H
  C59      1.0000 0.44830  0.77290  0.62440  Biso   1.000  C
  H48      1.0000 0.43830  0.74230  0.59720  Biso   1.000  H
  C60      1.0000 0.47790  0.85090  0.58610  Biso   1.000  C
  H49      1.0000 0.49130  0.87170  0.53320  Biso   1.000  H
  C61      1.0000 0.24320  0.23960  0.53170  Biso   1.000  C
  H50      1.0000 0.20660  0.27470  0.49020  Biso   1.000  H
  C62      1.0000 0.96380  0.33020  0.60810  Biso   1.000  C
  C63      1.0000 0.17380  0.70400  0.77920  Biso   1.000  C
  C64      1.0000 0.19490  0.86120  0.71190  Biso   1.000  C
  H51      1.0000 0.22090  0.85250  0.66940  Biso   1.000  H
  C65      1.0000 0.63830  0.61110  0.97170  Biso   1.000  C
  H52      1.0000 0.70210  0.61500  0.95560  Biso   1.000  H
  C66      1.0000 0.65690  0.11700  0.60390  Biso   1.000  C
  La3      1.0000 0.82336  0.45987  0.22945  Biso   1.000  La
  La4      1.0000 0.92848  0.48316  0.42067  Biso   1.000  La
  Ni2      1.0000 0.47973  0.98860  0.23904  Biso   1.000  Ni
  O18      1.0000 0.98610  0.62710  0.37290  Biso   1.000  O
  O19      1.0000 0.09890  0.46790  0.47470  Biso   1.000  O
  O20      1.0000 0.06620  0.64810  0.45620  Biso   1.000  O
  O21      1.0000 0.86270  0.56820  0.29020  Biso   1.000  O
  O22      1.0000 0.76180  0.61990  0.20110  Biso   1.000  O
  O23      1.0000 0.34060  0.52650  0.82170  Biso   1.000  O
  O24      1.0000 0.23070  0.45790  0.91100  Biso   1.000  O
  O25      1.0000 0.92280  0.38900  0.35550  Biso   1.000  O
  O26      1.0000 0.03250  0.26930  0.39130  Biso   1.000  O
  O27      1.0000 0.09680  0.46630  0.36370  Biso   1.000  O
  O28      1.0000 0.24560  0.48400  0.39870  Biso   1.000  O
  O29      1.0000 0.79160  0.30390  0.28160  Biso   1.000  O
  O30      1.0000 0.85300  0.35740  0.16200  Biso   1.000  O
  O31      1.0000 0.98450  0.34750  0.27260  Biso   1.000  O
  O32      1.0000 0.77930  0.70710  0.26620  Biso   1.000  O
  N14      1.0000 0.97880  0.33670  0.34740  Biso   1.000  N
  N15      1.0000 0.13950  0.47370  0.41130  Biso   1.000  N
  N16      1.0000 0.80420  0.62660  0.25200  Biso   1.000  N
  O33      1.0000 0.75550  0.47110  0.43790  Biso   1.000  O
  N17      1.0000 0.35300  0.05270  0.19390  Biso   1.000  N
  C67      1.0000 0.30770  0.00720  0.17040  Biso   1.000  C
  N18      1.0000 0.52090  0.09640  0.24820  Biso   1.000  N
  N19      1.0000 0.21420  0.03340  0.16450  Biso   1.000  N
  N20      1.0000 0.44990  0.90800  0.18670  Biso   1.000  N
  N21      1.0000 0.60720  0.91830  0.27840  Biso   1.000  N
  N22      1.0000 0.40080  0.89820  0.32820  Biso   1.000  N
  N23      1.0000 0.76450  0.91770  0.26300  Biso   1.000  N
  N24      1.0000 0.35230  0.76610  0.37430  Biso   1.000  N
  N25      1.0000 0.56910  0.22690  0.18200  Biso   1.000  N
  N26      1.0000 0.56700  0.04690  0.13410  Biso   1.000  N
  C68      1.0000 0.52820  0.13030  0.30090  Biso   1.000  C
  O34      1.0000 0.71320  0.44430  0.34370  Biso   1.000  O
  C69      1.0000 0.11800  0.90990  0.21050  Biso   1.000  C
  C70      1.0000 0.09750  0.81570  0.34420  Biso   1.000  C
  H53      1.0000 0.10260  0.80430  0.39530  Biso   1.000  H
  C71      1.0000 0.31440  0.79990  0.42670  Biso   1.000  C
  C72      1.0000 0.67930  0.95130  0.23130  Biso   1.000  C
  C73      1.0000 0.86730  0.19460  0.15930  Biso   1.000  C
  H54      1.0000 0.88630  0.24090  0.11430  Biso   1.000  H
  C74      1.0000 0.38840  0.43520  0.95050  Biso   1.000  C
  C75      1.0000 0.64700  0.85970  0.34990  Biso   1.000  C
  C76      1.0000 0.60600  0.52850  0.38900  Biso   1.000  C
  C77      1.0000 0.40300  0.82640  0.31930  Biso   1.000  C
  C78      1.0000 0.28360  0.11210  0.20460  Biso   1.000  C
  C79      1.0000 0.54750  0.15460  0.17960  Biso   1.000  C
  C80      1.0000 0.58530  0.57090  0.43570  Biso   1.000  C
  H55      1.0000 0.62890  0.56550  0.47020  Biso   1.000  H
  C81      1.0000 0.74450  0.85870  0.34010  Biso   1.000  C
  C82      1.0000 0.50000  0.62140  0.43170  Biso   1.000  C
  H56      1.0000 0.48770  0.65100  0.46220  Biso   1.000  H
  C83      1.0000 0.85040  0.04500  0.22710  Biso   1.000  C
  C84      1.0000 0.83330  0.20790  0.22320  Biso   1.000  C
  C85      1.0000 0.33970  0.68140  0.37860  Biso   1.000  C
  H57      1.0000 0.29940  0.65070  0.42390  Biso   1.000  H
  H58      1.0000 0.30840  0.68950  0.33360  Biso   1.000  H
  C86      1.0000 0.43360  0.62750  0.38250  Biso   1.000  C
  C87      1.0000 0.19680  0.10060  0.18480  Biso   1.000  C
  C88      1.0000 0.54880  0.14040  0.11040  Biso   1.000  C
  H59      1.0000 0.48850  0.16190  0.08690  Biso   1.000  H
  H60      1.0000 0.59810  0.17060  0.07310  Biso   1.000  H
  C89      1.0000 0.85400  0.95450  0.22980  Biso   1.000  C
  H61      1.0000 0.90520  0.91730  0.26060  Biso   1.000  H
  H62      1.0000 0.86590  0.95860  0.17800  Biso   1.000  H
  C90      1.0000 0.05500  0.77420  0.25200  Biso   1.000  C
  H63      1.0000 0.02910  0.73540  0.24020  Biso   1.000  H
  C91      1.0000 0.52390  0.35170  0.05950  Biso   1.000  C
  C92      1.0000 0.45410  0.81940  0.25050  Biso   1.000  C
  H64      1.0000 0.42410  0.78140  0.23690  Biso   1.000  H
  H65      1.0000 0.51930  0.79640  0.26100  Biso   1.000  H
  C93      1.0000 0.23020  0.81860  0.52910  Biso   1.000  C
  H66      1.0000 0.19310  0.79780  0.57500  Biso   1.000  H
  C94      1.0000 0.53860  0.01600  0.08090  Biso   1.000  C
  H67      1.0000 0.48040  0.04860  0.05820  Biso   1.000  H
  H68      1.0000 0.58720  0.02500  0.03960  Biso   1.000  H
  C95      1.0000 0.55610  0.21320  0.25980  Biso   1.000  C
  C96      1.0000 0.12310  0.89160  0.28660  Biso   1.000  C
  H69      1.0000 0.14450  0.93200  0.29910  Biso   1.000  H
  C97      1.0000 0.54020  0.53730  0.33800  Biso   1.000  C
  H70      1.0000 0.55320  0.50990  0.30570  Biso   1.000  H
  C98      1.0000 0.87360  0.11410  0.16140  Biso   1.000  C
  H71      1.0000 0.89410  0.10700  0.11710  Biso   1.000  H
  C99      1.0000 0.14450  0.99420  0.14440  Biso   1.000  C
  H72      1.0000 0.08810  0.03420  0.12940  Biso   1.000  H
  H73      1.0000 0.16950  0.98350  0.10050  Biso   1.000  H
  C100     1.0000 0.06370  0.75480  0.32710  Biso   1.000  C
  C101     1.0000 0.69860  0.47770  0.38930  Biso   1.000  C
  C102     1.0000 0.35290  0.93440  0.15600  Biso   1.000  C
  H74      1.0000 0.31460  0.88610  0.18080  Biso   1.000  H
  H75      1.0000 0.35780  0.95080  0.10100  Biso   1.000  H
  C103     1.0000 0.45390  0.58740  0.33520  Biso   1.000  C
  H76      1.0000 0.41010  0.59330  0.30070  Biso   1.000  H
  C104     1.0000 0.42980  0.34890  0.08140  Biso   1.000  C
  H77      1.0000 0.41130  0.31920  0.13330  Biso   1.000  H
  C105     1.0000 0.31510  0.47490  0.89120  Biso   1.000  C
  C106     1.0000 0.08320  0.84910  0.19280  Biso   1.000  C
  H78      1.0000 0.07930  0.85950  0.14180  Biso   1.000  H
  C107     1.0000 0.60270  0.81070  0.41910  Biso   1.000  C
  H79      1.0000 0.53720  0.81160  0.42630  Biso   1.000  H
  C108     1.0000 0.80180  0.81200  0.39900  Biso   1.000  C
  H80      1.0000 0.86690  0.81440  0.39320  Biso   1.000  H
  C109     1.0000 0.28880  0.17620  0.22940  Biso   1.000  C
  H81      1.0000 0.34600  0.18600  0.24130  Biso   1.000  H
  C110     1.0000 0.52420  0.92210  0.12270  Biso   1.000  C
  H82      1.0000 0.58310  0.88920  0.14350  Biso   1.000  H
  H83      1.0000 0.50500  0.90240  0.08720  Biso   1.000  H
  C111     1.0000 0.25640  0.76700  0.49450  Biso   1.000  C
  H84      1.0000 0.23710  0.71170  0.51450  Biso   1.000  H
  C112     1.0000 0.25670  0.90390  0.49840  Biso   1.000  C
  H85      1.0000 0.23620  0.93780  0.52430  Biso   1.000  H
  C113     1.0000 0.31320  0.93780  0.42980  Biso   1.000  C
  H86      1.0000 0.32960  0.99420  0.40830  Biso   1.000  H
  C114     1.0000 0.51010  0.09660  0.37860  Biso   1.000  C
  H87      1.0000 0.49070  0.04140  0.40670  Biso   1.000  H
  C115     1.0000 0.56830  0.26460  0.29580  Biso   1.000  C
  H88      1.0000 0.58630  0.32040  0.26840  Biso   1.000  H
  C116     1.0000 0.59930  0.30610  0.11670  Biso   1.000  C
  H89      1.0000 0.61550  0.34510  0.13620  Biso   1.000  H
  H90      1.0000 0.65580  0.29140  0.09050  Biso   1.000  H
  C117     1.0000 0.81380  0.05800  0.29260  Biso   1.000  C
  H91      1.0000 0.79600  0.01170  0.33810  Biso   1.000  H
  C118     1.0000 0.67020  0.01700  0.15160  Biso   1.000  C
  H92      1.0000 0.70320  0.06600  0.14320  Biso   1.000  H
  H93      1.0000 0.69940  0.99330  0.11660  Biso   1.000  H
  C119     1.0000 0.55120  0.39690  0.98250  Biso   1.000  C
  H94      1.0000 0.61510  0.39840  0.96680  Biso   1.000  H
  C120     1.0000 0.20690  0.22370  0.23530  Biso   1.000  C
  H95      1.0000 0.20830  0.26560  0.25260  Biso   1.000  H
  C121     1.0000 0.48370  0.44020  0.92810  Biso   1.000  C
  H96      1.0000 0.50260  0.47240  0.87670  Biso   1.000  H
  C122     1.0000 0.11360  0.14920  0.19210  Biso   1.000  C
  H97      1.0000 0.05540  0.14010  0.18110  Biso   1.000  H
  C123     1.0000 0.12210  0.21090  0.21620  Biso   1.000  C
  H98      1.0000 0.06830  0.24580  0.21980  Biso   1.000  H
  C124     1.0000 0.66230  0.75900  0.47800  Biso   1.000  C
  H99      1.0000 0.63580  0.72240  0.52560  Biso   1.000  H
  C125     1.0000 0.55170  0.22710  0.37560  Biso   1.000  C
  H100     1.0000 0.56170  0.25770  0.40280  Biso   1.000  H
  C126     1.0000 0.52210  0.14910  0.41390  Biso   1.000  C
  H101     1.0000 0.50870  0.12830  0.46680  Biso   1.000  H
  C127     1.0000 0.75680  0.76040  0.46830  Biso   1.000  C
  H102     1.0000 0.79340  0.72530  0.50980  Biso   1.000  H
  C128     1.0000 0.03620  0.66980  0.39190  Biso   1.000  C
  C129     1.0000 0.82620  0.29600  0.22080  Biso   1.000  C
  C130     1.0000 0.80510  0.13880  0.28810  Biso   1.000  C
  H103     1.0000 0.77910  0.14750  0.33060  Biso   1.000  H
  C131     1.0000 0.36170  0.38890  0.02830  Biso   1.000  C
  H104     1.0000 0.29790  0.38500  0.04440  Biso   1.000  H
  C132     1.0000 0.34310  0.88300  0.39610  Biso   1.000  C
