data_RIFQUT_clean
_audit_creation_date              2014-07-02
_audit_creation_method            'Materials Studio'
_symmetry_space_group_name_H-M    'P1'
_symmetry_Int_Tables_number       1
_symmetry_cell_setting            triclinic
loop_
_symmetry_equiv_pos_as_xyz
  x,y,z
_cell_length_a                    8.2660
_cell_length_b                    12.8740
_cell_length_c                    15.7062
_cell_angle_alpha                 114.1950
_cell_angle_beta                  96.6165
_cell_angle_gamma                 90.0000
loop_
_atom_site_label
_atom_site_type_symbol
_atom_site_fract_x
_atom_site_fract_y
_atom_site_fract_z
_atom_site_U_iso_or_equiv
_atom_site_adp_type
_atom_site_occupancy
Co1    Co    0.93339   0.38279   0.49484   0.01267  Uiso   1.00
Co2    Co    0.54361   0.38084   0.49186   0.01267  Uiso   1.00
Co3    Co    0.85619   0.25386   0.27218   0.01267  Uiso   1.00
Co4    Co    0.56661   0.88795   0.50516   0.01267  Uiso   1.00
Co5    Co    0.95639   0.88898   0.50814   0.01267  Uiso   1.00
Co6    Co    0.64381   0.98168   0.72782   0.01267  Uiso   1.00
Co7    Co    0.06661   0.61721   0.50516   0.01267  Uiso   1.00
Co8    Co    0.45639   0.61916   0.50814   0.01267  Uiso   1.00
Co9    Co    0.14381   0.74614   0.72782   0.01267  Uiso   1.00
Co10   Co    0.43339   0.11205   0.49484   0.01267  Uiso   1.00
Co11   Co    0.04361   0.11102   0.49186   0.01267  Uiso   1.00
Co12   Co    0.35619   0.01832   0.27218   0.01267  Uiso   1.00
P1     P     0.72380   0.48953   0.37030   0.01267  Uiso   1.00
P2     P     0.20520   0.22622   0.37252   0.01267  Uiso   1.00
P3     P     0.77620   0.11923   0.62970   0.01267  Uiso   1.00
P4     P     0.29480   0.85370   0.62748   0.01267  Uiso   1.00
P5     P     0.27620   0.51047   0.62970   0.01267  Uiso   1.00
P6     P     0.79480   0.77378   0.62748   0.01267  Uiso   1.00
P7     P     0.22380   0.88077   0.37030   0.01267  Uiso   1.00
P8     P     0.70520   0.14630   0.37252   0.01267  Uiso   1.00
H1     H     0.66470   0.64010   0.38040   0.01267  Uiso   1.00
H2     H     0.08630   0.24010   0.17260   0.01267  Uiso   1.00
H3     H     0.97790   0.15410   0.02260   0.01267  Uiso   1.00
H4     H     0.71740   0.29360   0.09440   0.01267  Uiso   1.00
H5     H     0.86580   0.33120   0.05760   0.01267  Uiso   1.00
H6     H     0.85890   0.01510   0.06100   0.01267  Uiso   1.00
H7     H     0.70990   0.09140   0.09320   0.01267  Uiso   1.00
H8     H     0.83530   0.25970   0.61960   0.01267  Uiso   1.00
H9     H     0.41370   0.06750   0.82740   0.01267  Uiso   1.00
H10    H     0.52210   0.13150   0.97740   0.01267  Uiso   1.00
H11    H     0.78260   0.19920   0.90560   0.01267  Uiso   1.00
H12    H     0.63420   0.27360   0.94240   0.01267  Uiso   1.00
H13    H     0.64110   0.95410   0.93900   0.01267  Uiso   1.00
H14    H     0.79010   0.99820   0.90680   0.01267  Uiso   1.00
H15    H     0.33530   0.35990   0.61960   0.01267  Uiso   1.00
H16    H     0.91370   0.75990   0.82740   0.01267  Uiso   1.00
H17    H     0.02210   0.84590   0.97740   0.01267  Uiso   1.00
H18    H     0.28260   0.70640   0.90560   0.01267  Uiso   1.00
H19    H     0.13420   0.66880   0.94240   0.01267  Uiso   1.00
H20    H     0.14110   0.98490   0.93900   0.01267  Uiso   1.00
H21    H     0.29010   0.90860   0.90680   0.01267  Uiso   1.00
H22    H     0.16470   0.74030   0.38040   0.01267  Uiso   1.00
H23    H     0.58630   0.93250   0.17260   0.01267  Uiso   1.00
H24    H     0.47790   0.86850   0.02260   0.01267  Uiso   1.00
H25    H     0.21740   0.80080   0.09440   0.01267  Uiso   1.00
H26    H     0.36580   0.72640   0.05760   0.01267  Uiso   1.00
H27    H     0.35890   0.04590   0.06100   0.01267  Uiso   1.00
H28    H     0.20990   0.00180   0.09320   0.01267  Uiso   1.00
C1     C     0.89640   0.17700   0.06660   0.01267  Uiso   1.00
C2     C     0.79500   0.26670   0.04920   0.01267  Uiso   1.00
C3     C     0.79120   0.07090   0.04980   0.01267  Uiso   1.00
C4     C     0.60360   0.11040   0.93340   0.01267  Uiso   1.00
C5     C     0.70500   0.21750   0.95080   0.01267  Uiso   1.00
C6     C     0.70880   0.02110   0.95020   0.01267  Uiso   1.00
C7     C     0.10360   0.82300   0.93340   0.01267  Uiso   1.00
C8     C     0.20500   0.73330   0.95080   0.01267  Uiso   1.00
C9     C     0.20880   0.92910   0.95020   0.01267  Uiso   1.00
C10    C     0.39640   0.88960   0.06660   0.01267  Uiso   1.00
C11    C     0.29500   0.78250   0.04920   0.01267  Uiso   1.00
C12    C     0.29120   0.97890   0.04980   0.01267  Uiso   1.00
N1     N     0.98280   0.22470   0.16300   0.01267  Uiso   1.00
N2     N     0.51720   0.06170   0.83700   0.01267  Uiso   1.00
N3     N     0.01720   0.77530   0.83700   0.01267  Uiso   1.00
N4     N     0.48280   0.93830   0.16300   0.01267  Uiso   1.00
O1     O     0.57830   0.48595   0.42070   0.01267  Uiso   1.00
O2     O     0.88240   0.49640   0.43320   0.01267  Uiso   1.00
O3     O     0.72050   0.38030   0.28160   0.01267  Uiso   1.00
O4     O     0.71870   0.59120   0.34520   0.01267  Uiso   1.00
O5     O     0.03650   0.27661   0.37602   0.01267  Uiso   1.00
O6     O     0.22170   0.15760   0.43280   0.01267  Uiso   1.00
O7     O     0.33300   0.32180   0.40620   0.01267  Uiso   1.00
O8     O     0.22360   0.14580   0.27120   0.01267  Uiso   1.00
O9     O     0.00840   0.28880   0.57340   0.01267  Uiso   1.00
O10    O     0.92170   0.06525   0.57930   0.01267  Uiso   1.00
O11    O     0.61760   0.06320   0.56680   0.01267  Uiso   1.00
O12    O     0.77950   0.09870   0.71840   0.01267  Uiso   1.00
O13    O     0.78130   0.24600   0.65480   0.01267  Uiso   1.00
O14    O     0.46350   0.90059   0.62398   0.01267  Uiso   1.00
O15    O     0.27830   0.72480   0.56720   0.01267  Uiso   1.00
O16    O     0.16700   0.91560   0.59380   0.01267  Uiso   1.00
O17    O     0.27640   0.87460   0.72880   0.01267  Uiso   1.00
O18    O     0.49160   0.71540   0.42660   0.01267  Uiso   1.00
O19    O     0.42170   0.51405   0.57930   0.01267  Uiso   1.00
O20    O     0.11760   0.50360   0.56680   0.01267  Uiso   1.00
O21    O     0.27950   0.61970   0.71840   0.01267  Uiso   1.00
O22    O     0.28130   0.40880   0.65480   0.01267  Uiso   1.00
O23    O     0.96350   0.72339   0.62398   0.01267  Uiso   1.00
O24    O     0.77830   0.84240   0.56720   0.01267  Uiso   1.00
O25    O     0.66700   0.67820   0.59380   0.01267  Uiso   1.00
O26    O     0.77640   0.85420   0.72880   0.01267  Uiso   1.00
O27    O     0.99160   0.71120   0.42660   0.01267  Uiso   1.00
O28    O     0.07830   0.93475   0.42070   0.01267  Uiso   1.00
O29    O     0.38240   0.93680   0.43320   0.01267  Uiso   1.00
O30    O     0.22050   0.90130   0.28160   0.01267  Uiso   1.00
O31    O     0.21870   0.75400   0.34520   0.01267  Uiso   1.00
O32    O     0.53650   0.09941   0.37602   0.01267  Uiso   1.00
O33    O     0.72170   0.27520   0.43280   0.01267  Uiso   1.00
O34    O     0.83300   0.08440   0.40620   0.01267  Uiso   1.00
O35    O     0.72360   0.12540   0.27120   0.01267  Uiso   1.00
O36    O     0.50840   0.28460   0.57340   0.01267  Uiso   1.00
