data_RIFQEC_clean
_audit_creation_date              2014-07-02
_audit_creation_method            'Materials Studio'
_symmetry_space_group_name_H-M    'P1'
_symmetry_Int_Tables_number       1
_symmetry_cell_setting            triclinic
loop_
_symmetry_equiv_pos_as_xyz
  x,y,z
_cell_length_a                    6.3290
_cell_length_b                    8.7430
_cell_length_c                    13.0000
_cell_angle_alpha                 105.6100
_cell_angle_beta                  90.5500
_cell_angle_gamma                 105.1000
loop_
_atom_site_label
_atom_site_type_symbol
_atom_site_fract_x
_atom_site_fract_y
_atom_site_fract_z
_atom_site_U_iso_or_equiv
_atom_site_adp_type
_atom_site_occupancy
Ce1    Ce    0.93974   0.96987   0.74275   0.01267  Uiso   1.00
Ce2    Ce    0.69037   0.33301   0.92472   0.01267  Uiso   1.00
Ce3    Ce    0.06026   0.03013   0.25725   0.01267  Uiso   1.00
Ce4    Ce    0.30963   0.66699   0.07528   0.01267  Uiso   1.00
C1     C     0.76740   0.60390   0.78090   0.01267  Uiso   1.00
C2     C     0.95570   0.69430   0.87050   0.01267  Uiso   1.00
C3     C     0.55400   0.94880   0.95450   0.01267  Uiso   1.00
C4     C     0.90630   0.91950   0.47840   0.01267  Uiso   1.00
C5     C     0.21460   0.29200   0.86900   0.01267  Uiso   1.00
C6     C     0.23260   0.39610   0.21910   0.01267  Uiso   1.00
C7     C     0.04430   0.30570   0.12950   0.01267  Uiso   1.00
C8     C     0.44600   0.05120   0.04550   0.01267  Uiso   1.00
C9     C     0.09370   0.08050   0.52160   0.01267  Uiso   1.00
C10    C     0.78540   0.70800   0.13100   0.01267  Uiso   1.00
O1     O     0.73510   0.68170   0.71630   0.01267  Uiso   1.00
O2     O     0.66420   0.45880   0.77600   0.01267  Uiso   1.00
O3     O     0.05510   0.83840   0.87390   0.01267  Uiso   1.00
O4     O     0.99270   0.61350   0.93250   0.01267  Uiso   1.00
O5     O     0.51940   0.79850   0.94450   0.01267  Uiso   1.00
O6     O     0.67100   0.02830   0.89700   0.01267  Uiso   1.00
O7     O     0.81430   0.85210   0.54580   0.01267  Uiso   1.00
O8     O     0.85820   0.87180   0.37910   0.01267  Uiso   1.00
O9     O     0.33810   0.43070   0.92390   0.01267  Uiso   1.00
O10    O     0.01300   0.26900   0.83990   0.01267  Uiso   1.00
O11    O     0.29690   0.16930   0.83980   0.01267  Uiso   1.00
O12    O     0.63930   0.10290   0.70640   0.01267  Uiso   1.00
O13    O     0.26490   0.31830   0.28370   0.01267  Uiso   1.00
O14    O     0.33580   0.54120   0.22400   0.01267  Uiso   1.00
O15    O     0.94490   0.16160   0.12610   0.01267  Uiso   1.00
O16    O     0.00730   0.38650   0.06750   0.01267  Uiso   1.00
O17    O     0.48060   0.20150   0.05550   0.01267  Uiso   1.00
O18    O     0.32900   0.97170   0.10300   0.01267  Uiso   1.00
O19    O     0.18570   0.14790   0.45420   0.01267  Uiso   1.00
O20    O     0.14180   0.12820   0.62090   0.01267  Uiso   1.00
O21    O     0.66190   0.56930   0.07610   0.01267  Uiso   1.00
O22    O     0.98700   0.73100   0.16010   0.01267  Uiso   1.00
O23    O     0.70310   0.83070   0.16020   0.01267  Uiso   1.00
O24    O     0.36070   0.89710   0.29360   0.01267  Uiso   1.00
