data_image0
_cell_length_a       9.399
_cell_length_b       9.848
_cell_length_c       21.834
_cell_angle_alpha    90
_cell_angle_beta     102.09
_cell_angle_gamma    90

_symmetry_space_group_name_H-M    "P 1"
_symmetry_int_tables_number       1

loop_
  _symmetry_equiv_pos_as_xyz
  'x, y, z'

loop_
  _atom_site_label
  _atom_site_occupancy
  _atom_site_fract_x
  _atom_site_fract_y
  _atom_site_fract_z
  _atom_site_thermal_displace_type
  _atom_site_B_iso_or_equiv
  _atom_site_type_symbol
  Cu1      1.0000 0.21073  0.13988  0.33778  Biso   1.000  Cu
  N1       1.0000 0.36280  0.26860  0.37740  Biso   1.000  N
  N2       1.0000 0.10170  0.01810  0.39110  Biso   1.000  N
  N3       1.0000 0.11830  0.40890  0.74930  Biso   1.000  N
  N4       1.0000 0.78240  0.48330  0.53500  Biso   1.000  N
  C1       1.0000 0.43220  0.24320  0.43740  Biso   1.000  C
  H1       1.0000 0.40370  0.16800  0.45760  Biso   1.000  H
  C2       1.0000 0.54370  0.32410  0.46980  Biso   1.000  C
  H2       1.0000 0.58550  0.30420  0.51130  Biso   1.000  H
  C3       1.0000 0.59370  0.43560  0.44050  Biso   1.000  C
  C4       1.0000 0.52180  0.46060  0.37850  Biso   1.000  C
  H3       1.0000 0.54900  0.53400  0.35680  Biso   1.000  H
  C5       1.0000 0.40940  0.37530  0.34960  Biso   1.000  C
  H4       1.0000 0.36410  0.39390  0.30830  Biso   1.000  H
  C6       1.0000 0.71970  0.52090  0.47470  Biso   1.000  C
  C7       1.0000 0.89970  0.55770  0.56680  Biso   1.000  C
  C8       1.0000 0.95400  0.66640  0.54060  Biso   1.000  C
  H5       1.0000 0.03270  0.71400  0.56370  Biso   1.000  H
  C9       1.0000 0.89290  0.70650  0.48000  Biso   1.000  C
  C10      1.0000 0.77120  0.63430  0.44700  Biso   1.000  C
  H6       1.0000 0.72520  0.66170  0.40700  Biso   1.000  H
  C11      1.0000 0.95910  0.81930  0.45080  Biso   1.000  C
  C12      1.0000 0.10580  0.85230  0.47190  Biso   1.000  C
  H7       1.0000 0.16050  0.80830  0.50660  Biso   1.000  H
  C13      1.0000 0.17060  0.95110  0.44080  Biso   1.000  C
  H8       1.0000 0.26840  0.97090  0.45610  Biso   1.000  H
  C14      1.0000 0.96060  0.99190  0.37160  Biso   1.000  C
  H9       1.0000 0.90860  0.04160  0.33800  Biso   1.000  H
  C15      1.0000 0.88660  0.89360  0.39880  Biso   1.000  C
  H10      1.0000 0.78860  0.87720  0.38230  Biso   1.000  H
  C16      1.0000 0.97340  0.50820  0.63080  Biso   1.000  C
  C17      1.0000 0.91660  0.40230  0.66040  Biso   1.000  C
  H11      1.0000 0.82910  0.36200  0.64130  Biso   1.000  H
  C18      1.0000 0.99090  0.35670  0.71870  Biso   1.000  C
  H12      1.0000 0.95020  0.28610  0.73750  Biso   1.000  H
  C19      1.0000 0.17230  0.51410  0.72100  Biso   1.000  C
  H13      1.0000 0.25970  0.55320  0.74120  Biso   1.000  H
  C20      1.0000 0.10330  0.56560  0.66370  Biso   1.000  C
  H14      1.0000 0.14350  0.63930  0.64680  Biso   1.000  H
  Cu2      1.0000 0.21073  0.36012  0.83778  Biso   1.000  Cu
  N5       1.0000 0.36280  0.23140  0.87740  Biso   1.000  N
  N6       1.0000 0.10170  0.48190  0.89110  Biso   1.000  N
  N7       1.0000 0.11830  0.09110  0.24930  Biso   1.000  N
  N8       1.0000 0.78240  0.01670  0.03500  Biso   1.000  N
  C21      1.0000 0.43220  0.25680  0.93740  Biso   1.000  C
  H15      1.0000 0.40370  0.33200  0.95760  Biso   1.000  H
  C22      1.0000 0.54370  0.17590  0.96980  Biso   1.000  C
  H16      1.0000 0.58550  0.19580  0.01130  Biso   1.000  H
  C23      1.0000 0.59370  0.06440  0.94050  Biso   1.000  C
  C24      1.0000 0.52180  0.03940  0.87850  Biso   1.000  C
  H17      1.0000 0.54900  0.96600  0.85680  Biso   1.000  H
  C25      1.0000 0.40940  0.12470  0.84960  Biso   1.000  C
  H18      1.0000 0.36410  0.10610  0.80830  Biso   1.000  H
  C26      1.0000 0.71970  0.97910  0.97470  Biso   1.000  C
  C27      1.0000 0.89970  0.94230  0.06680  Biso   1.000  C
  C28      1.0000 0.95400  0.83360  0.04060  Biso   1.000  C
  H19      1.0000 0.03270  0.78600  0.06370  Biso   1.000  H
  C29      1.0000 0.89290  0.79350  0.98000  Biso   1.000  C
  C30      1.0000 0.77120  0.86570  0.94700  Biso   1.000  C
  H20      1.0000 0.72520  0.83830  0.90700  Biso   1.000  H
  C31      1.0000 0.95910  0.68070  0.95080  Biso   1.000  C
  C32      1.0000 0.10580  0.64770  0.97190  Biso   1.000  C
  H21      1.0000 0.16050  0.69170  0.00660  Biso   1.000  H
  C33      1.0000 0.17060  0.54890  0.94080  Biso   1.000  C
  H22      1.0000 0.26840  0.52910  0.95610  Biso   1.000  H
  C34      1.0000 0.96060  0.50810  0.87160  Biso   1.000  C
  H23      1.0000 0.90860  0.45840  0.83800  Biso   1.000  H
  C35      1.0000 0.88660  0.60640  0.89880  Biso   1.000  C
  H24      1.0000 0.78860  0.62280  0.88230  Biso   1.000  H
  C36      1.0000 0.97340  0.99180  0.13080  Biso   1.000  C
  C37      1.0000 0.91660  0.09770  0.16040  Biso   1.000  C
  H25      1.0000 0.82910  0.13800  0.14130  Biso   1.000  H
  C38      1.0000 0.99090  0.14330  0.21870  Biso   1.000  C
  H26      1.0000 0.95020  0.21390  0.23750  Biso   1.000  H
  C39      1.0000 0.17230  0.98590  0.22100  Biso   1.000  C
  H27      1.0000 0.25970  0.94680  0.24120  Biso   1.000  H
  C40      1.0000 0.10330  0.93440  0.16370  Biso   1.000  C
  H28      1.0000 0.14350  0.86070  0.14680  Biso   1.000  H
  Cu3      1.0000 0.78927  0.63988  0.16222  Biso   1.000  Cu
  N9       1.0000 0.63720  0.76860  0.12260  Biso   1.000  N
  N10      1.0000 0.89830  0.51810  0.10890  Biso   1.000  N
  N11      1.0000 0.88170  0.90890  0.75070  Biso   1.000  N
  N12      1.0000 0.21760  0.98330  0.96500  Biso   1.000  N
  C41      1.0000 0.56780  0.74320  0.06260  Biso   1.000  C
  H29      1.0000 0.59630  0.66800  0.04240  Biso   1.000  H
  C42      1.0000 0.45630  0.82410  0.03020  Biso   1.000  C
  H30      1.0000 0.41450  0.80420  0.98870  Biso   1.000  H
  C43      1.0000 0.40630  0.93560  0.05950  Biso   1.000  C
  C44      1.0000 0.47820  0.96060  0.12150  Biso   1.000  C
  H31      1.0000 0.45100  0.03400  0.14320  Biso   1.000  H
  C45      1.0000 0.59060  0.87530  0.15040  Biso   1.000  C
  H32      1.0000 0.63590  0.89390  0.19170  Biso   1.000  H
  C46      1.0000 0.28030  0.02090  0.02530  Biso   1.000  C
  C47      1.0000 0.10030  0.05770  0.93320  Biso   1.000  C
  C48      1.0000 0.04600  0.16640  0.95940  Biso   1.000  C
  H33      1.0000 0.96730  0.21400  0.93630  Biso   1.000  H
  C49      1.0000 0.10710  0.20650  0.02000  Biso   1.000  C
  C50      1.0000 0.22880  0.13430  0.05300  Biso   1.000  C
  H34      1.0000 0.27480  0.16170  0.09300  Biso   1.000  H
  C51      1.0000 0.04090  0.31930  0.04920  Biso   1.000  C
  C52      1.0000 0.89420  0.35230  0.02810  Biso   1.000  C
  H35      1.0000 0.83950  0.30830  0.99340  Biso   1.000  H
  C53      1.0000 0.82940  0.45110  0.05920  Biso   1.000  C
  H36      1.0000 0.73160  0.47090  0.04390  Biso   1.000  H
  C54      1.0000 0.03940  0.49190  0.12840  Biso   1.000  C
  H37      1.0000 0.09140  0.54160  0.16200  Biso   1.000  H
  C55      1.0000 0.11340  0.39360  0.10120  Biso   1.000  C
  H38      1.0000 0.21140  0.37720  0.11770  Biso   1.000  H
  C56      1.0000 0.02660  0.00820  0.86920  Biso   1.000  C
  C57      1.0000 0.08340  0.90230  0.83960  Biso   1.000  C
  H39      1.0000 0.17090  0.86200  0.85870  Biso   1.000  H
  C58      1.0000 0.00910  0.85670  0.78130  Biso   1.000  C
  H40      1.0000 0.04980  0.78610  0.76250  Biso   1.000  H
  C59      1.0000 0.82770  0.01410  0.77900  Biso   1.000  C
  H41      1.0000 0.74030  0.05320  0.75880  Biso   1.000  H
  C60      1.0000 0.89670  0.06560  0.83630  Biso   1.000  C
  H42      1.0000 0.85650  0.13930  0.85320  Biso   1.000  H
  Cu4      1.0000 0.78927  0.86012  0.66222  Biso   1.000  Cu
  N13      1.0000 0.63720  0.73140  0.62260  Biso   1.000  N
  N14      1.0000 0.89830  0.98190  0.60890  Biso   1.000  N
  N15      1.0000 0.88170  0.59110  0.25070  Biso   1.000  N
  N16      1.0000 0.21760  0.51670  0.46500  Biso   1.000  N
  C61      1.0000 0.56780  0.75680  0.56260  Biso   1.000  C
  H43      1.0000 0.59630  0.83200  0.54240  Biso   1.000  H
  C62      1.0000 0.45630  0.67590  0.53020  Biso   1.000  C
  H44      1.0000 0.41450  0.69580  0.48870  Biso   1.000  H
  C63      1.0000 0.40630  0.56440  0.55950  Biso   1.000  C
  C64      1.0000 0.47820  0.53940  0.62150  Biso   1.000  C
  H45      1.0000 0.45100  0.46600  0.64320  Biso   1.000  H
  C65      1.0000 0.59060  0.62470  0.65040  Biso   1.000  C
  H46      1.0000 0.63590  0.60610  0.69170  Biso   1.000  H
  C66      1.0000 0.28030  0.47910  0.52530  Biso   1.000  C
  C67      1.0000 0.10030  0.44230  0.43320  Biso   1.000  C
  C68      1.0000 0.04600  0.33360  0.45940  Biso   1.000  C
  H47      1.0000 0.96730  0.28600  0.43630  Biso   1.000  H
  C69      1.0000 0.10710  0.29350  0.52000  Biso   1.000  C
  C70      1.0000 0.22880  0.36570  0.55300  Biso   1.000  C
  H48      1.0000 0.27480  0.33830  0.59300  Biso   1.000  H
  C71      1.0000 0.04090  0.18070  0.54920  Biso   1.000  C
  C72      1.0000 0.89420  0.14770  0.52810  Biso   1.000  C
  H49      1.0000 0.83950  0.19170  0.49340  Biso   1.000  H
  C73      1.0000 0.82940  0.04890  0.55920  Biso   1.000  C
  H50      1.0000 0.73160  0.02910  0.54390  Biso   1.000  H
  C74      1.0000 0.03940  0.00810  0.62840  Biso   1.000  C
  H51      1.0000 0.09140  0.95840  0.66200  Biso   1.000  H
  C75      1.0000 0.11340  0.10640  0.60120  Biso   1.000  C
  H52      1.0000 0.21140  0.12280  0.61770  Biso   1.000  H
  C76      1.0000 0.02660  0.49180  0.36920  Biso   1.000  C
  C77      1.0000 0.08340  0.59770  0.33960  Biso   1.000  C
  H53      1.0000 0.17090  0.63800  0.35870  Biso   1.000  H
  C78      1.0000 0.00910  0.64330  0.28130  Biso   1.000  C
  H54      1.0000 0.04980  0.71390  0.26250  Biso   1.000  H
  C79      1.0000 0.82770  0.48590  0.27900  Biso   1.000  C
  H55      1.0000 0.74030  0.44680  0.25880  Biso   1.000  H
  C80      1.0000 0.89670  0.43440  0.33630  Biso   1.000  C
  H56      1.0000 0.85650  0.36070  0.35320  Biso   1.000  H
