data_image0
_cell_length_a       9.876
_cell_length_b       9.295
_cell_length_c       22.594
_cell_angle_alpha    90
_cell_angle_beta     106.8
_cell_angle_gamma    90

_symmetry_space_group_name_H-M    "P 1"
_symmetry_int_tables_number       1

loop_
  _symmetry_equiv_pos_as_xyz
  'x, y, z'

loop_
  _atom_site_label
  _atom_site_occupancy
  _atom_site_fract_x
  _atom_site_fract_y
  _atom_site_fract_z
  _atom_site_thermal_displace_type
  _atom_site_B_iso_or_equiv
  _atom_site_type_symbol
  Cu1      1.0000 0.69374  0.87556  0.84682  Biso   1.000  Cu
  N1       1.0000 0.61190  0.91160  0.75670  Biso   1.000  N
  C1       1.0000 0.48880  0.85650  0.72370  Biso   1.000  C
  H1       1.0000 0.44770  0.78640  0.74220  Biso   1.000  H
  C2       1.0000 0.60360  0.05700  0.66800  Biso   1.000  C
  H2       1.0000 0.64890  0.12550  0.65040  Biso   1.000  H
  C3       1.0000 0.41830  0.89590  0.66420  Biso   1.000  C
  H3       1.0000 0.33300  0.85200  0.64360  Biso   1.000  H
  C4       1.0000 0.47510  0.00230  0.63450  Biso   1.000  C
  C5       1.0000 0.40280  0.04650  0.56940  Biso   1.000  C
  C6       1.0000 0.39150  0.19350  0.48280  Biso   1.000  C
  N2       1.0000 0.28260  0.97360  0.53870  Biso   1.000  N
  C7       1.0000 0.26860  0.11900  0.45070  Biso   1.000  C
  H4       1.0000 0.22230  0.14410  0.41000  Biso   1.000  H
  C8       1.0000 0.21540  0.00920  0.47830  Biso   1.000  C
  C9       1.0000 0.08780  0.92290  0.44540  Biso   1.000  C
  C10      1.0000 0.00370  0.95730  0.38660  Biso   1.000  C
  H5       1.0000 0.02480  0.03620  0.36560  Biso   1.000  H
  C11      1.0000 0.93230  0.72590  0.44330  Biso   1.000  C
  H6       1.0000 0.90790  0.64790  0.46390  Biso   1.000  H
  C12      1.0000 0.88730  0.87120  0.35990  Biso   1.000  C
  H7       1.0000 0.82980  0.89740  0.32100  Biso   1.000  H
  N3       1.0000 0.85200  0.75320  0.38610  Biso   1.000  N
  N4       1.0000 0.58430  0.51080  0.39500  Biso   1.000  N
  C13      1.0000 0.66500  0.01100  0.72700  Biso   1.000  C
  H8       1.0000 0.75100  0.05240  0.74830  Biso   1.000  H
  C14      1.0000 0.45550  0.15420  0.54230  Biso   1.000  C
  H9       1.0000 0.53680  0.20220  0.56470  Biso   1.000  H
  C15      1.0000 0.04890  0.80540  0.47400  Biso   1.000  C
  H10      1.0000 0.10130  0.78000  0.51380  Biso   1.000  H
  C16      1.0000 0.45420  0.30750  0.45280  Biso   1.000  C
  C17      1.0000 0.38150  0.37180  0.39710  Biso   1.000  C
  H11      1.0000 0.28760  0.34780  0.37810  Biso   1.000  H
  C18      1.0000 0.44870  0.47090  0.37040  Biso   1.000  C
  H12      1.0000 0.39770  0.51270  0.33320  Biso   1.000  H
  C19      1.0000 0.65070  0.45100  0.44910  Biso   1.000  C
  H13      1.0000 0.74330  0.47960  0.46820  Biso   1.000  H
  C20      1.0000 0.59270  0.35100  0.47860  Biso   1.000  C
  H14      1.0000 0.64610  0.31210  0.51600  Biso   1.000  H
  Cu2      1.0000 0.69374  0.62444  0.34682  Biso   1.000  Cu
  N5       1.0000 0.61190  0.58840  0.25670  Biso   1.000  N
  C21      1.0000 0.48880  0.64350  0.22370  Biso   1.000  C
  H15      1.0000 0.44770  0.71360  0.24220  Biso   1.000  H
  C22      1.0000 0.60360  0.44300  0.16800  Biso   1.000  C
  H16      1.0000 0.64890  0.37450  0.15040  Biso   1.000  H
  C23      1.0000 0.41830  0.60410  0.16420  Biso   1.000  C
  H17      1.0000 0.33300  0.64800  0.14360  Biso   1.000  H
  C24      1.0000 0.47510  0.49770  0.13450  Biso   1.000  C
  C25      1.0000 0.40280  0.45350  0.06940  Biso   1.000  C
  C26      1.0000 0.39150  0.30650  0.98280  Biso   1.000  C
  N6       1.0000 0.28260  0.52640  0.03870  Biso   1.000  N
  C27      1.0000 0.26860  0.38100  0.95070  Biso   1.000  C
  H18      1.0000 0.22230  0.35590  0.91000  Biso   1.000  H
  C28      1.0000 0.21540  0.49080  0.97830  Biso   1.000  C
  C29      1.0000 0.08780  0.57710  0.94540  Biso   1.000  C
  C30      1.0000 0.00370  0.54270  0.88660  Biso   1.000  C
  H19      1.0000 0.02480  0.46380  0.86560  Biso   1.000  H
  C31      1.0000 0.93230  0.77410  0.94330  Biso   1.000  C
  H20      1.0000 0.90790  0.85210  0.96390  Biso   1.000  H
  C32      1.0000 0.88730  0.62880  0.85990  Biso   1.000  C
  H21      1.0000 0.82980  0.60260  0.82100  Biso   1.000  H
  N7       1.0000 0.85200  0.74680  0.88610  Biso   1.000  N
  N8       1.0000 0.58430  0.98920  0.89500  Biso   1.000  N
  C33      1.0000 0.66500  0.48900  0.22700  Biso   1.000  C
  H22      1.0000 0.75100  0.44760  0.24830  Biso   1.000  H
  C34      1.0000 0.45550  0.34580  0.04230  Biso   1.000  C
  H23      1.0000 0.53680  0.29780  0.06470  Biso   1.000  H
  C35      1.0000 0.04890  0.69460  0.97400  Biso   1.000  C
  H24      1.0000 0.10130  0.72000  0.01380  Biso   1.000  H
  C36      1.0000 0.45420  0.19250  0.95280  Biso   1.000  C
  C37      1.0000 0.38150  0.12820  0.89710  Biso   1.000  C
  H25      1.0000 0.28760  0.15220  0.87810  Biso   1.000  H
  C38      1.0000 0.44870  0.02910  0.87040  Biso   1.000  C
  H26      1.0000 0.39770  0.98730  0.83320  Biso   1.000  H
  C39      1.0000 0.65070  0.04900  0.94910  Biso   1.000  C
  H27      1.0000 0.74330  0.02040  0.96820  Biso   1.000  H
  C40      1.0000 0.59270  0.14900  0.97860  Biso   1.000  C
  H28      1.0000 0.64610  0.18790  0.01600  Biso   1.000  H
  Cu3      1.0000 0.30626  0.37556  0.65318  Biso   1.000  Cu
  N9       1.0000 0.38810  0.41160  0.74330  Biso   1.000  N
  C41      1.0000 0.51120  0.35650  0.77630  Biso   1.000  C
  H29      1.0000 0.55230  0.28640  0.75780  Biso   1.000  H
  C42      1.0000 0.39640  0.55700  0.83200  Biso   1.000  C
  H30      1.0000 0.35110  0.62550  0.84960  Biso   1.000  H
  C43      1.0000 0.58170  0.39590  0.83580  Biso   1.000  C
  H31      1.0000 0.66700  0.35200  0.85640  Biso   1.000  H
  C44      1.0000 0.52490  0.50230  0.86550  Biso   1.000  C
  C45      1.0000 0.59720  0.54650  0.93060  Biso   1.000  C
  C46      1.0000 0.60850  0.69350  0.01720  Biso   1.000  C
  N10      1.0000 0.71740  0.47360  0.96130  Biso   1.000  N
  C47      1.0000 0.73140  0.61900  0.04930  Biso   1.000  C
  H32      1.0000 0.77770  0.64410  0.09000  Biso   1.000  H
  C48      1.0000 0.78460  0.50920  0.02170  Biso   1.000  C
  C49      1.0000 0.91220  0.42290  0.05460  Biso   1.000  C
  C50      1.0000 0.99630  0.45730  0.11340  Biso   1.000  C
  H33      1.0000 0.97520  0.53620  0.13440  Biso   1.000  H
  C51      1.0000 0.06770  0.22590  0.05670  Biso   1.000  C
  H34      1.0000 0.09210  0.14790  0.03610  Biso   1.000  H
  C52      1.0000 0.11270  0.37120  0.14010  Biso   1.000  C
  H35      1.0000 0.17020  0.39740  0.17900  Biso   1.000  H
  N11      1.0000 0.14800  0.25320  0.11390  Biso   1.000  N
  N12      1.0000 0.41570  0.01080  0.10500  Biso   1.000  N
  C53      1.0000 0.33500  0.51100  0.77300  Biso   1.000  C
  H36      1.0000 0.24900  0.55240  0.75170  Biso   1.000  H
  C54      1.0000 0.54450  0.65420  0.95770  Biso   1.000  C
  H37      1.0000 0.46320  0.70220  0.93530  Biso   1.000  H
  C55      1.0000 0.95110  0.30540  0.02600  Biso   1.000  C
  H38      1.0000 0.89870  0.28000  0.98620  Biso   1.000  H
  C56      1.0000 0.54580  0.80750  0.04720  Biso   1.000  C
  C57      1.0000 0.61850  0.87180  0.10290  Biso   1.000  C
  H39      1.0000 0.71240  0.84780  0.12190  Biso   1.000  H
  C58      1.0000 0.55130  0.97090  0.12960  Biso   1.000  C
  H40      1.0000 0.60230  0.01270  0.16680  Biso   1.000  H
  C59      1.0000 0.34930  0.95100  0.05090  Biso   1.000  C
  H41      1.0000 0.25670  0.97960  0.03180  Biso   1.000  H
  C60      1.0000 0.40730  0.85100  0.02140  Biso   1.000  C
  H42      1.0000 0.35390  0.81210  0.98400  Biso   1.000  H
  Cu4      1.0000 0.30626  0.12444  0.15318  Biso   1.000  Cu
  N13      1.0000 0.38810  0.08840  0.24330  Biso   1.000  N
  C61      1.0000 0.51120  0.14350  0.27630  Biso   1.000  C
  H43      1.0000 0.55230  0.21360  0.25780  Biso   1.000  H
  C62      1.0000 0.39640  0.94300  0.33200  Biso   1.000  C
  H44      1.0000 0.35110  0.87450  0.34960  Biso   1.000  H
  C63      1.0000 0.58170  0.10410  0.33580  Biso   1.000  C
  H45      1.0000 0.66700  0.14800  0.35640  Biso   1.000  H
  C64      1.0000 0.52490  0.99770  0.36550  Biso   1.000  C
  C65      1.0000 0.59720  0.95350  0.43060  Biso   1.000  C
  C66      1.0000 0.60850  0.80650  0.51720  Biso   1.000  C
  N14      1.0000 0.71740  0.02640  0.46130  Biso   1.000  N
  C67      1.0000 0.73140  0.88100  0.54930  Biso   1.000  C
  H46      1.0000 0.77770  0.85590  0.59000  Biso   1.000  H
  C68      1.0000 0.78460  0.99080  0.52170  Biso   1.000  C
  C69      1.0000 0.91220  0.07710  0.55460  Biso   1.000  C
  C70      1.0000 0.99630  0.04270  0.61340  Biso   1.000  C
  H47      1.0000 0.97520  0.96380  0.63440  Biso   1.000  H
  C71      1.0000 0.06770  0.27410  0.55670  Biso   1.000  C
  H48      1.0000 0.09210  0.35210  0.53610  Biso   1.000  H
  C72      1.0000 0.11270  0.12880  0.64010  Biso   1.000  C
  H49      1.0000 0.17020  0.10260  0.67900  Biso   1.000  H
  N15      1.0000 0.14800  0.24680  0.61390  Biso   1.000  N
  N16      1.0000 0.41570  0.48920  0.60500  Biso   1.000  N
  C73      1.0000 0.33500  0.98900  0.27300  Biso   1.000  C
  H50      1.0000 0.24900  0.94760  0.25170  Biso   1.000  H
  C74      1.0000 0.54450  0.84580  0.45770  Biso   1.000  C
  H51      1.0000 0.46320  0.79780  0.43530  Biso   1.000  H
  C75      1.0000 0.95110  0.19460  0.52600  Biso   1.000  C
  H52      1.0000 0.89870  0.22000  0.48620  Biso   1.000  H
  C76      1.0000 0.54580  0.69250  0.54720  Biso   1.000  C
  C77      1.0000 0.61850  0.62820  0.60290  Biso   1.000  C
  H53      1.0000 0.71240  0.65220  0.62190  Biso   1.000  H
  C78      1.0000 0.55130  0.52910  0.62960  Biso   1.000  C
  H54      1.0000 0.60230  0.48730  0.66680  Biso   1.000  H
  C79      1.0000 0.34930  0.54900  0.55090  Biso   1.000  C
  H55      1.0000 0.25670  0.52040  0.53180  Biso   1.000  H
  C80      1.0000 0.40730  0.64900  0.52140  Biso   1.000  C
  H56      1.0000 0.35390  0.68790  0.48400  Biso   1.000  H
