data_image0
_cell_length_a       9.93
_cell_length_b       9.3445
_cell_length_c       22.717
_cell_angle_alpha    90
_cell_angle_beta     106.94
_cell_angle_gamma    90

_symmetry_space_group_name_H-M    "P 1"
_symmetry_int_tables_number       1

loop_
  _symmetry_equiv_pos_as_xyz
  'x, y, z'

loop_
  _atom_site_label
  _atom_site_occupancy
  _atom_site_fract_x
  _atom_site_fract_y
  _atom_site_fract_z
  _atom_site_thermal_displace_type
  _atom_site_B_iso_or_equiv
  _atom_site_type_symbol
  Cu1      1.0000 0.19384  0.12252  0.84733  Biso   1.000  Cu
  N1       1.0000 0.35190  0.25310  0.88620  Biso   1.000  N
  N2       1.0000 0.11240  0.41280  0.25790  Biso   1.000  N
  N3       1.0000 0.08570  0.01150  0.89500  Biso   1.000  N
  N4       1.0000 0.78230  0.47370  0.03880  Biso   1.000  N
  C1       1.0000 0.38790  0.37030  0.86040  Biso   1.000  C
  H1       1.0000 0.33060  0.39660  0.82180  Biso   1.000  H
  C2       1.0000 0.50310  0.45500  0.88670  Biso   1.000  C
  H2       1.0000 0.52450  0.53190  0.86510  Biso   1.000  H
  C3       1.0000 0.58920  0.42380  0.94730  Biso   1.000  C
  C4       1.0000 0.54730  0.30410  0.97370  Biso   1.000  C
  H3       1.0000 0.59840  0.27810  0.01350  Biso   1.000  H
  C5       1.0000 0.43230  0.22240  0.94300  Biso   1.000  C
  H4       1.0000 0.41000  0.14250  0.96270  Biso   1.000  H
  C6       1.0000 0.71690  0.51000  0.97780  Biso   1.000  C
  C7       1.0000 0.76880  0.61860  0.95070  Biso   1.000  C
  H5       1.0000 0.72270  0.64480  0.91040  Biso   1.000  H
  C8       1.0000 0.89150  0.69090  0.98350  Biso   1.000  C
  C9       1.0000 0.95490  0.65210  0.04280  Biso   1.000  C
  H6       1.0000 0.03550  0.70030  0.06520  Biso   1.000  H
  C10      1.0000 0.90370  0.54550  0.06990  Biso   1.000  C
  C11      1.0000 0.95230  0.80460  0.95360  Biso   1.000  C
  C12      1.0000 0.88120  0.86830  0.89770  Biso   1.000  C
  H7       1.0000 0.78830  0.84340  0.87800  Biso   1.000  H
  C13      1.0000 0.94870  0.96860  0.87130  Biso   1.000  C
  H8       1.0000 0.89660  0.01020  0.83460  Biso   1.000  H
  C14      1.0000 0.09040  0.85120  0.97900  Biso   1.000  C
  H9       1.0000 0.14330  0.81370  0.01650  Biso   1.000  H
  C15      1.0000 0.97590  0.49960  0.13510  Biso   1.000  C
  C16      1.0000 0.91780  0.39850  0.16420  Biso   1.000  C
  H10      1.0000 0.83110  0.35790  0.14410  Biso   1.000  H
  C17      1.0000 0.98900  0.35710  0.22380  Biso   1.000  C
  H11      1.0000 0.94860  0.28550  0.24150  Biso   1.000  H
  C18      1.0000 0.16340  0.51260  0.22800  Biso   1.000  C
  H12      1.0000 0.24830  0.55480  0.24950  Biso   1.000  H
  C19      1.0000 0.10290  0.55930  0.16860  Biso   1.000  C
  H13      1.0000 0.14640  0.62930  0.15140  Biso   1.000  H
  C20      1.0000 0.15120  0.95200  0.94980  Biso   1.000  C
  H14      1.0000 0.24310  0.98040  0.96940  Biso   1.000  H
  Cu2      1.0000 0.19384  0.37748  0.34733  Biso   1.000  Cu
  N5       1.0000 0.35190  0.24690  0.38620  Biso   1.000  N
  N6       1.0000 0.11240  0.08720  0.75790  Biso   1.000  N
  N7       1.0000 0.08570  0.48850  0.39500  Biso   1.000  N
  N8       1.0000 0.78230  0.02630  0.53880  Biso   1.000  N
  C21      1.0000 0.38790  0.12970  0.36040  Biso   1.000  C
  H15      1.0000 0.33060  0.10340  0.32180  Biso   1.000  H
  C22      1.0000 0.50310  0.04500  0.38670  Biso   1.000  C
  H16      1.0000 0.52450  0.96810  0.36510  Biso   1.000  H
  C23      1.0000 0.58920  0.07620  0.44730  Biso   1.000  C
  C24      1.0000 0.54730  0.19590  0.47370  Biso   1.000  C
  H17      1.0000 0.59840  0.22190  0.51350  Biso   1.000  H
  C25      1.0000 0.43230  0.27760  0.44300  Biso   1.000  C
  H18      1.0000 0.41000  0.35750  0.46270  Biso   1.000  H
  C26      1.0000 0.71690  0.99000  0.47780  Biso   1.000  C
  C27      1.0000 0.76880  0.88140  0.45070  Biso   1.000  C
  H19      1.0000 0.72270  0.85520  0.41040  Biso   1.000  H
  C28      1.0000 0.89150  0.80910  0.48350  Biso   1.000  C
  C29      1.0000 0.95490  0.84790  0.54280  Biso   1.000  C
  H20      1.0000 0.03550  0.79970  0.56520  Biso   1.000  H
  C30      1.0000 0.90370  0.95450  0.56990  Biso   1.000  C
  C31      1.0000 0.95230  0.69540  0.45360  Biso   1.000  C
  C32      1.0000 0.88120  0.63170  0.39770  Biso   1.000  C
  H21      1.0000 0.78830  0.65660  0.37800  Biso   1.000  H
  C33      1.0000 0.94870  0.53140  0.37130  Biso   1.000  C
  H22      1.0000 0.89660  0.48980  0.33460  Biso   1.000  H
  C34      1.0000 0.09040  0.64880  0.47900  Biso   1.000  C
  H23      1.0000 0.14330  0.68630  0.51650  Biso   1.000  H
  C35      1.0000 0.97590  0.00040  0.63510  Biso   1.000  C
  C36      1.0000 0.91780  0.10150  0.66420  Biso   1.000  C
  H24      1.0000 0.83110  0.14210  0.64410  Biso   1.000  H
  C37      1.0000 0.98900  0.14290  0.72380  Biso   1.000  C
  H25      1.0000 0.94860  0.21450  0.74150  Biso   1.000  H
  C38      1.0000 0.16340  0.98740  0.72800  Biso   1.000  C
  H26      1.0000 0.24830  0.94520  0.74950  Biso   1.000  H
  C39      1.0000 0.10290  0.94070  0.66860  Biso   1.000  C
  H27      1.0000 0.14640  0.87070  0.65140  Biso   1.000  H
  C40      1.0000 0.15120  0.54800  0.44980  Biso   1.000  C
  H28      1.0000 0.24310  0.51960  0.46940  Biso   1.000  H
  Cu3      1.0000 0.80616  0.62252  0.65267  Biso   1.000  Cu
  N9       1.0000 0.64810  0.75310  0.61380  Biso   1.000  N
  N10      1.0000 0.88760  0.91280  0.24210  Biso   1.000  N
  N11      1.0000 0.91430  0.51150  0.60500  Biso   1.000  N
  N12      1.0000 0.21770  0.97370  0.46120  Biso   1.000  N
  C41      1.0000 0.61210  0.87030  0.63960  Biso   1.000  C
  H29      1.0000 0.66940  0.89660  0.67820  Biso   1.000  H
  C42      1.0000 0.49690  0.95500  0.61330  Biso   1.000  C
  H30      1.0000 0.47550  0.03190  0.63490  Biso   1.000  H
  C43      1.0000 0.41080  0.92380  0.55270  Biso   1.000  C
  C44      1.0000 0.45270  0.80410  0.52630  Biso   1.000  C
  H31      1.0000 0.40160  0.77810  0.48650  Biso   1.000  H
  C45      1.0000 0.56770  0.72240  0.55700  Biso   1.000  C
  H32      1.0000 0.59000  0.64250  0.53730  Biso   1.000  H
  C46      1.0000 0.28310  0.01000  0.52220  Biso   1.000  C
  C47      1.0000 0.23120  0.11860  0.54930  Biso   1.000  C
  H33      1.0000 0.27730  0.14480  0.58960  Biso   1.000  H
  C48      1.0000 0.10850  0.19090  0.51650  Biso   1.000  C
  C49      1.0000 0.04510  0.15210  0.45720  Biso   1.000  C
  H34      1.0000 0.96450  0.20030  0.43480  Biso   1.000  H
  C50      1.0000 0.09630  0.04550  0.43010  Biso   1.000  C
  C51      1.0000 0.04770  0.30460  0.54640  Biso   1.000  C
  C52      1.0000 0.11880  0.36830  0.60230  Biso   1.000  C
  H35      1.0000 0.21170  0.34340  0.62200  Biso   1.000  H
  C53      1.0000 0.05130  0.46860  0.62870  Biso   1.000  C
  H36      1.0000 0.10340  0.51020  0.66540  Biso   1.000  H
  C54      1.0000 0.90960  0.35120  0.52100  Biso   1.000  C
  H37      1.0000 0.85670  0.31370  0.48350  Biso   1.000  H
  C55      1.0000 0.02410  0.99960  0.36490  Biso   1.000  C
  C56      1.0000 0.08220  0.89850  0.33580  Biso   1.000  C
  H38      1.0000 0.16890  0.85790  0.35590  Biso   1.000  H
  C57      1.0000 0.01100  0.85710  0.27620  Biso   1.000  C
  H39      1.0000 0.05140  0.78550  0.25850  Biso   1.000  H
  C58      1.0000 0.83660  0.01260  0.27200  Biso   1.000  C
  H40      1.0000 0.75170  0.05480  0.25050  Biso   1.000  H
  C59      1.0000 0.89710  0.05930  0.33140  Biso   1.000  C
  H41      1.0000 0.85360  0.12930  0.34860  Biso   1.000  H
  C60      1.0000 0.84880  0.45200  0.55020  Biso   1.000  C
  H42      1.0000 0.75690  0.48040  0.53060  Biso   1.000  H
  Cu4      1.0000 0.80616  0.87748  0.15267  Biso   1.000  Cu
  N13      1.0000 0.64810  0.74690  0.11380  Biso   1.000  N
  N14      1.0000 0.88760  0.58720  0.74210  Biso   1.000  N
  N15      1.0000 0.91430  0.98850  0.10500  Biso   1.000  N
  N16      1.0000 0.21770  0.52630  0.96120  Biso   1.000  N
  C61      1.0000 0.61210  0.62970  0.13960  Biso   1.000  C
  H43      1.0000 0.66940  0.60340  0.17820  Biso   1.000  H
  C62      1.0000 0.49690  0.54500  0.11330  Biso   1.000  C
  H44      1.0000 0.47550  0.46810  0.13490  Biso   1.000  H
  C63      1.0000 0.41080  0.57620  0.05270  Biso   1.000  C
  C64      1.0000 0.45270  0.69590  0.02630  Biso   1.000  C
  H45      1.0000 0.40160  0.72190  0.98650  Biso   1.000  H
  C65      1.0000 0.56770  0.77760  0.05700  Biso   1.000  C
  H46      1.0000 0.59000  0.85750  0.03730  Biso   1.000  H
  C66      1.0000 0.28310  0.49000  0.02220  Biso   1.000  C
  C67      1.0000 0.23120  0.38140  0.04930  Biso   1.000  C
  H47      1.0000 0.27730  0.35520  0.08960  Biso   1.000  H
  C68      1.0000 0.10850  0.30910  0.01650  Biso   1.000  C
  C69      1.0000 0.04510  0.34790  0.95720  Biso   1.000  C
  H48      1.0000 0.96450  0.29970  0.93480  Biso   1.000  H
  C70      1.0000 0.09630  0.45450  0.93010  Biso   1.000  C
  C71      1.0000 0.04770  0.19540  0.04640  Biso   1.000  C
  C72      1.0000 0.11880  0.13170  0.10230  Biso   1.000  C
  H49      1.0000 0.21170  0.15660  0.12200  Biso   1.000  H
  C73      1.0000 0.05130  0.03140  0.12870  Biso   1.000  C
  H50      1.0000 0.10340  0.98980  0.16540  Biso   1.000  H
  C74      1.0000 0.90960  0.14880  0.02100  Biso   1.000  C
  H51      1.0000 0.85670  0.18630  0.98350  Biso   1.000  H
  C75      1.0000 0.02410  0.50040  0.86490  Biso   1.000  C
  C76      1.0000 0.08220  0.60150  0.83580  Biso   1.000  C
  H52      1.0000 0.16890  0.64210  0.85590  Biso   1.000  H
  C77      1.0000 0.01100  0.64290  0.77620  Biso   1.000  C
  H53      1.0000 0.05140  0.71450  0.75850  Biso   1.000  H
  C78      1.0000 0.83660  0.48740  0.77200  Biso   1.000  C
  H54      1.0000 0.75170  0.44520  0.75050  Biso   1.000  H
  C79      1.0000 0.89710  0.44070  0.83140  Biso   1.000  C
  H55      1.0000 0.85360  0.37070  0.84860  Biso   1.000  H
  C80      1.0000 0.84880  0.04800  0.05020  Biso   1.000  C
  H56      1.0000 0.75690  0.01960  0.03060  Biso   1.000  H
