data_RIGWIP_clean
_audit_creation_date              2014-07-02
_audit_creation_method            'Materials Studio'
_symmetry_space_group_name_H-M    'P1'
_symmetry_Int_Tables_number       1
_symmetry_cell_setting            triclinic
loop_
_symmetry_equiv_pos_as_xyz
  x,y,z
_cell_length_a                    7.5755
_cell_length_b                    15.6186
_cell_length_c                    16.6991
_cell_angle_alpha                 90.0000
_cell_angle_beta                  94.3750
_cell_angle_gamma                 90.0000
loop_
_atom_site_label
_atom_site_type_symbol
_atom_site_fract_x
_atom_site_fract_y
_atom_site_fract_z
_atom_site_U_iso_or_equiv
_atom_site_adp_type
_atom_site_occupancy
Eu1    Eu    0.62558   0.89792   0.54017   0.01267  Uiso   1.00
Eu2    Eu    0.86696   0.05043   0.40551   0.01267  Uiso   1.00
Eu3    Eu    0.37442   0.39792   0.95983   0.01267  Uiso   1.00
Eu4    Eu    0.13304   0.55043   0.09449   0.01267  Uiso   1.00
Eu5    Eu    0.37442   0.10208   0.45983   0.01267  Uiso   1.00
Eu6    Eu    0.13304   0.94957   0.59449   0.01267  Uiso   1.00
Eu7    Eu    0.62558   0.60208   0.04017   0.01267  Uiso   1.00
Eu8    Eu    0.86696   0.44957   0.90551   0.01267  Uiso   1.00
H1     H     0.23900   0.69520   0.32680   0.01267  Uiso   1.00
H2     H     0.80800   0.75390   0.40740   0.01267  Uiso   1.00
H3     H     0.17530   0.82670   0.20870   0.01267  Uiso   1.00
H4     H     0.63510   0.93030   0.25590   0.01267  Uiso   1.00
H5     H     0.76100   0.19520   0.17320   0.01267  Uiso   1.00
H6     H     0.19200   0.25390   0.09260   0.01267  Uiso   1.00
H7     H     0.82470   0.32670   0.29130   0.01267  Uiso   1.00
H8     H     0.36490   0.43030   0.24410   0.01267  Uiso   1.00
H9     H     0.76100   0.30480   0.67320   0.01267  Uiso   1.00
H10    H     0.19200   0.24610   0.59260   0.01267  Uiso   1.00
H11    H     0.82470   0.17330   0.79130   0.01267  Uiso   1.00
H12    H     0.36490   0.06970   0.74410   0.01267  Uiso   1.00
H13    H     0.23900   0.80480   0.82680   0.01267  Uiso   1.00
H14    H     0.80800   0.74610   0.90740   0.01267  Uiso   1.00
H15    H     0.17530   0.67330   0.70870   0.01267  Uiso   1.00
H16    H     0.63510   0.56970   0.75590   0.01267  Uiso   1.00
C1     C     0.25820   0.80820   0.44990   0.01267  Uiso   1.00
C2     C     0.39960   0.76540   0.40520   0.01267  Uiso   1.00
C3     C     0.35570   0.71070   0.34110   0.01267  Uiso   1.00
C4     C     0.49300   0.68070   0.29990   0.01267  Uiso   1.00
C5     C     0.45770   0.63260   0.22160   0.01267  Uiso   1.00
C6     C     0.69070   0.74570   0.38820   0.01267  Uiso   1.00
C7     C     0.20130   0.95200   0.32020   0.01267  Uiso   1.00
C8     C     0.04410   0.91250   0.27360   0.01267  Uiso   1.00
C9     C     0.06410   0.84740   0.21880   0.01267  Uiso   1.00
C10    C     0.91130   0.81450   0.17970   0.01267  Uiso   1.00
C11    C     0.91450   0.73840   0.12300   0.01267  Uiso   1.00
C12    C     0.74560   0.90800   0.24680   0.01267  Uiso   1.00
C13    C     0.74180   0.30820   0.05010   0.01267  Uiso   1.00
C14    C     0.60040   0.26540   0.09480   0.01267  Uiso   1.00
C15    C     0.64430   0.21070   0.15890   0.01267  Uiso   1.00
C16    C     0.50700   0.18070   0.20010   0.01267  Uiso   1.00
C17    C     0.54230   0.13260   0.27840   0.01267  Uiso   1.00
C18    C     0.30930   0.24570   0.11180   0.01267  Uiso   1.00
C19    C     0.79870   0.45200   0.17980   0.01267  Uiso   1.00
C20    C     0.95590   0.41250   0.22640   0.01267  Uiso   1.00
C21    C     0.93590   0.34740   0.28120   0.01267  Uiso   1.00
C22    C     0.08870   0.31450   0.32030   0.01267  Uiso   1.00
C23    C     0.08550   0.23840   0.37700   0.01267  Uiso   1.00
C24    C     0.25440   0.40800   0.25320   0.01267  Uiso   1.00
C25    C     0.74180   0.19180   0.55010   0.01267  Uiso   1.00
C26    C     0.60040   0.23460   0.59480   0.01267  Uiso   1.00
C27    C     0.64430   0.28930   0.65890   0.01267  Uiso   1.00
C28    C     0.50700   0.31930   0.70010   0.01267  Uiso   1.00
C29    C     0.54230   0.36740   0.77840   0.01267  Uiso   1.00
C30    C     0.30930   0.25430   0.61180   0.01267  Uiso   1.00
C31    C     0.79870   0.04800   0.67980   0.01267  Uiso   1.00
C32    C     0.95590   0.08750   0.72640   0.01267  Uiso   1.00
C33    C     0.93590   0.15260   0.78120   0.01267  Uiso   1.00
C34    C     0.08870   0.18550   0.82030   0.01267  Uiso   1.00
C35    C     0.08550   0.26160   0.87700   0.01267  Uiso   1.00
C36    C     0.25440   0.09200   0.75320   0.01267  Uiso   1.00
C37    C     0.25820   0.69180   0.94990   0.01267  Uiso   1.00
C38    C     0.39960   0.73460   0.90520   0.01267  Uiso   1.00
C39    C     0.35570   0.78930   0.84110   0.01267  Uiso   1.00
C40    C     0.49300   0.81930   0.79990   0.01267  Uiso   1.00
C41    C     0.45770   0.86740   0.72160   0.01267  Uiso   1.00
C42    C     0.69070   0.75430   0.88820   0.01267  Uiso   1.00
C43    C     0.20130   0.54800   0.82020   0.01267  Uiso   1.00
C44    C     0.04410   0.58750   0.77360   0.01267  Uiso   1.00
C45    C     0.06410   0.65260   0.71880   0.01267  Uiso   1.00
C46    C     0.91130   0.68550   0.67970   0.01267  Uiso   1.00
C47    C     0.91450   0.76160   0.62300   0.01267  Uiso   1.00
C48    C     0.74560   0.59200   0.74680   0.01267  Uiso   1.00
N1     N     0.56760   0.78500   0.42850   0.01267  Uiso   1.00
N2     N     0.66330   0.69630   0.32360   0.01267  Uiso   1.00
N3     N     0.88500   0.94050   0.29030   0.01267  Uiso   1.00
N4     N     0.75010   0.84650   0.19140   0.01267  Uiso   1.00
N5     N     0.43240   0.28500   0.07150   0.01267  Uiso   1.00
N6     N     0.33670   0.19630   0.17640   0.01267  Uiso   1.00
N7     N     0.11500   0.44050   0.20970   0.01267  Uiso   1.00
N8     N     0.24990   0.34650   0.30860   0.01267  Uiso   1.00
N9     N     0.43240   0.21500   0.57150   0.01267  Uiso   1.00
N10    N     0.33670   0.30370   0.67640   0.01267  Uiso   1.00
N11    N     0.11500   0.05950   0.70970   0.01267  Uiso   1.00
N12    N     0.24990   0.15350   0.80860   0.01267  Uiso   1.00
N13    N     0.56760   0.71500   0.92850   0.01267  Uiso   1.00
N14    N     0.66330   0.80370   0.82360   0.01267  Uiso   1.00
N15    N     0.88500   0.55950   0.79030   0.01267  Uiso   1.00
N16    N     0.75010   0.65350   0.69140   0.01267  Uiso   1.00
O1     O     0.31340   0.86050   0.50580   0.01267  Uiso   1.00
O2     O     0.10250   0.79290   0.42860   0.01267  Uiso   1.00
O3     O     0.31160   0.59580   0.21100   0.01267  Uiso   1.00
O4     O     0.57140   0.63670   0.17220   0.01267  Uiso   1.00
O5     O     0.16540   0.00850   0.37320   0.01267  Uiso   1.00
O6     O     0.35080   0.92880   0.30590   0.01267  Uiso   1.00
O7     O     0.04390   0.68950   0.13310   0.01267  Uiso   1.00
O8     O     0.78470   0.72850   0.07280   0.01267  Uiso   1.00
O9     O     0.90750   0.92360   0.48650   0.01267  Uiso   1.00
O10    O     0.58050   0.99060   0.42640   0.01267  Uiso   1.00
O11    O     0.68660   0.36050   0.99420   0.01267  Uiso   1.00
O12    O     0.89750   0.29290   0.07140   0.01267  Uiso   1.00
O13    O     0.68840   0.09580   0.28900   0.01267  Uiso   1.00
O14    O     0.42860   0.13670   0.32780   0.01267  Uiso   1.00
O15    O     0.83460   0.50850   0.12680   0.01267  Uiso   1.00
O16    O     0.64920   0.42880   0.19410   0.01267  Uiso   1.00
O17    O     0.95610   0.18950   0.36690   0.01267  Uiso   1.00
O18    O     0.21530   0.22850   0.42720   0.01267  Uiso   1.00
O19    O     0.09250   0.42360   0.01350   0.01267  Uiso   1.00
O20    O     0.41950   0.49060   0.07360   0.01267  Uiso   1.00
O21    O     0.68660   0.13950   0.49420   0.01267  Uiso   1.00
O22    O     0.89750   0.20710   0.57140   0.01267  Uiso   1.00
O23    O     0.68840   0.40420   0.78900   0.01267  Uiso   1.00
O24    O     0.42860   0.36330   0.82780   0.01267  Uiso   1.00
O25    O     0.83460   0.99150   0.62680   0.01267  Uiso   1.00
O26    O     0.64920   0.07120   0.69410   0.01267  Uiso   1.00
O27    O     0.95610   0.31050   0.86690   0.01267  Uiso   1.00
O28    O     0.21530   0.27150   0.92720   0.01267  Uiso   1.00
O29    O     0.09250   0.07640   0.51350   0.01267  Uiso   1.00
O30    O     0.41950   0.00940   0.57360   0.01267  Uiso   1.00
O31    O     0.31340   0.63950   0.00580   0.01267  Uiso   1.00
O32    O     0.10250   0.70710   0.92860   0.01267  Uiso   1.00
O33    O     0.31160   0.90420   0.71100   0.01267  Uiso   1.00
O34    O     0.57140   0.86330   0.67220   0.01267  Uiso   1.00
O35    O     0.16540   0.49150   0.87320   0.01267  Uiso   1.00
O36    O     0.35080   0.57120   0.80590   0.01267  Uiso   1.00
O37    O     0.04390   0.81050   0.63310   0.01267  Uiso   1.00
O38    O     0.78470   0.77150   0.57280   0.01267  Uiso   1.00
O39    O     0.90750   0.57640   0.98650   0.01267  Uiso   1.00
O40    O     0.58050   0.50940   0.92640   0.01267  Uiso   1.00
