data_image0
_cell_length_a       15.2109
_cell_length_b       11.7281
_cell_length_c       14.1821
_cell_angle_alpha    90
_cell_angle_beta     90
_cell_angle_gamma    90

_symmetry_space_group_name_H-M    "P 1"
_symmetry_int_tables_number       1

loop_
  _symmetry_equiv_pos_as_xyz
  'x, y, z'

loop_
  _atom_site_label
  _atom_site_occupancy
  _atom_site_fract_x
  _atom_site_fract_y
  _atom_site_fract_z
  _atom_site_thermal_displace_type
  _atom_site_B_iso_or_equiv
  _atom_site_type_symbol
  P1       1.0000 0.16811  0.87780  0.59101  Biso   1.000  P
  O1       1.0000 0.08797  0.95367  0.57837  Biso   1.000  O
  O2       1.0000 0.22222  0.88039  0.49960  Biso   1.000  O
  O3       1.0000 0.22180  0.90344  0.67659  Biso   1.000  O
  H1       1.0000 0.13500  0.77400  0.59700  Biso   1.000  H
  P2       1.0000 0.16811  0.37780  0.09101  Biso   1.000  P
  O4       1.0000 0.08797  0.45367  0.07837  Biso   1.000  O
  O5       1.0000 0.22222  0.38039  0.99960  Biso   1.000  O
  O6       1.0000 0.22180  0.40344  0.17659  Biso   1.000  O
  H2       1.0000 0.13500  0.27400  0.09700  Biso   1.000  H
  P3       1.0000 0.66811  0.87780  0.09101  Biso   1.000  P
  O7       1.0000 0.58797  0.95367  0.07837  Biso   1.000  O
  O8       1.0000 0.72222  0.88039  0.99960  Biso   1.000  O
  O9       1.0000 0.72180  0.90344  0.17659  Biso   1.000  O
  H3       1.0000 0.63500  0.77400  0.09700  Biso   1.000  H
  P4       1.0000 0.66811  0.37780  0.59101  Biso   1.000  P
  O10      1.0000 0.58797  0.45367  0.57837  Biso   1.000  O
  O11      1.0000 0.72222  0.38039  0.49960  Biso   1.000  O
  O12      1.0000 0.72180  0.40344  0.67659  Biso   1.000  O
  H4       1.0000 0.63500  0.27400  0.59700  Biso   1.000  H
  P5       1.0000 0.83189  0.12220  0.59101  Biso   1.000  P
  O13      1.0000 0.91203  0.04633  0.57837  Biso   1.000  O
  O14      1.0000 0.77778  0.11961  0.49960  Biso   1.000  O
  O15      1.0000 0.77820  0.09656  0.67659  Biso   1.000  O
  H5       1.0000 0.86500  0.22600  0.59700  Biso   1.000  H
  P6       1.0000 0.83189  0.62220  0.09101  Biso   1.000  P
  O16      1.0000 0.91203  0.54633  0.07837  Biso   1.000  O
  O17      1.0000 0.77778  0.61961  0.99960  Biso   1.000  O
  O18      1.0000 0.77820  0.59656  0.17659  Biso   1.000  O
  H6       1.0000 0.86500  0.72600  0.09700  Biso   1.000  H
  P7       1.0000 0.33189  0.12220  0.09101  Biso   1.000  P
  O19      1.0000 0.41203  0.04633  0.07837  Biso   1.000  O
  O20      1.0000 0.27778  0.11961  0.99960  Biso   1.000  O
  O21      1.0000 0.27820  0.09656  0.17659  Biso   1.000  O
  H7       1.0000 0.36500  0.22600  0.09700  Biso   1.000  H
  P8       1.0000 0.33189  0.62220  0.59101  Biso   1.000  P
  O22      1.0000 0.41203  0.54633  0.57837  Biso   1.000  O
  O23      1.0000 0.27778  0.61961  0.49960  Biso   1.000  O
  O24      1.0000 0.27820  0.59656  0.67659  Biso   1.000  O
  H8       1.0000 0.36500  0.72600  0.59700  Biso   1.000  H
  P9       1.0000 0.41811  0.37220  0.84101  Biso   1.000  P
  O25      1.0000 0.33797  0.29633  0.82837  Biso   1.000  O
  O26      1.0000 0.47222  0.36961  0.74960  Biso   1.000  O
  O27      1.0000 0.47180  0.34656  0.92659  Biso   1.000  O
  H9       1.0000 0.38500  0.47600  0.84700  Biso   1.000  H
  P10      1.0000 0.41811  0.87220  0.34101  Biso   1.000  P
  O28      1.0000 0.33797  0.79633  0.32837  Biso   1.000  O
  O29      1.0000 0.47222  0.86961  0.24960  Biso   1.000  O
  O30      1.0000 0.47180  0.84656  0.42659  Biso   1.000  O
  H10      1.0000 0.38500  0.97600  0.34700  Biso   1.000  H
  P11      1.0000 0.91811  0.37220  0.34101  Biso   1.000  P
  O31      1.0000 0.83797  0.29633  0.32837  Biso   1.000  O
  O32      1.0000 0.97222  0.36961  0.24960  Biso   1.000  O
  O33      1.0000 0.97180  0.34656  0.42659  Biso   1.000  O
  H11      1.0000 0.88500  0.47600  0.34700  Biso   1.000  H
  P12      1.0000 0.91811  0.87220  0.84101  Biso   1.000  P
  O34      1.0000 0.83797  0.79633  0.82837  Biso   1.000  O
  O35      1.0000 0.97222  0.86961  0.74960  Biso   1.000  O
  O36      1.0000 0.97180  0.84656  0.92659  Biso   1.000  O
  H12      1.0000 0.88500  0.97600  0.84700  Biso   1.000  H
  P13      1.0000 0.08189  0.12780  0.84101  Biso   1.000  P
  O37      1.0000 0.16203  0.20367  0.82837  Biso   1.000  O
  O38      1.0000 0.02778  0.13039  0.74960  Biso   1.000  O
  O39      1.0000 0.02820  0.15344  0.92659  Biso   1.000  O
  H13      1.0000 0.11500  0.02400  0.84700  Biso   1.000  H
  P14      1.0000 0.08189  0.62780  0.34101  Biso   1.000  P
  O40      1.0000 0.16203  0.70367  0.32837  Biso   1.000  O
  O41      1.0000 0.02778  0.63039  0.24960  Biso   1.000  O
  O42      1.0000 0.02820  0.65344  0.42659  Biso   1.000  O
  H14      1.0000 0.11500  0.52400  0.34700  Biso   1.000  H
  P15      1.0000 0.58189  0.12780  0.34101  Biso   1.000  P
  O43      1.0000 0.66203  0.20367  0.32837  Biso   1.000  O
  O44      1.0000 0.52778  0.13039  0.24960  Biso   1.000  O
  O45      1.0000 0.52820  0.15344  0.42659  Biso   1.000  O
  H15      1.0000 0.61500  0.02400  0.34700  Biso   1.000  H
  P16      1.0000 0.58189  0.62780  0.84101  Biso   1.000  P
  O46      1.0000 0.66203  0.70367  0.82837  Biso   1.000  O
  O47      1.0000 0.52778  0.63039  0.74960  Biso   1.000  O
  O48      1.0000 0.52820  0.65344  0.92659  Biso   1.000  O
  H16      1.0000 0.61500  0.52400  0.84700  Biso   1.000  H
  Zn1      1.0000 0.00000  0.00000  0.66938  Biso   1.000  Zn
  Zn2      1.0000 0.00000  0.50000  0.16938  Biso   1.000  Zn
  Zn3      1.0000 0.50000  0.00000  0.16938  Biso   1.000  Zn
  Zn4      1.0000 0.50000  0.50000  0.66938  Biso   1.000  Zn
  Zn5      1.0000 0.25000  0.25000  0.91938  Biso   1.000  Zn
  Zn6      1.0000 0.25000  0.75000  0.41938  Biso   1.000  Zn
  Zn7      1.0000 0.75000  0.25000  0.41938  Biso   1.000  Zn
  Zn8      1.0000 0.75000  0.75000  0.91938  Biso   1.000  Zn
