data_image0
_cell_length_a       22.9416
_cell_length_b       22.9416
_cell_length_c       15.7488
_cell_angle_alpha    90
_cell_angle_beta     90
_cell_angle_gamma    120

_symmetry_space_group_name_H-M    "P 1"
_symmetry_int_tables_number       1

loop_
  _symmetry_equiv_pos_as_xyz
  'x, y, z'

loop_
  _atom_site_label
  _atom_site_occupancy
  _atom_site_fract_x
  _atom_site_fract_y
  _atom_site_fract_z
  _atom_site_thermal_displace_type
  _atom_site_B_iso_or_equiv
  _atom_site_type_symbol
  N1       1.0000 0.97321  0.32361  0.42312  Biso   1.000  N
  C1       1.0000 0.00074  0.36554  0.48841  Biso   1.000  C
  H1       1.0000 0.99774  0.40429  0.49419  Biso   1.000  H
  N2       1.0000 0.03315  0.34849  0.54552  Biso   1.000  N
  C2       1.0000 0.99052  0.27390  0.43666  Biso   1.000  C
  C3       1.0000 0.97572  0.21712  0.39075  Biso   1.000  C
  H2       1.0000 0.95138  0.20677  0.34046  Biso   1.000  H
  C4       1.0000 0.99876  0.17667  0.42227  Biso   1.000  C
  H3       1.0000 0.99002  0.13821  0.39235  Biso   1.000  H
  C5       1.0000 0.03539  0.19169  0.49949  Biso   1.000  C
  H4       1.0000 0.05033  0.16306  0.51883  Biso   1.000  H
  C6       1.0000 0.02691  0.28891  0.51331  Biso   1.000  C
  C7       1.0000 0.04922  0.24748  0.54588  Biso   1.000  C
  H5       1.0000 0.07252  0.25714  0.59708  Biso   1.000  H
  N3       1.0000 0.92444  0.41150  0.35473  Biso   1.000  N
  C8       1.0000 0.94564  0.47383  0.33074  Biso   1.000  C
  H6       1.0000 0.97609  0.49339  0.28643  Biso   1.000  H
  N4       1.0000 0.92177  0.50731  0.37214  Biso   1.000  N
  C9       1.0000 0.87894  0.46164  0.43074  Biso   1.000  C
  C10      1.0000 0.83874  0.46752  0.49575  Biso   1.000  C
  H7       1.0000 0.83872  0.50758  0.50379  Biso   1.000  H
  C11      1.0000 0.87987  0.40287  0.42141  Biso   1.000  C
  C12      1.0000 0.84014  0.34485  0.47429  Biso   1.000  C
  H8       1.0000 0.84119  0.30511  0.46763  Biso   1.000  H
  C13      1.0000 0.80051  0.41326  0.54552  Biso   1.000  C
  H9       1.0000 0.77371  0.41673  0.58721  Biso   1.000  H
  C14      1.0000 0.80024  0.35158  0.53607  Biso   1.000  C
  H10      1.0000 0.77327  0.31539  0.57116  Biso   1.000  H
  Zn1      1.0000 0.93451  0.33900  0.33107  Biso   1.000  Zn
  N5       1.0000 0.63988  0.65694  0.75645  Biso   1.000  N
  C15      1.0000 0.66741  0.69887  0.82174  Biso   1.000  C
  H11      1.0000 0.66441  0.73762  0.82752  Biso   1.000  H
  N6       1.0000 0.69982  0.68182  0.87885  Biso   1.000  N
  C16      1.0000 0.65719  0.60723  0.76999  Biso   1.000  C
  C17      1.0000 0.64239  0.55045  0.72408  Biso   1.000  C
  H12      1.0000 0.61805  0.54010  0.67379  Biso   1.000  H
  C18      1.0000 0.66543  0.51000  0.75560  Biso   1.000  C
  H13      1.0000 0.65669  0.47154  0.72568  Biso   1.000  H
  C19      1.0000 0.70206  0.52502  0.83282  Biso   1.000  C
  H14      1.0000 0.71700  0.49639  0.85216  Biso   1.000  H
  C20      1.0000 0.69358  0.62224  0.84664  Biso   1.000  C
  C21      1.0000 0.71589  0.58081  0.87921  Biso   1.000  C
  H15      1.0000 0.73919  0.59047  0.93041  Biso   1.000  H
  N7       1.0000 0.59111  0.74483  0.68806  Biso   1.000  N
  C22      1.0000 0.61231  0.80716  0.66407  Biso   1.000  C
  H16      1.0000 0.64276  0.82672  0.61976  Biso   1.000  H
  N8       1.0000 0.58844  0.84064  0.70547  Biso   1.000  N
  C23      1.0000 0.54561  0.79497  0.76407  Biso   1.000  C
  C24      1.0000 0.50541  0.80085  0.82908  Biso   1.000  C
  H17      1.0000 0.50539  0.84091  0.83712  Biso   1.000  H
  C25      1.0000 0.54654  0.73620  0.75474  Biso   1.000  C
  C26      1.0000 0.50681  0.67818  0.80762  Biso   1.000  C
  H18      1.0000 0.50786  0.63844  0.80096  Biso   1.000  H
  C27      1.0000 0.46718  0.74659  0.87885  Biso   1.000  C
  H19      1.0000 0.44038  0.75006  0.92054  Biso   1.000  H
  C28      1.0000 0.46691  0.68491  0.86940  Biso   1.000  C
  H20      1.0000 0.43994  0.64872  0.90449  Biso   1.000  H
  Zn2      1.0000 0.60118  0.67233  0.66440  Biso   1.000  Zn
  N9       1.0000 0.30654  0.99028  0.08979  Biso   1.000  N
  C29      1.0000 0.33407  0.03221  0.15508  Biso   1.000  C
  H21      1.0000 0.33107  0.07096  0.16086  Biso   1.000  H
  N10      1.0000 0.36648  0.01516  0.21219  Biso   1.000  N
  C30      1.0000 0.32385  0.94057  0.10333  Biso   1.000  C
  C31      1.0000 0.30905  0.88379  0.05742  Biso   1.000  C
  H22      1.0000 0.28471  0.87344  0.00713  Biso   1.000  H
  C32      1.0000 0.33209  0.84334  0.08894  Biso   1.000  C
  H23      1.0000 0.32335  0.80488  0.05902  Biso   1.000  H
  C33      1.0000 0.36872  0.85836  0.16616  Biso   1.000  C
  H24      1.0000 0.38366  0.82973  0.18550  Biso   1.000  H
  C34      1.0000 0.36024  0.95558  0.17998  Biso   1.000  C
  C35      1.0000 0.38255  0.91415  0.21255  Biso   1.000  C
  H25      1.0000 0.40585  0.92381  0.26375  Biso   1.000  H
  N11      1.0000 0.25777  0.07817  0.02140  Biso   1.000  N
  C36      1.0000 0.27897  0.14050  0.99741  Biso   1.000  C
  H26      1.0000 0.30942  0.16006  0.95310  Biso   1.000  H
  N12      1.0000 0.25510  0.17398  0.03881  Biso   1.000  N
  C37      1.0000 0.21227  0.12831  0.09741  Biso   1.000  C
  C38      1.0000 0.17207  0.13419  0.16242  Biso   1.000  C
  H27      1.0000 0.17205  0.17425  0.17046  Biso   1.000  H
  C39      1.0000 0.21320  0.06954  0.08808  Biso   1.000  C
  C40      1.0000 0.17347  0.01152  0.14096  Biso   1.000  C
  H28      1.0000 0.17452  0.97178  0.13430  Biso   1.000  H
  C41      1.0000 0.13384  0.07993  0.21219  Biso   1.000  C
  H29      1.0000 0.10704  0.08340  0.25388  Biso   1.000  H
  C42      1.0000 0.13357  0.01825  0.20274  Biso   1.000  C
  H30      1.0000 0.10660  0.98206  0.23783  Biso   1.000  H
  Zn3      1.0000 0.26784  0.00567  0.99774  Biso   1.000  Zn
  N13      1.0000 0.67639  0.64960  0.42312  Biso   1.000  N
  C43      1.0000 0.63446  0.63520  0.48841  Biso   1.000  C
  H31      1.0000 0.59571  0.59345  0.49419  Biso   1.000  H
  N14      1.0000 0.65151  0.68466  0.54552  Biso   1.000  N
  C44      1.0000 0.72610  0.71662  0.43666  Biso   1.000  C
  C45      1.0000 0.78288  0.75860  0.39075  Biso   1.000  C
  H32      1.0000 0.79323  0.74461  0.34046  Biso   1.000  H
  C46      1.0000 0.82333  0.82209  0.42227  Biso   1.000  C
  H33      1.0000 0.86179  0.85181  0.39235  Biso   1.000  H
  C47      1.0000 0.80831  0.84370  0.49949  Biso   1.000  C
  H34      1.0000 0.83694  0.88727  0.51883  Biso   1.000  H
  C48      1.0000 0.71109  0.73800  0.51331  Biso   1.000  C
  C49      1.0000 0.75252  0.80174  0.54588  Biso   1.000  C
  H35      1.0000 0.74286  0.81538  0.59708  Biso   1.000  H
  N15      1.0000 0.58850  0.51294  0.35473  Biso   1.000  N
  C50      1.0000 0.52617  0.47181  0.33074  Biso   1.000  C
  H36      1.0000 0.50661  0.48270  0.28643  Biso   1.000  H
  N16      1.0000 0.49269  0.41446  0.37214  Biso   1.000  N
  C51      1.0000 0.53836  0.41730  0.43074  Biso   1.000  C
  C52      1.0000 0.53248  0.37122  0.49575  Biso   1.000  C
  H37      1.0000 0.49242  0.33114  0.50379  Biso   1.000  H
  C53      1.0000 0.59713  0.47700  0.42141  Biso   1.000  C
  C54      1.0000 0.65515  0.49529  0.47429  Biso   1.000  C
  H38      1.0000 0.69489  0.53608  0.46763  Biso   1.000  H
  C55      1.0000 0.58674  0.38725  0.54552  Biso   1.000  C
  H39      1.0000 0.58327  0.35698  0.58721  Biso   1.000  H
  C56      1.0000 0.64842  0.44866  0.53607  Biso   1.000  C
  H40      1.0000 0.68461  0.45788  0.57116  Biso   1.000  H
  Zn4      1.0000 0.66100  0.59551  0.33107  Biso   1.000  Zn
  N17      1.0000 0.34306  0.98293  0.75645  Biso   1.000  N
  C57      1.0000 0.30113  0.96853  0.82174  Biso   1.000  C
  H41      1.0000 0.26238  0.92678  0.82752  Biso   1.000  H
  N18      1.0000 0.31818  0.01799  0.87885  Biso   1.000  N
  C58      1.0000 0.39277  0.04995  0.76999  Biso   1.000  C
  C59      1.0000 0.44955  0.09193  0.72408  Biso   1.000  C
  H42      1.0000 0.45990  0.07794  0.67379  Biso   1.000  H
  C60      1.0000 0.49000  0.15542  0.75560  Biso   1.000  C
  H43      1.0000 0.52846  0.18514  0.72568  Biso   1.000  H
  C61      1.0000 0.47498  0.17703  0.83282  Biso   1.000  C
  H44      1.0000 0.50361  0.22060  0.85216  Biso   1.000  H
  C62      1.0000 0.37776  0.07133  0.84664  Biso   1.000  C
  C63      1.0000 0.41919  0.13507  0.87921  Biso   1.000  C
  H45      1.0000 0.40953  0.14871  0.93041  Biso   1.000  H
  N19      1.0000 0.25517  0.84627  0.68806  Biso   1.000  N
  C64      1.0000 0.19284  0.80514  0.66407  Biso   1.000  C
  H46      1.0000 0.17328  0.81603  0.61976  Biso   1.000  H
  N20      1.0000 0.15936  0.74779  0.70547  Biso   1.000  N
  C65      1.0000 0.20503  0.75063  0.76407  Biso   1.000  C
  C66      1.0000 0.19915  0.70455  0.82908  Biso   1.000  C
  H47      1.0000 0.15909  0.66447  0.83712  Biso   1.000  H
  C67      1.0000 0.26380  0.81033  0.75474  Biso   1.000  C
  C68      1.0000 0.32182  0.82862  0.80762  Biso   1.000  C
  H48      1.0000 0.36156  0.86941  0.80096  Biso   1.000  H
  C69      1.0000 0.25341  0.72058  0.87885  Biso   1.000  C
  H49      1.0000 0.24994  0.69031  0.92054  Biso   1.000  H
  C70      1.0000 0.31509  0.78199  0.86940  Biso   1.000  C
  H50      1.0000 0.35128  0.79121  0.90449  Biso   1.000  H
  Zn5      1.0000 0.32767  0.92884  0.66440  Biso   1.000  Zn
  N21      1.0000 0.00972  0.31627  0.08979  Biso   1.000  N
  C71      1.0000 0.96779  0.30187  0.15508  Biso   1.000  C
  H51      1.0000 0.92904  0.26012  0.16086  Biso   1.000  H
  N22      1.0000 0.98484  0.35133  0.21219  Biso   1.000  N
  C72      1.0000 0.05943  0.38329  0.10333  Biso   1.000  C
  C73      1.0000 0.11621  0.42527  0.05742  Biso   1.000  C
  H52      1.0000 0.12656  0.41128  0.00713  Biso   1.000  H
  C74      1.0000 0.15666  0.48876  0.08894  Biso   1.000  C
  H53      1.0000 0.19512  0.51848  0.05902  Biso   1.000  H
  C75      1.0000 0.14164  0.51037  0.16616  Biso   1.000  C
  H54      1.0000 0.17027  0.55394  0.18550  Biso   1.000  H
  C76      1.0000 0.04442  0.40467  0.17998  Biso   1.000  C
  C77      1.0000 0.08585  0.46841  0.21255  Biso   1.000  C
  H55      1.0000 0.07619  0.48205  0.26375  Biso   1.000  H
  N23      1.0000 0.92183  0.17961  0.02140  Biso   1.000  N
  C78      1.0000 0.85950  0.13848  0.99741  Biso   1.000  C
  H56      1.0000 0.83994  0.14937  0.95310  Biso   1.000  H
  N24      1.0000 0.82602  0.08113  0.03881  Biso   1.000  N
  C79      1.0000 0.87169  0.08397  0.09741  Biso   1.000  C
  C80      1.0000 0.86581  0.03789  0.16242  Biso   1.000  C
  H57      1.0000 0.82575  0.99781  0.17046  Biso   1.000  H
  C81      1.0000 0.93046  0.14367  0.08808  Biso   1.000  C
  C82      1.0000 0.98848  0.16196  0.14096  Biso   1.000  C
  H58      1.0000 0.02822  0.20275  0.13430  Biso   1.000  H
  C83      1.0000 0.92007  0.05392  0.21219  Biso   1.000  C
  H59      1.0000 0.91660  0.02365  0.25388  Biso   1.000  H
  C84      1.0000 0.98175  0.11533  0.20274  Biso   1.000  C
  H60      1.0000 0.01794  0.12455  0.23783  Biso   1.000  H
  Zn6      1.0000 0.99433  0.26218  0.99774  Biso   1.000  Zn
  N25      1.0000 0.35040  0.02679  0.42312  Biso   1.000  N
  C85      1.0000 0.36480  0.99926  0.48841  Biso   1.000  C
  H61      1.0000 0.40655  0.00226  0.49419  Biso   1.000  H
  N26      1.0000 0.31534  0.96685  0.54552  Biso   1.000  N
  C86      1.0000 0.28338  0.00948  0.43666  Biso   1.000  C
  C87      1.0000 0.24140  0.02428  0.39075  Biso   1.000  C
  H62      1.0000 0.25539  0.04862  0.34046  Biso   1.000  H
  C88      1.0000 0.17791  0.00124  0.42227  Biso   1.000  C
  H63      1.0000 0.14819  0.00998  0.39235  Biso   1.000  H
  C89      1.0000 0.15630  0.96461  0.49949  Biso   1.000  C
  H64      1.0000 0.11273  0.94967  0.51883  Biso   1.000  H
  C90      1.0000 0.26200  0.97309  0.51331  Biso   1.000  C
  C91      1.0000 0.19826  0.95078  0.54588  Biso   1.000  C
  H65      1.0000 0.18462  0.92748  0.59708  Biso   1.000  H
  N27      1.0000 0.48706  0.07556  0.35473  Biso   1.000  N
  C92      1.0000 0.52819  0.05436  0.33074  Biso   1.000  C
  H66      1.0000 0.51730  0.02391  0.28643  Biso   1.000  H
  N28      1.0000 0.58554  0.07823  0.37214  Biso   1.000  N
  C93      1.0000 0.58270  0.12106  0.43074  Biso   1.000  C
  C94      1.0000 0.62878  0.16126  0.49575  Biso   1.000  C
  H67      1.0000 0.66886  0.16128  0.50379  Biso   1.000  H
  C95      1.0000 0.52300  0.12013  0.42141  Biso   1.000  C
  C96      1.0000 0.50471  0.15986  0.47429  Biso   1.000  C
  H68      1.0000 0.46392  0.15881  0.46763  Biso   1.000  H
  C97      1.0000 0.61275  0.19949  0.54552  Biso   1.000  C
  H69      1.0000 0.64302  0.22629  0.58721  Biso   1.000  H
  C98      1.0000 0.55134  0.19976  0.53607  Biso   1.000  C
  H70      1.0000 0.54212  0.22673  0.57116  Biso   1.000  H
  Zn7      1.0000 0.40449  0.06549  0.33107  Biso   1.000  Zn
  N29      1.0000 0.01707  0.36012  0.75645  Biso   1.000  N
  C99      1.0000 0.03147  0.33259  0.82174  Biso   1.000  C
  H71      1.0000 0.07322  0.33559  0.82752  Biso   1.000  H
  N30      1.0000 0.98201  0.30018  0.87885  Biso   1.000  N
  C100     1.0000 0.95005  0.34281  0.76999  Biso   1.000  C
  C101     1.0000 0.90807  0.35761  0.72408  Biso   1.000  C
  H72      1.0000 0.92206  0.38195  0.67379  Biso   1.000  H
  C102     1.0000 0.84458  0.33457  0.75560  Biso   1.000  C
  H73      1.0000 0.81486  0.34331  0.72568  Biso   1.000  H
  C103     1.0000 0.82297  0.29794  0.83282  Biso   1.000  C
  H74      1.0000 0.77940  0.28300  0.85216  Biso   1.000  H
  C104     1.0000 0.92867  0.30642  0.84664  Biso   1.000  C
  C105     1.0000 0.86493  0.28411  0.87921  Biso   1.000  C
  H75      1.0000 0.85129  0.26081  0.93041  Biso   1.000  H
  N31      1.0000 0.15373  0.40889  0.68806  Biso   1.000  N
  C106     1.0000 0.19486  0.38769  0.66407  Biso   1.000  C
  H76      1.0000 0.18397  0.35724  0.61976  Biso   1.000  H
  N32      1.0000 0.25221  0.41156  0.70547  Biso   1.000  N
  C107     1.0000 0.24937  0.45439  0.76407  Biso   1.000  C
  C108     1.0000 0.29545  0.49459  0.82908  Biso   1.000  C
  H77      1.0000 0.33553  0.49461  0.83712  Biso   1.000  H
  C109     1.0000 0.18967  0.45346  0.75474  Biso   1.000  C
  C110     1.0000 0.17138  0.49319  0.80762  Biso   1.000  C
  H78      1.0000 0.13059  0.49214  0.80096  Biso   1.000  H
  C111     1.0000 0.27942  0.53282  0.87885  Biso   1.000  C
  H79      1.0000 0.30969  0.55962  0.92054  Biso   1.000  H
  C112     1.0000 0.21801  0.53309  0.86940  Biso   1.000  C
  H80      1.0000 0.20879  0.56006  0.90449  Biso   1.000  H
  Zn8      1.0000 0.07116  0.39882  0.66440  Biso   1.000  Zn
  N33      1.0000 0.68373  0.69346  0.08979  Biso   1.000  N
  C113     1.0000 0.69813  0.66593  0.15508  Biso   1.000  C
  H81      1.0000 0.73988  0.66893  0.16086  Biso   1.000  H
  N34      1.0000 0.64867  0.63352  0.21219  Biso   1.000  N
  C114     1.0000 0.61671  0.67615  0.10333  Biso   1.000  C
  C115     1.0000 0.57473  0.69095  0.05742  Biso   1.000  C
  H82      1.0000 0.58872  0.71529  0.00713  Biso   1.000  H
  C116     1.0000 0.51124  0.66791  0.08894  Biso   1.000  C
  H83      1.0000 0.48152  0.67665  0.05902  Biso   1.000  H
  C117     1.0000 0.48963  0.63128  0.16616  Biso   1.000  C
  H84      1.0000 0.44606  0.61634  0.18550  Biso   1.000  H
  C118     1.0000 0.59533  0.63976  0.17998  Biso   1.000  C
  C119     1.0000 0.53159  0.61745  0.21255  Biso   1.000  C
  H85      1.0000 0.51795  0.59415  0.26375  Biso   1.000  H
  N35      1.0000 0.82039  0.74223  0.02140  Biso   1.000  N
  C120     1.0000 0.86152  0.72103  0.99741  Biso   1.000  C
  H86      1.0000 0.85063  0.69058  0.95310  Biso   1.000  H
  N36      1.0000 0.91887  0.74490  0.03881  Biso   1.000  N
  C121     1.0000 0.91603  0.78773  0.09741  Biso   1.000  C
  C122     1.0000 0.96211  0.82793  0.16242  Biso   1.000  C
  H87      1.0000 0.00219  0.82795  0.17046  Biso   1.000  H
  C123     1.0000 0.85633  0.78680  0.08808  Biso   1.000  C
  C124     1.0000 0.83804  0.82653  0.14096  Biso   1.000  C
  H88      1.0000 0.79725  0.82548  0.13430  Biso   1.000  H
  C125     1.0000 0.94608  0.86616  0.21219  Biso   1.000  C
  H89      1.0000 0.97635  0.89296  0.25388  Biso   1.000  H
  C126     1.0000 0.88467  0.86643  0.20274  Biso   1.000  C
  H90      1.0000 0.87545  0.89340  0.23783  Biso   1.000  H
  Zn9      1.0000 0.73782  0.73216  0.99774  Biso   1.000  Zn
  N37      1.0000 0.02679  0.67639  0.57688  Biso   1.000  N
  C127     1.0000 0.99926  0.63446  0.51159  Biso   1.000  C
  H91      1.0000 0.00226  0.59571  0.50581  Biso   1.000  H
  N38      1.0000 0.96685  0.65151  0.45448  Biso   1.000  N
  C128     1.0000 0.00948  0.72610  0.56334  Biso   1.000  C
  C129     1.0000 0.02428  0.78288  0.60925  Biso   1.000  C
  H92      1.0000 0.04862  0.79323  0.65954  Biso   1.000  H
  C130     1.0000 0.00124  0.82333  0.57773  Biso   1.000  C
  H93      1.0000 0.00998  0.86179  0.60765  Biso   1.000  H
  C131     1.0000 0.96461  0.80831  0.50051  Biso   1.000  C
  H94      1.0000 0.94967  0.83694  0.48117  Biso   1.000  H
  C132     1.0000 0.97309  0.71109  0.48669  Biso   1.000  C
  C133     1.0000 0.95078  0.75252  0.45412  Biso   1.000  C
  H95      1.0000 0.92748  0.74286  0.40292  Biso   1.000  H
  N39      1.0000 0.07556  0.58850  0.64527  Biso   1.000  N
  C134     1.0000 0.05436  0.52617  0.66926  Biso   1.000  C
  H96      1.0000 0.02391  0.50661  0.71357  Biso   1.000  H
  N40      1.0000 0.07823  0.49269  0.62786  Biso   1.000  N
  C135     1.0000 0.12106  0.53836  0.56926  Biso   1.000  C
  C136     1.0000 0.16126  0.53248  0.50425  Biso   1.000  C
  H97      1.0000 0.16128  0.49242  0.49621  Biso   1.000  H
  C137     1.0000 0.12013  0.59713  0.57859  Biso   1.000  C
  C138     1.0000 0.15986  0.65515  0.52571  Biso   1.000  C
  H98      1.0000 0.15881  0.69489  0.53237  Biso   1.000  H
  C139     1.0000 0.19949  0.58674  0.45448  Biso   1.000  C
  H99      1.0000 0.22629  0.58327  0.41279  Biso   1.000  H
  C140     1.0000 0.19976  0.64842  0.46393  Biso   1.000  C
  H100     1.0000 0.22673  0.68461  0.42884  Biso   1.000  H
  Zn10     1.0000 0.06549  0.66100  0.66893  Biso   1.000  Zn
  N41      1.0000 0.69346  0.00972  0.91021  Biso   1.000  N
  C141     1.0000 0.66593  0.96779  0.84492  Biso   1.000  C
  H101     1.0000 0.66893  0.92904  0.83914  Biso   1.000  H
  N42      1.0000 0.63352  0.98484  0.78781  Biso   1.000  N
  C142     1.0000 0.67615  0.05943  0.89667  Biso   1.000  C
  C143     1.0000 0.69095  0.11621  0.94258  Biso   1.000  C
  H102     1.0000 0.71529  0.12656  0.99287  Biso   1.000  H
  C144     1.0000 0.66791  0.15666  0.91106  Biso   1.000  C
  H103     1.0000 0.67665  0.19512  0.94098  Biso   1.000  H
  C145     1.0000 0.63128  0.14164  0.83384  Biso   1.000  C
  H104     1.0000 0.61634  0.17027  0.81450  Biso   1.000  H
  C146     1.0000 0.63976  0.04442  0.82002  Biso   1.000  C
  C147     1.0000 0.61745  0.08585  0.78745  Biso   1.000  C
  H105     1.0000 0.59415  0.07619  0.73625  Biso   1.000  H
  N43      1.0000 0.74223  0.92183  0.97860  Biso   1.000  N
  C148     1.0000 0.72103  0.85950  0.00259  Biso   1.000  C
  H106     1.0000 0.69058  0.83994  0.04690  Biso   1.000  H
  N44      1.0000 0.74490  0.82602  0.96119  Biso   1.000  N
  C149     1.0000 0.78773  0.87169  0.90259  Biso   1.000  C
  C150     1.0000 0.82793  0.86581  0.83758  Biso   1.000  C
  H107     1.0000 0.82795  0.82575  0.82954  Biso   1.000  H
  C151     1.0000 0.78680  0.93046  0.91192  Biso   1.000  C
  C152     1.0000 0.82653  0.98848  0.85904  Biso   1.000  C
  H108     1.0000 0.82548  0.02822  0.86570  Biso   1.000  H
  C153     1.0000 0.86616  0.92007  0.78781  Biso   1.000  C
  H109     1.0000 0.89296  0.91660  0.74612  Biso   1.000  H
  C154     1.0000 0.86643  0.98175  0.79726  Biso   1.000  C
  H110     1.0000 0.89340  0.01794  0.76217  Biso   1.000  H
  Zn11     1.0000 0.73216  0.99433  0.00226  Biso   1.000  Zn
  N45      1.0000 0.36012  0.34306  0.24355  Biso   1.000  N
  C155     1.0000 0.33259  0.30113  0.17826  Biso   1.000  C
  H111     1.0000 0.33559  0.26238  0.17248  Biso   1.000  H
  N46      1.0000 0.30018  0.31818  0.12115  Biso   1.000  N
  C156     1.0000 0.34281  0.39277  0.23001  Biso   1.000  C
  C157     1.0000 0.35761  0.44955  0.27592  Biso   1.000  C
  H112     1.0000 0.38195  0.45990  0.32621  Biso   1.000  H
  C158     1.0000 0.33457  0.49000  0.24440  Biso   1.000  C
  H113     1.0000 0.34331  0.52846  0.27432  Biso   1.000  H
  C159     1.0000 0.29794  0.47498  0.16718  Biso   1.000  C
  H114     1.0000 0.28300  0.50361  0.14784  Biso   1.000  H
  C160     1.0000 0.30642  0.37776  0.15336  Biso   1.000  C
  C161     1.0000 0.28411  0.41919  0.12079  Biso   1.000  C
  H115     1.0000 0.26081  0.40953  0.06959  Biso   1.000  H
  N47      1.0000 0.40889  0.25517  0.31194  Biso   1.000  N
  C162     1.0000 0.38769  0.19284  0.33593  Biso   1.000  C
  H116     1.0000 0.35724  0.17328  0.38024  Biso   1.000  H
  N48      1.0000 0.41156  0.15936  0.29453  Biso   1.000  N
  C163     1.0000 0.45439  0.20503  0.23593  Biso   1.000  C
  C164     1.0000 0.49459  0.19915  0.17092  Biso   1.000  C
  H117     1.0000 0.49461  0.15909  0.16288  Biso   1.000  H
  C165     1.0000 0.45346  0.26380  0.24526  Biso   1.000  C
  C166     1.0000 0.49319  0.32182  0.19238  Biso   1.000  C
  H118     1.0000 0.49214  0.36156  0.19904  Biso   1.000  H
  C167     1.0000 0.53282  0.25341  0.12115  Biso   1.000  C
  H119     1.0000 0.55962  0.24994  0.07946  Biso   1.000  H
  C168     1.0000 0.53309  0.31509  0.13060  Biso   1.000  C
  H120     1.0000 0.56006  0.35128  0.09551  Biso   1.000  H
  Zn12     1.0000 0.39882  0.32767  0.33560  Biso   1.000  Zn
  N49      1.0000 0.32361  0.35040  0.57688  Biso   1.000  N
  C169     1.0000 0.36554  0.36480  0.51159  Biso   1.000  C
  H121     1.0000 0.40429  0.40655  0.50581  Biso   1.000  H
  N50      1.0000 0.34849  0.31534  0.45448  Biso   1.000  N
  C170     1.0000 0.27390  0.28338  0.56334  Biso   1.000  C
  C171     1.0000 0.21712  0.24140  0.60925  Biso   1.000  C
  H122     1.0000 0.20677  0.25539  0.65954  Biso   1.000  H
  C172     1.0000 0.17667  0.17791  0.57773  Biso   1.000  C
  H123     1.0000 0.13821  0.14819  0.60765  Biso   1.000  H
  C173     1.0000 0.19169  0.15630  0.50051  Biso   1.000  C
  H124     1.0000 0.16306  0.11273  0.48117  Biso   1.000  H
  C174     1.0000 0.28891  0.26200  0.48669  Biso   1.000  C
  C175     1.0000 0.24748  0.19826  0.45412  Biso   1.000  C
  H125     1.0000 0.25714  0.18462  0.40292  Biso   1.000  H
  N51      1.0000 0.41150  0.48706  0.64527  Biso   1.000  N
  C176     1.0000 0.47383  0.52819  0.66926  Biso   1.000  C
  H126     1.0000 0.49339  0.51730  0.71357  Biso   1.000  H
  N52      1.0000 0.50731  0.58554  0.62786  Biso   1.000  N
  C177     1.0000 0.46164  0.58270  0.56926  Biso   1.000  C
  C178     1.0000 0.46752  0.62878  0.50425  Biso   1.000  C
  H127     1.0000 0.50758  0.66886  0.49621  Biso   1.000  H
  C179     1.0000 0.40287  0.52300  0.57859  Biso   1.000  C
  C180     1.0000 0.34485  0.50471  0.52571  Biso   1.000  C
  H128     1.0000 0.30511  0.46392  0.53237  Biso   1.000  H
  C181     1.0000 0.41326  0.61275  0.45448  Biso   1.000  C
  H129     1.0000 0.41673  0.64302  0.41279  Biso   1.000  H
  C182     1.0000 0.35158  0.55134  0.46393  Biso   1.000  C
  H130     1.0000 0.31539  0.54212  0.42884  Biso   1.000  H
  Zn13     1.0000 0.33900  0.40449  0.66893  Biso   1.000  Zn
  N53      1.0000 0.99028  0.68373  0.91021  Biso   1.000  N
  C183     1.0000 0.03221  0.69813  0.84492  Biso   1.000  C
  H131     1.0000 0.07096  0.73988  0.83914  Biso   1.000  H
  N54      1.0000 0.01516  0.64867  0.78781  Biso   1.000  N
  C184     1.0000 0.94057  0.61671  0.89667  Biso   1.000  C
  C185     1.0000 0.88379  0.57473  0.94258  Biso   1.000  C
  H132     1.0000 0.87344  0.58872  0.99287  Biso   1.000  H
  C186     1.0000 0.84334  0.51124  0.91106  Biso   1.000  C
  H133     1.0000 0.80488  0.48152  0.94098  Biso   1.000  H
  C187     1.0000 0.85836  0.48963  0.83384  Biso   1.000  C
  H134     1.0000 0.82973  0.44606  0.81450  Biso   1.000  H
  C188     1.0000 0.95558  0.59533  0.82002  Biso   1.000  C
  C189     1.0000 0.91415  0.53159  0.78745  Biso   1.000  C
  H135     1.0000 0.92381  0.51795  0.73625  Biso   1.000  H
  N55      1.0000 0.07817  0.82039  0.97860  Biso   1.000  N
  C190     1.0000 0.14050  0.86152  0.00259  Biso   1.000  C
  H136     1.0000 0.16006  0.85063  0.04690  Biso   1.000  H
  N56      1.0000 0.17398  0.91887  0.96119  Biso   1.000  N
  C191     1.0000 0.12831  0.91603  0.90259  Biso   1.000  C
  C192     1.0000 0.13419  0.96211  0.83758  Biso   1.000  C
  H137     1.0000 0.17425  0.00219  0.82954  Biso   1.000  H
  C193     1.0000 0.06954  0.85633  0.91192  Biso   1.000  C
  C194     1.0000 0.01152  0.83804  0.85904  Biso   1.000  C
  H138     1.0000 0.97178  0.79725  0.86570  Biso   1.000  H
  C195     1.0000 0.07993  0.94608  0.78781  Biso   1.000  C
  H139     1.0000 0.08340  0.97635  0.74612  Biso   1.000  H
  C196     1.0000 0.01825  0.88467  0.79726  Biso   1.000  C
  H140     1.0000 0.98206  0.87545  0.76217  Biso   1.000  H
  Zn14     1.0000 0.00567  0.73782  0.00226  Biso   1.000  Zn
  N57      1.0000 0.65694  0.01707  0.24355  Biso   1.000  N
  C197     1.0000 0.69887  0.03147  0.17826  Biso   1.000  C
  H141     1.0000 0.73762  0.07322  0.17248  Biso   1.000  H
  N58      1.0000 0.68182  0.98201  0.12115  Biso   1.000  N
  C198     1.0000 0.60723  0.95005  0.23001  Biso   1.000  C
  C199     1.0000 0.55045  0.90807  0.27592  Biso   1.000  C
  H142     1.0000 0.54010  0.92206  0.32621  Biso   1.000  H
  C200     1.0000 0.51000  0.84458  0.24440  Biso   1.000  C
  H143     1.0000 0.47154  0.81486  0.27432  Biso   1.000  H
  C201     1.0000 0.52502  0.82297  0.16718  Biso   1.000  C
  H144     1.0000 0.49639  0.77940  0.14784  Biso   1.000  H
  C202     1.0000 0.62224  0.92867  0.15336  Biso   1.000  C
  C203     1.0000 0.58081  0.86493  0.12079  Biso   1.000  C
  H145     1.0000 0.59047  0.85129  0.06959  Biso   1.000  H
  N59      1.0000 0.74483  0.15373  0.31194  Biso   1.000  N
  C204     1.0000 0.80716  0.19486  0.33593  Biso   1.000  C
  H146     1.0000 0.82672  0.18397  0.38024  Biso   1.000  H
  N60      1.0000 0.84064  0.25221  0.29453  Biso   1.000  N
  C205     1.0000 0.79497  0.24937  0.23593  Biso   1.000  C
  C206     1.0000 0.80085  0.29545  0.17092  Biso   1.000  C
  H147     1.0000 0.84091  0.33553  0.16288  Biso   1.000  H
  C207     1.0000 0.73620  0.18967  0.24526  Biso   1.000  C
  C208     1.0000 0.67818  0.17138  0.19238  Biso   1.000  C
  H148     1.0000 0.63844  0.13059  0.19904  Biso   1.000  H
  C209     1.0000 0.74659  0.27942  0.12115  Biso   1.000  C
  H149     1.0000 0.75006  0.30969  0.07946  Biso   1.000  H
  C210     1.0000 0.68491  0.21801  0.13060  Biso   1.000  C
  H150     1.0000 0.64872  0.20879  0.09551  Biso   1.000  H
  Zn15     1.0000 0.67233  0.07116  0.33560  Biso   1.000  Zn
  N61      1.0000 0.64960  0.97321  0.57688  Biso   1.000  N
  C211     1.0000 0.63520  0.00074  0.51159  Biso   1.000  C
  H151     1.0000 0.59345  0.99774  0.50581  Biso   1.000  H
  N62      1.0000 0.68466  0.03315  0.45448  Biso   1.000  N
  C212     1.0000 0.71662  0.99052  0.56334  Biso   1.000  C
  C213     1.0000 0.75860  0.97572  0.60925  Biso   1.000  C
  H152     1.0000 0.74461  0.95138  0.65954  Biso   1.000  H
  C214     1.0000 0.82209  0.99876  0.57773  Biso   1.000  C
  H153     1.0000 0.85181  0.99002  0.60765  Biso   1.000  H
  C215     1.0000 0.84370  0.03539  0.50051  Biso   1.000  C
  H154     1.0000 0.88727  0.05033  0.48117  Biso   1.000  H
  C216     1.0000 0.73800  0.02691  0.48669  Biso   1.000  C
  C217     1.0000 0.80174  0.04922  0.45412  Biso   1.000  C
  H155     1.0000 0.81538  0.07252  0.40292  Biso   1.000  H
  N63      1.0000 0.51294  0.92444  0.64527  Biso   1.000  N
  C218     1.0000 0.47181  0.94564  0.66926  Biso   1.000  C
  H156     1.0000 0.48270  0.97609  0.71357  Biso   1.000  H
  N64      1.0000 0.41446  0.92177  0.62786  Biso   1.000  N
  C219     1.0000 0.41730  0.87894  0.56926  Biso   1.000  C
  C220     1.0000 0.37122  0.83874  0.50425  Biso   1.000  C
  H157     1.0000 0.33114  0.83872  0.49621  Biso   1.000  H
  C221     1.0000 0.47700  0.87987  0.57859  Biso   1.000  C
  C222     1.0000 0.49529  0.84014  0.52571  Biso   1.000  C
  H158     1.0000 0.53608  0.84119  0.53237  Biso   1.000  H
  C223     1.0000 0.38725  0.80051  0.45448  Biso   1.000  C
  H159     1.0000 0.35698  0.77371  0.41279  Biso   1.000  H
  C224     1.0000 0.44866  0.80024  0.46393  Biso   1.000  C
  H160     1.0000 0.45788  0.77327  0.42884  Biso   1.000  H
  Zn16     1.0000 0.59551  0.93451  0.66893  Biso   1.000  Zn
  N65      1.0000 0.31627  0.30654  0.91021  Biso   1.000  N
  C225     1.0000 0.30187  0.33407  0.84492  Biso   1.000  C
  H161     1.0000 0.26012  0.33107  0.83914  Biso   1.000  H
  N66      1.0000 0.35133  0.36648  0.78781  Biso   1.000  N
  C226     1.0000 0.38329  0.32385  0.89667  Biso   1.000  C
  C227     1.0000 0.42527  0.30905  0.94258  Biso   1.000  C
  H162     1.0000 0.41128  0.28471  0.99287  Biso   1.000  H
  C228     1.0000 0.48876  0.33209  0.91106  Biso   1.000  C
  H163     1.0000 0.51848  0.32335  0.94098  Biso   1.000  H
  C229     1.0000 0.51037  0.36872  0.83384  Biso   1.000  C
  H164     1.0000 0.55394  0.38366  0.81450  Biso   1.000  H
  C230     1.0000 0.40467  0.36024  0.82002  Biso   1.000  C
  C231     1.0000 0.46841  0.38255  0.78745  Biso   1.000  C
  H165     1.0000 0.48205  0.40585  0.73625  Biso   1.000  H
  N67      1.0000 0.17961  0.25777  0.97860  Biso   1.000  N
  C232     1.0000 0.13848  0.27897  0.00259  Biso   1.000  C
  H166     1.0000 0.14937  0.30942  0.04690  Biso   1.000  H
  N68      1.0000 0.08113  0.25510  0.96119  Biso   1.000  N
  C233     1.0000 0.08397  0.21227  0.90259  Biso   1.000  C
  C234     1.0000 0.03789  0.17207  0.83758  Biso   1.000  C
  H167     1.0000 0.99781  0.17205  0.82954  Biso   1.000  H
  C235     1.0000 0.14367  0.21320  0.91192  Biso   1.000  C
  C236     1.0000 0.16196  0.17347  0.85904  Biso   1.000  C
  H168     1.0000 0.20275  0.17452  0.86570  Biso   1.000  H
  C237     1.0000 0.05392  0.13384  0.78781  Biso   1.000  C
  H169     1.0000 0.02365  0.10704  0.74612  Biso   1.000  H
  C238     1.0000 0.11533  0.13357  0.79726  Biso   1.000  C
  H170     1.0000 0.12455  0.10660  0.76217  Biso   1.000  H
  Zn17     1.0000 0.26218  0.26784  0.00226  Biso   1.000  Zn
  N69      1.0000 0.98293  0.63988  0.24355  Biso   1.000  N
  C239     1.0000 0.96853  0.66741  0.17826  Biso   1.000  C
  H171     1.0000 0.92678  0.66441  0.17248  Biso   1.000  H
  N70      1.0000 0.01799  0.69982  0.12115  Biso   1.000  N
  C240     1.0000 0.04995  0.65719  0.23001  Biso   1.000  C
  C241     1.0000 0.09193  0.64239  0.27592  Biso   1.000  C
  H172     1.0000 0.07794  0.61805  0.32621  Biso   1.000  H
  C242     1.0000 0.15542  0.66543  0.24440  Biso   1.000  C
  H173     1.0000 0.18514  0.65669  0.27432  Biso   1.000  H
  C243     1.0000 0.17703  0.70206  0.16718  Biso   1.000  C
  H174     1.0000 0.22060  0.71700  0.14784  Biso   1.000  H
  C244     1.0000 0.07133  0.69358  0.15336  Biso   1.000  C
  C245     1.0000 0.13507  0.71589  0.12079  Biso   1.000  C
  H175     1.0000 0.14871  0.73919  0.06959  Biso   1.000  H
  N71      1.0000 0.84627  0.59111  0.31194  Biso   1.000  N
  C246     1.0000 0.80514  0.61231  0.33593  Biso   1.000  C
  H176     1.0000 0.81603  0.64276  0.38024  Biso   1.000  H
  N72      1.0000 0.74779  0.58844  0.29453  Biso   1.000  N
  C247     1.0000 0.75063  0.54561  0.23593  Biso   1.000  C
  C248     1.0000 0.70455  0.50541  0.17092  Biso   1.000  C
  H177     1.0000 0.66447  0.50539  0.16288  Biso   1.000  H
  C249     1.0000 0.81033  0.54654  0.24526  Biso   1.000  C
  C250     1.0000 0.82862  0.50681  0.19238  Biso   1.000  C
  H178     1.0000 0.86941  0.50786  0.19904  Biso   1.000  H
  C251     1.0000 0.72058  0.46718  0.12115  Biso   1.000  C
  H179     1.0000 0.69031  0.44038  0.07946  Biso   1.000  H
  C252     1.0000 0.78199  0.46691  0.13060  Biso   1.000  C
  H180     1.0000 0.79121  0.43994  0.09551  Biso   1.000  H
  Zn18     1.0000 0.92884  0.60118  0.33560  Biso   1.000  Zn
