data_RIPTAM_clean
_audit_creation_date              2014-07-02
_audit_creation_method            'Materials Studio'
_symmetry_space_group_name_H-M    'P1'
_symmetry_Int_Tables_number       1
_symmetry_cell_setting            triclinic
loop_
_symmetry_equiv_pos_as_xyz
  x,y,z
_cell_length_a                    9.4391
_cell_length_b                    16.2024
_cell_length_c                    23.9864
_cell_angle_alpha                 108.3540
_cell_angle_beta                  90.0000
_cell_angle_gamma                 90.0000
loop_
_atom_site_label
_atom_site_type_symbol
_atom_site_fract_x
_atom_site_fract_y
_atom_site_fract_z
_atom_site_U_iso_or_equiv
_atom_site_adp_type
_atom_site_occupancy
Tb1    Tb    0.49953   0.70184   0.90304   0.01267  Uiso   1.00
Tb2    Tb    0.49953   0.29816   0.59696   0.01267  Uiso   1.00
Tb3    Tb    0.50047   0.29816   0.09696   0.01267  Uiso   1.00
Tb4    Tb    0.50047   0.70184   0.40304   0.01267  Uiso   1.00
Ca1    Ca    0.00232   0.50000   0.75000   0.01267  Uiso   1.00
Ca2    Ca    0.99768   0.50000   0.25000   0.01267  Uiso   1.00
Ca3    Ca    0.00000   0.50000   0.00000   0.01267  Uiso   1.00
Ca4    Ca    0.00000   0.50000   0.50000   0.01267  Uiso   1.00
Ca5    Ca    0.00000   0.00000   0.00000   0.01267  Uiso   1.00
Ca6    Ca    0.00000   0.00000   0.50000   0.01267  Uiso   1.00
H1     H     0.31330   0.90130   0.11640   0.01267  Uiso   1.00
H2     H     0.46990   0.01740   0.13090   0.01267  Uiso   1.00
H3     H     0.64300   0.01010   0.06090   0.01267  Uiso   1.00
H4     H     0.38830   0.86740   0.74490   0.01267  Uiso   1.00
H5     H     0.56880   0.80650   0.67850   0.01267  Uiso   1.00
H6     H     0.72040   0.70700   0.69750   0.01267  Uiso   1.00
H7     H     0.64930   0.41830   0.96100   0.01267  Uiso   1.00
H8     H     0.47380   0.32430   0.90930   0.01267  Uiso   1.00
H9     H     0.31520   0.37210   0.85250   0.01267  Uiso   1.00
H10    H     0.31330   0.09870   0.38360   0.01267  Uiso   1.00
H11    H     0.46990   0.98260   0.36910   0.01267  Uiso   1.00
H12    H     0.64300   0.98990   0.43910   0.01267  Uiso   1.00
H13    H     0.38830   0.13260   0.75510   0.01267  Uiso   1.00
H14    H     0.56880   0.19350   0.82150   0.01267  Uiso   1.00
H15    H     0.72040   0.29300   0.80250   0.01267  Uiso   1.00
H16    H     0.64930   0.58170   0.53900   0.01267  Uiso   1.00
H17    H     0.47380   0.67570   0.59070   0.01267  Uiso   1.00
H18    H     0.31520   0.62790   0.64750   0.01267  Uiso   1.00
H19    H     0.68670   0.09870   0.88360   0.01267  Uiso   1.00
H20    H     0.53010   0.98260   0.86910   0.01267  Uiso   1.00
H21    H     0.35700   0.98990   0.93910   0.01267  Uiso   1.00
H22    H     0.61170   0.13260   0.25510   0.01267  Uiso   1.00
H23    H     0.43120   0.19350   0.32150   0.01267  Uiso   1.00
H24    H     0.27960   0.29300   0.30250   0.01267  Uiso   1.00
H25    H     0.35070   0.58170   0.03900   0.01267  Uiso   1.00
H26    H     0.52620   0.67570   0.09070   0.01267  Uiso   1.00
H27    H     0.68480   0.62790   0.14750   0.01267  Uiso   1.00
H28    H     0.68670   0.90130   0.61640   0.01267  Uiso   1.00
H29    H     0.53010   0.01740   0.63090   0.01267  Uiso   1.00
H30    H     0.35700   0.01010   0.56090   0.01267  Uiso   1.00
H31    H     0.61170   0.86740   0.24490   0.01267  Uiso   1.00
H32    H     0.43120   0.80650   0.17850   0.01267  Uiso   1.00
H33    H     0.27960   0.70700   0.19750   0.01267  Uiso   1.00
H34    H     0.35070   0.41830   0.46100   0.01267  Uiso   1.00
H35    H     0.52620   0.32430   0.40930   0.01267  Uiso   1.00
H36    H     0.68480   0.37210   0.35250   0.01267  Uiso   1.00
C1     C     0.30370   0.75050   0.02580   0.01267  Uiso   1.00
C2     C     0.39680   0.82950   0.03910   0.01267  Uiso   1.00
C3     C     0.38360   0.90000   0.08890   0.01267  Uiso   1.00
C4     C     0.47670   0.96890   0.09760   0.01267  Uiso   1.00
C5     C     0.57940   0.96450   0.05600   0.01267  Uiso   1.00
C6     C     0.58700   0.89160   0.00680   0.01267  Uiso   1.00
C7     C     0.69320   0.88030   0.95900   0.01267  Uiso   1.00
C8     C     0.31880   0.83110   0.84550   0.01267  Uiso   1.00
C9     C     0.43050   0.79580   0.79860   0.01267  Uiso   1.00
C10    C     0.44780   0.82510   0.75070   0.01267  Uiso   1.00
C11    C     0.55610   0.78960   0.71180   0.01267  Uiso   1.00
C12    C     0.64450   0.72950   0.72240   0.01267  Uiso   1.00
C13    C     0.61950   0.70280   0.77070   0.01267  Uiso   1.00
C14    C     0.70960   0.63650   0.78680   0.01267  Uiso   1.00
C15    C     0.69300   0.58840   0.96780   0.01267  Uiso   1.00
C16    C     0.58660   0.52050   0.93470   0.01267  Uiso   1.00
C17    C     0.58350   0.43630   0.93840   0.01267  Uiso   1.00
C18    C     0.47980   0.38060   0.90750   0.01267  Uiso   1.00
C19    C     0.38550   0.40900   0.87380   0.01267  Uiso   1.00
C20    C     0.39690   0.49310   0.87220   0.01267  Uiso   1.00
C21    C     0.29810   0.53190   0.83820   0.01267  Uiso   1.00
C22    C     0.30370   0.24950   0.47420   0.01267  Uiso   1.00
C23    C     0.39680   0.17050   0.46090   0.01267  Uiso   1.00
C24    C     0.38360   0.10000   0.41110   0.01267  Uiso   1.00
C25    C     0.47670   0.03110   0.40240   0.01267  Uiso   1.00
C26    C     0.57940   0.03550   0.44400   0.01267  Uiso   1.00
C27    C     0.58700   0.10840   0.49320   0.01267  Uiso   1.00
C28    C     0.69320   0.11970   0.54100   0.01267  Uiso   1.00
C29    C     0.31880   0.16890   0.65450   0.01267  Uiso   1.00
C30    C     0.43050   0.20420   0.70140   0.01267  Uiso   1.00
C31    C     0.44780   0.17490   0.74930   0.01267  Uiso   1.00
C32    C     0.55610   0.21040   0.78820   0.01267  Uiso   1.00
C33    C     0.64450   0.27050   0.77760   0.01267  Uiso   1.00
C34    C     0.61950   0.29720   0.72930   0.01267  Uiso   1.00
C35    C     0.70960   0.36350   0.71320   0.01267  Uiso   1.00
C36    C     0.69300   0.41160   0.53220   0.01267  Uiso   1.00
C37    C     0.58660   0.47950   0.56530   0.01267  Uiso   1.00
C38    C     0.58350   0.56370   0.56160   0.01267  Uiso   1.00
C39    C     0.47980   0.61940   0.59250   0.01267  Uiso   1.00
C40    C     0.38550   0.59100   0.62620   0.01267  Uiso   1.00
C41    C     0.39690   0.50690   0.62780   0.01267  Uiso   1.00
C42    C     0.29810   0.46810   0.66180   0.01267  Uiso   1.00
C43    C     0.69630   0.24950   0.97420   0.01267  Uiso   1.00
C44    C     0.60320   0.17050   0.96090   0.01267  Uiso   1.00
C45    C     0.61640   0.10000   0.91110   0.01267  Uiso   1.00
C46    C     0.52330   0.03110   0.90240   0.01267  Uiso   1.00
C47    C     0.42060   0.03550   0.94400   0.01267  Uiso   1.00
C48    C     0.41300   0.10840   0.99320   0.01267  Uiso   1.00
C49    C     0.30680   0.11970   0.04100   0.01267  Uiso   1.00
C50    C     0.68120   0.16890   0.15450   0.01267  Uiso   1.00
C51    C     0.56950   0.20420   0.20140   0.01267  Uiso   1.00
C52    C     0.55220   0.17490   0.24930   0.01267  Uiso   1.00
C53    C     0.44390   0.21040   0.28820   0.01267  Uiso   1.00
C54    C     0.35550   0.27050   0.27760   0.01267  Uiso   1.00
C55    C     0.38050   0.29720   0.22930   0.01267  Uiso   1.00
C56    C     0.29040   0.36350   0.21320   0.01267  Uiso   1.00
C57    C     0.30700   0.41160   0.03220   0.01267  Uiso   1.00
C58    C     0.41340   0.47950   0.06530   0.01267  Uiso   1.00
C59    C     0.41650   0.56370   0.06160   0.01267  Uiso   1.00
C60    C     0.52020   0.61940   0.09250   0.01267  Uiso   1.00
C61    C     0.61450   0.59100   0.12620   0.01267  Uiso   1.00
C62    C     0.60310   0.50690   0.12780   0.01267  Uiso   1.00
C63    C     0.70190   0.46810   0.16180   0.01267  Uiso   1.00
C64    C     0.69630   0.75050   0.52580   0.01267  Uiso   1.00
C65    C     0.60320   0.82950   0.53910   0.01267  Uiso   1.00
C66    C     0.61640   0.90000   0.58890   0.01267  Uiso   1.00
C67    C     0.52330   0.96890   0.59760   0.01267  Uiso   1.00
C68    C     0.42060   0.96450   0.55600   0.01267  Uiso   1.00
C69    C     0.41300   0.89160   0.50680   0.01267  Uiso   1.00
C70    C     0.30680   0.88030   0.45900   0.01267  Uiso   1.00
C71    C     0.68120   0.83110   0.34550   0.01267  Uiso   1.00
C72    C     0.56950   0.79580   0.29860   0.01267  Uiso   1.00
C73    C     0.55220   0.82510   0.25070   0.01267  Uiso   1.00
C74    C     0.44390   0.78960   0.21180   0.01267  Uiso   1.00
C75    C     0.35550   0.72950   0.22240   0.01267  Uiso   1.00
C76    C     0.38050   0.70280   0.27070   0.01267  Uiso   1.00
C77    C     0.29040   0.63650   0.28680   0.01267  Uiso   1.00
C78    C     0.30700   0.58840   0.46780   0.01267  Uiso   1.00
C79    C     0.41340   0.52050   0.43470   0.01267  Uiso   1.00
C80    C     0.41650   0.43630   0.43840   0.01267  Uiso   1.00
C81    C     0.52020   0.38060   0.40750   0.01267  Uiso   1.00
C82    C     0.61450   0.40900   0.37380   0.01267  Uiso   1.00
C83    C     0.60310   0.49310   0.37220   0.01267  Uiso   1.00
C84    C     0.70190   0.53190   0.33820   0.01267  Uiso   1.00
N1     N     0.49500   0.82570   0.99820   0.01267  Uiso   1.00
N2     N     0.51500   0.73560   0.80815   0.01267  Uiso   1.00
N3     N     0.49520   0.54750   0.90340   0.01267  Uiso   1.00
N4     N     0.49500   0.17430   0.50180   0.01267  Uiso   1.00
N5     N     0.51500   0.26440   0.69185   0.01267  Uiso   1.00
N6     N     0.49520   0.45250   0.59660   0.01267  Uiso   1.00
N7     N     0.50500   0.17430   0.00180   0.01267  Uiso   1.00
N8     N     0.48500   0.26440   0.19185   0.01267  Uiso   1.00
N9     N     0.50480   0.45250   0.09660   0.01267  Uiso   1.00
N10    N     0.50500   0.82570   0.49820   0.01267  Uiso   1.00
N11    N     0.48500   0.73560   0.30815   0.01267  Uiso   1.00
N12    N     0.50480   0.54750   0.40340   0.01267  Uiso   1.00
O1     O     0.32020   0.69470   0.97502   0.01267  Uiso   1.00
O2     O     0.22060   0.74370   0.06380   0.01267  Uiso   1.00
O3     O     0.67660   0.81430   0.91402   0.01267  Uiso   1.00
O4     O     0.78850   0.93530   0.96531   0.01267  Uiso   1.00
O5     O     0.32700   0.80540   0.89004   0.01267  Uiso   1.00
O6     O     0.23190   0.88360   0.83820   0.01267  Uiso   1.00
O7     O     0.80430   0.59800   0.75241   0.01267  Uiso   1.00
O8     O     0.68120   0.62570   0.83534   0.01267  Uiso   1.00
O9     O     0.67210   0.66420   0.96569   0.01267  Uiso   1.00
O10    O     0.79020   0.56630   0.99461   0.01267  Uiso   1.00
O11    O     0.32140   0.61070   0.84197   0.01267  Uiso   1.00
O12    O     0.20030   0.48670   0.80982   0.01267  Uiso   1.00
O13    O     0.32020   0.30530   0.52498   0.01267  Uiso   1.00
O14    O     0.22060   0.25630   0.43620   0.01267  Uiso   1.00
O15    O     0.67660   0.18570   0.58598   0.01267  Uiso   1.00
O16    O     0.78850   0.06470   0.53469   0.01267  Uiso   1.00
O17    O     0.32700   0.19460   0.60996   0.01267  Uiso   1.00
O18    O     0.23190   0.11640   0.66180   0.01267  Uiso   1.00
O19    O     0.80430   0.40200   0.74759   0.01267  Uiso   1.00
O20    O     0.68120   0.37430   0.66466   0.01267  Uiso   1.00
O21    O     0.67210   0.33580   0.53431   0.01267  Uiso   1.00
O22    O     0.79020   0.43370   0.50539   0.01267  Uiso   1.00
O23    O     0.32140   0.38930   0.65803   0.01267  Uiso   1.00
O24    O     0.20030   0.51330   0.69018   0.01267  Uiso   1.00
O25    O     0.67980   0.30530   0.02498   0.01267  Uiso   1.00
O26    O     0.77940   0.25630   0.93620   0.01267  Uiso   1.00
O27    O     0.32340   0.18570   0.08598   0.01267  Uiso   1.00
O28    O     0.21150   0.06470   0.03469   0.01267  Uiso   1.00
O29    O     0.67300   0.19460   0.10996   0.01267  Uiso   1.00
O30    O     0.76810   0.11640   0.16180   0.01267  Uiso   1.00
O31    O     0.19570   0.40200   0.24759   0.01267  Uiso   1.00
O32    O     0.31880   0.37430   0.16466   0.01267  Uiso   1.00
O33    O     0.32790   0.33580   0.03431   0.01267  Uiso   1.00
O34    O     0.20980   0.43370   0.00539   0.01267  Uiso   1.00
O35    O     0.67860   0.38930   0.15803   0.01267  Uiso   1.00
O36    O     0.79970   0.51330   0.19018   0.01267  Uiso   1.00
O37    O     0.67980   0.69470   0.47502   0.01267  Uiso   1.00
O38    O     0.77940   0.74370   0.56380   0.01267  Uiso   1.00
O39    O     0.32340   0.81430   0.41402   0.01267  Uiso   1.00
O40    O     0.21150   0.93530   0.46531   0.01267  Uiso   1.00
O41    O     0.67300   0.80540   0.39004   0.01267  Uiso   1.00
O42    O     0.76810   0.88360   0.33820   0.01267  Uiso   1.00
O43    O     0.19570   0.59800   0.25241   0.01267  Uiso   1.00
O44    O     0.31880   0.62570   0.33534   0.01267  Uiso   1.00
O45    O     0.32790   0.66420   0.46569   0.01267  Uiso   1.00
O46    O     0.20980   0.56630   0.49461   0.01267  Uiso   1.00
O47    O     0.67860   0.61070   0.34197   0.01267  Uiso   1.00
O48    O     0.79970   0.48670   0.30982   0.01267  Uiso   1.00
