data_image0
_cell_length_a       12.42
_cell_length_b       13.666
_cell_length_c       14.234
_cell_angle_alpha    96.943
_cell_angle_beta     114.715
_cell_angle_gamma    110.568

_symmetry_space_group_name_H-M    "P 1"
_symmetry_int_tables_number       1

loop_
  _symmetry_equiv_pos_as_xyz
  'x, y, z'

loop_
  _atom_site_label
  _atom_site_occupancy
  _atom_site_fract_x
  _atom_site_fract_y
  _atom_site_fract_z
  _atom_site_thermal_displace_type
  _atom_site_B_iso_or_equiv
  _atom_site_type_symbol
  Mo1      1.0000 0.31504  0.46533  0.15966  Biso   1.000  Mo
  Mo2      1.0000 0.31902  0.71535  0.26853  Biso   1.000  Mo
  Mo3      1.0000 0.11232  0.71400  0.27257  Biso   1.000  Mo
  Mo4      1.0000 0.82431  0.45828  0.17190  Biso   1.000  Mo
  Mo5      1.0000 0.82419  0.27440  0.10063  Biso   1.000  Mo
  Mo6      1.0000 0.10851  0.27985  0.09043  Biso   1.000  Mo
  Zn1      1.0000 0.15752  0.32103  0.42837  Biso   1.000  Zn
  P1       1.0000 0.13756  0.47321  0.28854  Biso   1.000  P
  P2       1.0000 0.57695  0.66462  0.38033  Biso   1.000  P
  P3       1.0000 0.92331  0.66445  0.38296  Biso   1.000  P
  P4       1.0000 0.97064  0.11998  0.20718  Biso   1.000  P
  O1       1.0000 0.49390  0.54700  0.30250  Biso   1.000  O
  O2       1.0000 0.25080  0.53730  0.26800  Biso   1.000  O
  O3       1.0000 0.28040  0.34580  0.22090  Biso   1.000  O
  O4       1.0000 0.34320  0.62550  0.15270  Biso   1.000  O
  O5       1.0000 0.13100  0.41390  0.05080  Biso   1.000  O
  O6       1.0000 0.49050  0.71780  0.38740  Biso   1.000  O
  O7       1.0000 0.28140  0.73570  0.38660  Biso   1.000  O
  O8       1.0000 0.13630  0.65840  0.15330  Biso   1.000  O
  O9       1.0000 0.06200  0.71770  0.39430  Biso   1.000  O
  O10      1.0000 0.05180  0.53440  0.27570  Biso   1.000  O
  O11      1.0000 0.90750  0.61810  0.16170  Biso   1.000  O
  O12      1.0000 0.85410  0.54080  0.31980  Biso   1.000  O
  O13      1.0000 0.83490  0.34120  0.23440  Biso   1.000  O
  O14      1.0000 0.85880  0.40750  0.05850  Biso   1.000  O
  O15      1.0000 0.90190  0.23240  0.00240  Biso   1.000  O
  O16      1.0000 0.86000  0.15640  0.16790  Biso   1.000  O
  O17      1.0000 0.05210  0.35750  0.20410  Biso   1.000  O
  O18      1.0000 0.04660  0.14870  0.14400  Biso   1.000  O
  O19      1.0000 0.66430  0.73980  0.34240  Biso   1.000  O
  O20      1.0000 0.84470  0.72450  0.32510  Biso   1.000  O
  O21      1.0000 0.06710  0.17770  0.32850  Biso   1.000  O
  O22      1.0000 0.90920  0.99650  0.18630  Biso   1.000  O
  O23      1.0000 0.94120  0.67630  0.49640  Biso   1.000  O
  O24      1.0000 0.66150  0.65990  0.49090  Biso   1.000  O
  O25      1.0000 0.19510  0.46470  0.40350  Biso   1.000  O
  Mo7      1.0000 0.68496  0.53467  0.84034  Biso   1.000  Mo
  Mo8      1.0000 0.68098  0.28465  0.73147  Biso   1.000  Mo
  Mo9      1.0000 0.88768  0.28600  0.72743  Biso   1.000  Mo
  Mo10     1.0000 0.17569  0.54172  0.82810  Biso   1.000  Mo
  Mo11     1.0000 0.17581  0.72560  0.89937  Biso   1.000  Mo
  Mo12     1.0000 0.89149  0.72015  0.90957  Biso   1.000  Mo
  Zn2      1.0000 0.84248  0.67897  0.57163  Biso   1.000  Zn
  P5       1.0000 0.86244  0.52679  0.71146  Biso   1.000  P
  P6       1.0000 0.42305  0.33538  0.61967  Biso   1.000  P
  P7       1.0000 0.07669  0.33555  0.61704  Biso   1.000  P
  P8       1.0000 0.02936  0.88002  0.79282  Biso   1.000  P
  O26      1.0000 0.50610  0.45300  0.69750  Biso   1.000  O
  O27      1.0000 0.74920  0.46270  0.73200  Biso   1.000  O
  O28      1.0000 0.71960  0.65420  0.77910  Biso   1.000  O
  O29      1.0000 0.65680  0.37450  0.84730  Biso   1.000  O
  O30      1.0000 0.86900  0.58610  0.94920  Biso   1.000  O
  O31      1.0000 0.50950  0.28220  0.61260  Biso   1.000  O
  O32      1.0000 0.71860  0.26430  0.61340  Biso   1.000  O
  O33      1.0000 0.86370  0.34160  0.84670  Biso   1.000  O
  O34      1.0000 0.93800  0.28230  0.60570  Biso   1.000  O
  O35      1.0000 0.94820  0.46560  0.72430  Biso   1.000  O
  O36      1.0000 0.09250  0.38190  0.83830  Biso   1.000  O
  O37      1.0000 0.14590  0.45920  0.68020  Biso   1.000  O
  O38      1.0000 0.16510  0.65880  0.76560  Biso   1.000  O
  O39      1.0000 0.14120  0.59250  0.94150  Biso   1.000  O
  O40      1.0000 0.09810  0.76760  0.99760  Biso   1.000  O
  O41      1.0000 0.14000  0.84360  0.83210  Biso   1.000  O
  O42      1.0000 0.94790  0.64250  0.79590  Biso   1.000  O
  O43      1.0000 0.95340  0.85130  0.85600  Biso   1.000  O
  O44      1.0000 0.33570  0.26020  0.65760  Biso   1.000  O
  O45      1.0000 0.15530  0.27550  0.67490  Biso   1.000  O
  O46      1.0000 0.93290  0.82230  0.67150  Biso   1.000  O
  O47      1.0000 0.09080  0.00350  0.81370  Biso   1.000  O
  O48      1.0000 0.05880  0.32370  0.50360  Biso   1.000  O
  O49      1.0000 0.33850  0.34010  0.50910  Biso   1.000  O
  O50      1.0000 0.80490  0.53530  0.59650  Biso   1.000  O
  Na1      1.0000 0.00000  0.50000  0.00000  Biso   1.000  Na
  Na2      1.0000 0.00000  0.00000  0.00000  Biso   1.000  Na
