data_image0
_cell_length_a       29.0354
_cell_length_b       22.1378
_cell_length_c       24.5583
_cell_angle_alpha    90
_cell_angle_beta     108.987
_cell_angle_gamma    90

_symmetry_space_group_name_H-M    "P 1"
_symmetry_int_tables_number       1

loop_
  _symmetry_equiv_pos_as_xyz
  'x, y, z'

loop_
  _atom_site_label
  _atom_site_occupancy
  _atom_site_fract_x
  _atom_site_fract_y
  _atom_site_fract_z
  _atom_site_thermal_displace_type
  _atom_site_B_iso_or_equiv
  _atom_site_type_symbol
  W1       1.0000 0.80705  0.56855  0.18025  Biso   1.000  W
  W2       1.0000 0.81473  0.89153  0.18010  Biso   1.000  W
  W3       1.0000 0.90845  0.46252  0.17974  Biso   1.000  W
  W4       1.0000 0.97642  0.61123  0.39647  Biso   1.000  W
  W5       1.0000 0.93827  0.77237  0.39732  Biso   1.000  W
  W6       1.0000 0.76903  0.73289  0.18193  Biso   1.000  W
  W7       1.0000 0.03916  0.46173  0.17829  Biso   1.000  W
  W8       1.0000 0.95712  0.86903  0.10501  Biso   1.000  W
  W9       1.0000 0.85462  0.76688  0.10476  Biso   1.000  W
  W10      1.0000 0.89517  0.60670  0.10486  Biso   1.000  W
  W11      1.0000 0.81223  0.71880  0.32473  Biso   1.000  W
  W12      1.0000 0.04924  0.98454  0.17803  Biso   1.000  W
  W13      1.0000 0.85334  0.55558  0.32276  Biso   1.000  W
  W14      1.0000 0.07942  0.99319  0.32039  Biso   1.000  W
  W15      1.0000 0.84562  0.88252  0.32288  Biso   1.000  W
  Sm1      1.0000 0.81515  0.44878  0.43628  Biso   1.000  Sm
  Sm2      1.0000 0.92205  0.90311  0.93446  Biso   1.000  Sm
  P1       1.0000 0.88638  0.77330  0.25130  Biso   1.000  P
  P2       1.0000 0.92963  0.59770  0.25050  Biso   1.000  P
  O1       1.0000 0.89890  0.76090  0.19750  Biso   1.000  O
  O2       1.0000 0.80610  0.73030  0.13030  Biso   1.000  O
  O3       1.0000 0.83460  0.84320  0.13110  Biso   1.000  O
  O4       1.0000 0.91230  0.80840  0.10160  Biso   1.000  O
  O5       1.0000 0.88230  0.69110  0.10030  Biso   1.000  O
  O6       1.0000 0.95790  0.62360  0.10040  Biso   1.000  O
  O7       1.0000 0.86490  0.59060  0.03280  Biso   1.000  O
  O8       1.0000 0.93110  0.62700  0.19620  Biso   1.000  O
  O9       1.0000 0.83910  0.59690  0.12910  Biso   1.000  O
  O10      1.0000 0.91250  0.52540  0.12950  Biso   1.000  O
  O11      1.0000 0.04180  0.92610  0.24970  Biso   1.000  O
  O12      1.0000 0.90830  0.59720  0.37270  Biso   1.000  O
  O13      1.0000 0.87580  0.73090  0.37390  Biso   1.000  O
  O14      1.0000 0.97870  0.44830  0.18450  Biso   1.000  O
  O15      1.0000 0.94610  0.52950  0.25080  Biso   1.000  O
  O16      1.0000 0.82640  0.52460  0.36940  Biso   1.000  O
  O17      1.0000 0.01100  0.92740  0.12890  Biso   1.000  O
  O18      1.0000 0.86910  0.84060  0.25000  Biso   1.000  O
  O19      1.0000 0.78210  0.64180  0.18730  Biso   1.000  O
  O20      1.0000 0.77610  0.81520  0.18510  Biso   1.000  O
  O21      1.0000 0.98330  0.01250  0.18210  Biso   1.000  O
  O22      1.0000 0.98050  0.52780  0.37050  Biso   1.000  O
  O23      1.0000 0.80270  0.53880  0.25180  Biso   1.000  O
  O24      1.0000 0.10570  0.94750  0.18320  Biso   1.000  O
  O25      1.0000 0.80420  0.91430  0.25060  Biso   1.000  O
  O26      1.0000 0.96800  0.69540  0.39960  Biso   1.000  O
  O27      1.0000 0.07990  0.92770  0.37110  Biso   1.000  O
  O28      1.0000 0.92590  0.42040  0.25170  Biso   1.000  O
  O29      1.0000 0.07550  0.03040  0.24920  Biso   1.000  O
  O30      1.0000 0.75710  0.72510  0.25400  Biso   1.000  O
  O31      1.0000 0.81280  0.81200  0.31950  Biso   1.000  O
  O32      1.0000 0.86040  0.95030  0.18560  Biso   1.000  O
  O33      1.0000 0.94370  0.77690  0.46900  Biso   1.000  O
  O34      1.0000 0.93600  0.89000  0.03270  Biso   1.000  O
  O35      1.0000 0.89330  0.49370  0.31810  Biso   1.000  O
  O36      1.0000 0.01560  0.84560  0.30400  Biso   1.000  O
  O37      1.0000 0.90320  0.84500  0.37230  Biso   1.000  O
  O38      1.0000 0.85140  0.49280  0.18360  Biso   1.000  O
  O39      1.0000 0.00310  0.80940  0.09930  Biso   1.000  O
  O40      1.0000 0.87590  0.59690  0.25250  Biso   1.000  O
  O41      1.0000 0.96280  0.63080  0.30430  Biso   1.000  O
  O42      1.0000 0.05110  0.04480  0.13240  Biso   1.000  O
  O43      1.0000 0.77920  0.72080  0.37200  Biso   1.000  O
  O44      1.0000 0.93530  0.00260  0.97210  Biso   1.000  O
  O45      1.0000 0.76310  0.92530  0.13340  Biso   1.000  O
  O46      1.0000 0.81950  0.63800  0.31800  Biso   1.000  O
  O47      1.0000 0.99250  0.07300  0.01880  Biso   1.000  O
  O48      1.0000 0.84330  0.73360  0.25290  Biso   1.000  O
  O49      1.0000 0.93120  0.76300  0.30540  Biso   1.000  O
  O50      1.0000 0.96430  0.81190  0.94850  Biso   1.000  O
  C1       1.0000 0.97700  0.02480  0.99700  Biso   1.000  C
  K1       1.0000 0.76511  0.71810  0.46980  Biso   1.000  K
  K2       1.0000 0.95550  0.78420  0.57540  Biso   1.000  K
  Na1      1.0000 0.98380  0.72500  0.19190  Biso   1.000  Na
  W16      1.0000 0.30705  0.06855  0.18025  Biso   1.000  W
  W17      1.0000 0.31473  0.39153  0.18010  Biso   1.000  W
  W18      1.0000 0.40845  0.96252  0.17974  Biso   1.000  W
  W19      1.0000 0.47642  0.11123  0.39647  Biso   1.000  W
  W20      1.0000 0.43827  0.27237  0.39732  Biso   1.000  W
  W21      1.0000 0.26903  0.23289  0.18193  Biso   1.000  W
  W22      1.0000 0.53916  0.96173  0.17829  Biso   1.000  W
  W23      1.0000 0.45712  0.36903  0.10501  Biso   1.000  W
  W24      1.0000 0.35462  0.26688  0.10476  Biso   1.000  W
  W25      1.0000 0.39517  0.10670  0.10486  Biso   1.000  W
  W26      1.0000 0.31223  0.21880  0.32473  Biso   1.000  W
  W27      1.0000 0.54924  0.48454  0.17803  Biso   1.000  W
  W28      1.0000 0.35334  0.05558  0.32276  Biso   1.000  W
  W29      1.0000 0.57942  0.49319  0.32039  Biso   1.000  W
  W30      1.0000 0.34562  0.38252  0.32288  Biso   1.000  W
  Sm3      1.0000 0.31515  0.94878  0.43628  Biso   1.000  Sm
  Sm4      1.0000 0.42205  0.40311  0.93446  Biso   1.000  Sm
  P3       1.0000 0.38638  0.27330  0.25130  Biso   1.000  P
  P4       1.0000 0.42963  0.09770  0.25050  Biso   1.000  P
  O51      1.0000 0.39890  0.26090  0.19750  Biso   1.000  O
  O52      1.0000 0.30610  0.23030  0.13030  Biso   1.000  O
  O53      1.0000 0.33460  0.34320  0.13110  Biso   1.000  O
  O54      1.0000 0.41230  0.30840  0.10160  Biso   1.000  O
  O55      1.0000 0.38230  0.19110  0.10030  Biso   1.000  O
  O56      1.0000 0.45790  0.12360  0.10040  Biso   1.000  O
  O57      1.0000 0.36490  0.09060  0.03280  Biso   1.000  O
  O58      1.0000 0.43110  0.12700  0.19620  Biso   1.000  O
  O59      1.0000 0.33910  0.09690  0.12910  Biso   1.000  O
  O60      1.0000 0.41250  0.02540  0.12950  Biso   1.000  O
  O61      1.0000 0.54180  0.42610  0.24970  Biso   1.000  O
  O62      1.0000 0.40830  0.09720  0.37270  Biso   1.000  O
  O63      1.0000 0.37580  0.23090  0.37390  Biso   1.000  O
  O64      1.0000 0.47870  0.94830  0.18450  Biso   1.000  O
  O65      1.0000 0.44610  0.02950  0.25080  Biso   1.000  O
  O66      1.0000 0.32640  0.02460  0.36940  Biso   1.000  O
  O67      1.0000 0.51100  0.42740  0.12890  Biso   1.000  O
  O68      1.0000 0.36910  0.34060  0.25000  Biso   1.000  O
  O69      1.0000 0.28210  0.14180  0.18730  Biso   1.000  O
  O70      1.0000 0.27610  0.31520  0.18510  Biso   1.000  O
  O71      1.0000 0.48330  0.51250  0.18210  Biso   1.000  O
  O72      1.0000 0.48050  0.02780  0.37050  Biso   1.000  O
  O73      1.0000 0.30270  0.03880  0.25180  Biso   1.000  O
  O74      1.0000 0.60570  0.44750  0.18320  Biso   1.000  O
  O75      1.0000 0.30420  0.41430  0.25060  Biso   1.000  O
  O76      1.0000 0.46800  0.19540  0.39960  Biso   1.000  O
  O77      1.0000 0.57990  0.42770  0.37110  Biso   1.000  O
  O78      1.0000 0.42590  0.92040  0.25170  Biso   1.000  O
  O79      1.0000 0.57550  0.53040  0.24920  Biso   1.000  O
  O80      1.0000 0.25710  0.22510  0.25400  Biso   1.000  O
  O81      1.0000 0.31280  0.31200  0.31950  Biso   1.000  O
  O82      1.0000 0.36040  0.45030  0.18560  Biso   1.000  O
  O83      1.0000 0.44370  0.27690  0.46900  Biso   1.000  O
  O84      1.0000 0.43600  0.39000  0.03270  Biso   1.000  O
  O85      1.0000 0.39330  0.99370  0.31810  Biso   1.000  O
  O86      1.0000 0.51560  0.34560  0.30400  Biso   1.000  O
  O87      1.0000 0.40320  0.34500  0.37230  Biso   1.000  O
  O88      1.0000 0.35140  0.99280  0.18360  Biso   1.000  O
  O89      1.0000 0.50310  0.30940  0.09930  Biso   1.000  O
  O90      1.0000 0.37590  0.09690  0.25250  Biso   1.000  O
  O91      1.0000 0.46280  0.13080  0.30430  Biso   1.000  O
  O92      1.0000 0.55110  0.54480  0.13240  Biso   1.000  O
  O93      1.0000 0.27920  0.22080  0.37200  Biso   1.000  O
  O94      1.0000 0.43530  0.50260  0.97210  Biso   1.000  O
  O95      1.0000 0.26310  0.42530  0.13340  Biso   1.000  O
  O96      1.0000 0.31950  0.13800  0.31800  Biso   1.000  O
  O97      1.0000 0.49250  0.57300  0.01880  Biso   1.000  O
  O98      1.0000 0.34330  0.23360  0.25290  Biso   1.000  O
  O99      1.0000 0.43120  0.26300  0.30540  Biso   1.000  O
  O100     1.0000 0.46430  0.31190  0.94850  Biso   1.000  O
  C2       1.0000 0.47700  0.52480  0.99700  Biso   1.000  C
  K3       1.0000 0.26511  0.21810  0.46980  Biso   1.000  K
  K4       1.0000 0.45550  0.28420  0.57540  Biso   1.000  K
  Na2      1.0000 0.48380  0.22500  0.19190  Biso   1.000  Na
  W31      1.0000 0.19295  0.56855  0.31975  Biso   1.000  W
  W32      1.0000 0.18527  0.89153  0.31990  Biso   1.000  W
  W33      1.0000 0.09155  0.46252  0.32026  Biso   1.000  W
  W34      1.0000 0.02358  0.61123  0.10353  Biso   1.000  W
  W35      1.0000 0.06173  0.77237  0.10268  Biso   1.000  W
  W36      1.0000 0.23097  0.73289  0.31807  Biso   1.000  W
  W37      1.0000 0.96084  0.46173  0.32171  Biso   1.000  W
  W38      1.0000 0.04288  0.86903  0.39499  Biso   1.000  W
  W39      1.0000 0.14538  0.76688  0.39524  Biso   1.000  W
  W40      1.0000 0.10483  0.60670  0.39514  Biso   1.000  W
  W41      1.0000 0.18777  0.71880  0.17527  Biso   1.000  W
  W42      1.0000 0.95076  0.98454  0.32197  Biso   1.000  W
  W43      1.0000 0.14666  0.55558  0.17724  Biso   1.000  W
  W44      1.0000 0.92058  0.99319  0.17961  Biso   1.000  W
  W45      1.0000 0.15438  0.88252  0.17712  Biso   1.000  W
  Sm5      1.0000 0.18485  0.44878  0.06372  Biso   1.000  Sm
  Sm6      1.0000 0.07795  0.90311  0.56554  Biso   1.000  Sm
  P5       1.0000 0.11362  0.77330  0.24870  Biso   1.000  P
  P6       1.0000 0.07037  0.59770  0.24950  Biso   1.000  P
  O101     1.0000 0.10110  0.76090  0.30250  Biso   1.000  O
  O102     1.0000 0.19390  0.73030  0.36970  Biso   1.000  O
  O103     1.0000 0.16540  0.84320  0.36890  Biso   1.000  O
  O104     1.0000 0.08770  0.80840  0.39840  Biso   1.000  O
  O105     1.0000 0.11770  0.69110  0.39970  Biso   1.000  O
  O106     1.0000 0.04210  0.62360  0.39960  Biso   1.000  O
  O107     1.0000 0.13510  0.59060  0.46720  Biso   1.000  O
  O108     1.0000 0.06890  0.62700  0.30380  Biso   1.000  O
  O109     1.0000 0.16090  0.59690  0.37090  Biso   1.000  O
  O110     1.0000 0.08750  0.52540  0.37050  Biso   1.000  O
  O111     1.0000 0.95820  0.92610  0.25030  Biso   1.000  O
  O112     1.0000 0.09170  0.59720  0.12730  Biso   1.000  O
  O113     1.0000 0.12420  0.73090  0.12610  Biso   1.000  O
  O114     1.0000 0.02130  0.44830  0.31550  Biso   1.000  O
  O115     1.0000 0.05390  0.52950  0.24920  Biso   1.000  O
  O116     1.0000 0.17360  0.52460  0.13060  Biso   1.000  O
  O117     1.0000 0.98900  0.92740  0.37110  Biso   1.000  O
  O118     1.0000 0.13090  0.84060  0.25000  Biso   1.000  O
  O119     1.0000 0.21790  0.64180  0.31270  Biso   1.000  O
  O120     1.0000 0.22390  0.81520  0.31490  Biso   1.000  O
  O121     1.0000 0.01670  0.01250  0.31790  Biso   1.000  O
  O122     1.0000 0.01950  0.52780  0.12950  Biso   1.000  O
  O123     1.0000 0.19730  0.53880  0.24820  Biso   1.000  O
  O124     1.0000 0.89430  0.94750  0.31680  Biso   1.000  O
  O125     1.0000 0.19580  0.91430  0.24940  Biso   1.000  O
  O126     1.0000 0.03200  0.69540  0.10040  Biso   1.000  O
  O127     1.0000 0.92010  0.92770  0.12890  Biso   1.000  O
  O128     1.0000 0.07410  0.42040  0.24830  Biso   1.000  O
  O129     1.0000 0.92450  0.03040  0.25080  Biso   1.000  O
  O130     1.0000 0.24290  0.72510  0.24600  Biso   1.000  O
  O131     1.0000 0.18720  0.81200  0.18050  Biso   1.000  O
  O132     1.0000 0.13960  0.95030  0.31440  Biso   1.000  O
  O133     1.0000 0.05630  0.77690  0.03100  Biso   1.000  O
  O134     1.0000 0.06400  0.89000  0.46730  Biso   1.000  O
  O135     1.0000 0.10670  0.49370  0.18190  Biso   1.000  O
  O136     1.0000 0.98440  0.84560  0.19600  Biso   1.000  O
  O137     1.0000 0.09680  0.84500  0.12770  Biso   1.000  O
  O138     1.0000 0.14860  0.49280  0.31640  Biso   1.000  O
  O139     1.0000 0.99690  0.80940  0.40070  Biso   1.000  O
  O140     1.0000 0.12410  0.59690  0.24750  Biso   1.000  O
  O141     1.0000 0.03720  0.63080  0.19570  Biso   1.000  O
  O142     1.0000 0.94890  0.04480  0.36760  Biso   1.000  O
  O143     1.0000 0.22080  0.72080  0.12800  Biso   1.000  O
  O144     1.0000 0.06470  0.00260  0.52790  Biso   1.000  O
  O145     1.0000 0.23690  0.92530  0.36660  Biso   1.000  O
  O146     1.0000 0.18050  0.63800  0.18200  Biso   1.000  O
  O147     1.0000 0.00750  0.07300  0.48120  Biso   1.000  O
  O148     1.0000 0.15670  0.73360  0.24710  Biso   1.000  O
  O149     1.0000 0.06880  0.76300  0.19460  Biso   1.000  O
  O150     1.0000 0.03570  0.81190  0.55150  Biso   1.000  O
  C3       1.0000 0.02300  0.02480  0.50300  Biso   1.000  C
  K5       1.0000 0.23489  0.71810  0.03020  Biso   1.000  K
  K6       1.0000 0.04450  0.78420  0.92460  Biso   1.000  K
  Na3      1.0000 0.01620  0.72500  0.30810  Biso   1.000  Na
  W46      1.0000 0.69295  0.06855  0.31975  Biso   1.000  W
  W47      1.0000 0.68527  0.39153  0.31990  Biso   1.000  W
  W48      1.0000 0.59155  0.96252  0.32026  Biso   1.000  W
  W49      1.0000 0.52358  0.11123  0.10353  Biso   1.000  W
  W50      1.0000 0.56173  0.27237  0.10268  Biso   1.000  W
  W51      1.0000 0.73097  0.23289  0.31807  Biso   1.000  W
  W52      1.0000 0.46084  0.96173  0.32171  Biso   1.000  W
  W53      1.0000 0.54288  0.36903  0.39499  Biso   1.000  W
  W54      1.0000 0.64538  0.26688  0.39524  Biso   1.000  W
  W55      1.0000 0.60483  0.10670  0.39514  Biso   1.000  W
  W56      1.0000 0.68777  0.21880  0.17527  Biso   1.000  W
  W57      1.0000 0.45076  0.48454  0.32197  Biso   1.000  W
  W58      1.0000 0.64666  0.05558  0.17724  Biso   1.000  W
  W59      1.0000 0.42058  0.49319  0.17961  Biso   1.000  W
  W60      1.0000 0.65438  0.38252  0.17712  Biso   1.000  W
  Sm7      1.0000 0.68485  0.94878  0.06372  Biso   1.000  Sm
  Sm8      1.0000 0.57795  0.40311  0.56554  Biso   1.000  Sm
  P7       1.0000 0.61362  0.27330  0.24870  Biso   1.000  P
  P8       1.0000 0.57037  0.09770  0.24950  Biso   1.000  P
  O151     1.0000 0.60110  0.26090  0.30250  Biso   1.000  O
  O152     1.0000 0.69390  0.23030  0.36970  Biso   1.000  O
  O153     1.0000 0.66540  0.34320  0.36890  Biso   1.000  O
  O154     1.0000 0.58770  0.30840  0.39840  Biso   1.000  O
  O155     1.0000 0.61770  0.19110  0.39970  Biso   1.000  O
  O156     1.0000 0.54210  0.12360  0.39960  Biso   1.000  O
  O157     1.0000 0.63510  0.09060  0.46720  Biso   1.000  O
  O158     1.0000 0.56890  0.12700  0.30380  Biso   1.000  O
  O159     1.0000 0.66090  0.09690  0.37090  Biso   1.000  O
  O160     1.0000 0.58750  0.02540  0.37050  Biso   1.000  O
  O161     1.0000 0.45820  0.42610  0.25030  Biso   1.000  O
  O162     1.0000 0.59170  0.09720  0.12730  Biso   1.000  O
  O163     1.0000 0.62420  0.23090  0.12610  Biso   1.000  O
  O164     1.0000 0.52130  0.94830  0.31550  Biso   1.000  O
  O165     1.0000 0.55390  0.02950  0.24920  Biso   1.000  O
  O166     1.0000 0.67360  0.02460  0.13060  Biso   1.000  O
  O167     1.0000 0.48900  0.42740  0.37110  Biso   1.000  O
  O168     1.0000 0.63090  0.34060  0.25000  Biso   1.000  O
  O169     1.0000 0.71790  0.14180  0.31270  Biso   1.000  O
  O170     1.0000 0.72390  0.31520  0.31490  Biso   1.000  O
  O171     1.0000 0.51670  0.51250  0.31790  Biso   1.000  O
  O172     1.0000 0.51950  0.02780  0.12950  Biso   1.000  O
  O173     1.0000 0.69730  0.03880  0.24820  Biso   1.000  O
  O174     1.0000 0.39430  0.44750  0.31680  Biso   1.000  O
  O175     1.0000 0.69580  0.41430  0.24940  Biso   1.000  O
  O176     1.0000 0.53200  0.19540  0.10040  Biso   1.000  O
  O177     1.0000 0.42010  0.42770  0.12890  Biso   1.000  O
  O178     1.0000 0.57410  0.92040  0.24830  Biso   1.000  O
  O179     1.0000 0.42450  0.53040  0.25080  Biso   1.000  O
  O180     1.0000 0.74290  0.22510  0.24600  Biso   1.000  O
  O181     1.0000 0.68720  0.31200  0.18050  Biso   1.000  O
  O182     1.0000 0.63960  0.45030  0.31440  Biso   1.000  O
  O183     1.0000 0.55630  0.27690  0.03100  Biso   1.000  O
  O184     1.0000 0.56400  0.39000  0.46730  Biso   1.000  O
  O185     1.0000 0.60670  0.99370  0.18190  Biso   1.000  O
  O186     1.0000 0.48440  0.34560  0.19600  Biso   1.000  O
  O187     1.0000 0.59680  0.34500  0.12770  Biso   1.000  O
  O188     1.0000 0.64860  0.99280  0.31640  Biso   1.000  O
  O189     1.0000 0.49690  0.30940  0.40070  Biso   1.000  O
  O190     1.0000 0.62410  0.09690  0.24750  Biso   1.000  O
  O191     1.0000 0.53720  0.13080  0.19570  Biso   1.000  O
  O192     1.0000 0.44890  0.54480  0.36760  Biso   1.000  O
  O193     1.0000 0.72080  0.22080  0.12800  Biso   1.000  O
  O194     1.0000 0.56470  0.50260  0.52790  Biso   1.000  O
  O195     1.0000 0.73690  0.42530  0.36660  Biso   1.000  O
  O196     1.0000 0.68050  0.13800  0.18200  Biso   1.000  O
  O197     1.0000 0.50750  0.57300  0.48120  Biso   1.000  O
  O198     1.0000 0.65670  0.23360  0.24710  Biso   1.000  O
  O199     1.0000 0.56880  0.26300  0.19460  Biso   1.000  O
  O200     1.0000 0.53570  0.31190  0.55150  Biso   1.000  O
  C4       1.0000 0.52300  0.52480  0.50300  Biso   1.000  C
  K7       1.0000 0.73489  0.21810  0.03020  Biso   1.000  K
  K8       1.0000 0.54450  0.28420  0.92460  Biso   1.000  K
  Na4      1.0000 0.51620  0.22500  0.30810  Biso   1.000  Na
  W61      1.0000 0.19295  0.43145  0.81975  Biso   1.000  W
  W62      1.0000 0.18527  0.10847  0.81990  Biso   1.000  W
  W63      1.0000 0.09155  0.53748  0.82026  Biso   1.000  W
  W64      1.0000 0.02358  0.38877  0.60353  Biso   1.000  W
  W65      1.0000 0.06173  0.22763  0.60268  Biso   1.000  W
  W66      1.0000 0.23097  0.26711  0.81807  Biso   1.000  W
  W67      1.0000 0.96084  0.53827  0.82171  Biso   1.000  W
  W68      1.0000 0.04288  0.13097  0.89499  Biso   1.000  W
  W69      1.0000 0.14538  0.23312  0.89524  Biso   1.000  W
  W70      1.0000 0.10483  0.39330  0.89514  Biso   1.000  W
  W71      1.0000 0.18777  0.28120  0.67527  Biso   1.000  W
  W72      1.0000 0.95076  0.01546  0.82197  Biso   1.000  W
  W73      1.0000 0.14666  0.44442  0.67724  Biso   1.000  W
  W74      1.0000 0.92058  0.00681  0.67961  Biso   1.000  W
  W75      1.0000 0.15438  0.11748  0.67712  Biso   1.000  W
  Sm9      1.0000 0.18485  0.55122  0.56372  Biso   1.000  Sm
  Sm10     1.0000 0.07795  0.09689  0.06554  Biso   1.000  Sm
  P9       1.0000 0.11362  0.22670  0.74870  Biso   1.000  P
  P10      1.0000 0.07037  0.40230  0.74950  Biso   1.000  P
  O201     1.0000 0.10110  0.23910  0.80250  Biso   1.000  O
  O202     1.0000 0.19390  0.26970  0.86970  Biso   1.000  O
  O203     1.0000 0.16540  0.15680  0.86890  Biso   1.000  O
  O204     1.0000 0.08770  0.19160  0.89840  Biso   1.000  O
  O205     1.0000 0.11770  0.30890  0.89970  Biso   1.000  O
  O206     1.0000 0.04210  0.37640  0.89960  Biso   1.000  O
  O207     1.0000 0.13510  0.40940  0.96720  Biso   1.000  O
  O208     1.0000 0.06890  0.37300  0.80380  Biso   1.000  O
  O209     1.0000 0.16090  0.40310  0.87090  Biso   1.000  O
  O210     1.0000 0.08750  0.47460  0.87050  Biso   1.000  O
  O211     1.0000 0.95820  0.07390  0.75030  Biso   1.000  O
  O212     1.0000 0.09170  0.40280  0.62730  Biso   1.000  O
  O213     1.0000 0.12420  0.26910  0.62610  Biso   1.000  O
  O214     1.0000 0.02130  0.55170  0.81550  Biso   1.000  O
  O215     1.0000 0.05390  0.47050  0.74920  Biso   1.000  O
  O216     1.0000 0.17360  0.47540  0.63060  Biso   1.000  O
  O217     1.0000 0.98900  0.07260  0.87110  Biso   1.000  O
  O218     1.0000 0.13090  0.15940  0.75000  Biso   1.000  O
  O219     1.0000 0.21790  0.35820  0.81270  Biso   1.000  O
  O220     1.0000 0.22390  0.18480  0.81490  Biso   1.000  O
  O221     1.0000 0.01670  0.98750  0.81790  Biso   1.000  O
  O222     1.0000 0.01950  0.47220  0.62950  Biso   1.000  O
  O223     1.0000 0.19730  0.46120  0.74820  Biso   1.000  O
  O224     1.0000 0.89430  0.05250  0.81680  Biso   1.000  O
  O225     1.0000 0.19580  0.08570  0.74940  Biso   1.000  O
  O226     1.0000 0.03200  0.30460  0.60040  Biso   1.000  O
  O227     1.0000 0.92010  0.07230  0.62890  Biso   1.000  O
  O228     1.0000 0.07410  0.57960  0.74830  Biso   1.000  O
  O229     1.0000 0.92450  0.96960  0.75080  Biso   1.000  O
  O230     1.0000 0.24290  0.27490  0.74600  Biso   1.000  O
  O231     1.0000 0.18720  0.18800  0.68050  Biso   1.000  O
  O232     1.0000 0.13960  0.04970  0.81440  Biso   1.000  O
  O233     1.0000 0.05630  0.22310  0.53100  Biso   1.000  O
  O234     1.0000 0.06400  0.11000  0.96730  Biso   1.000  O
  O235     1.0000 0.10670  0.50630  0.68190  Biso   1.000  O
  O236     1.0000 0.98440  0.15440  0.69600  Biso   1.000  O
  O237     1.0000 0.09680  0.15500  0.62770  Biso   1.000  O
  O238     1.0000 0.14860  0.50720  0.81640  Biso   1.000  O
  O239     1.0000 0.99690  0.19060  0.90070  Biso   1.000  O
  O240     1.0000 0.12410  0.40310  0.74750  Biso   1.000  O
  O241     1.0000 0.03720  0.36920  0.69570  Biso   1.000  O
  O242     1.0000 0.94890  0.95520  0.86760  Biso   1.000  O
  O243     1.0000 0.22080  0.27920  0.62800  Biso   1.000  O
  O244     1.0000 0.06470  0.99740  0.02790  Biso   1.000  O
  O245     1.0000 0.23690  0.07470  0.86660  Biso   1.000  O
  O246     1.0000 0.18050  0.36200  0.68200  Biso   1.000  O
  O247     1.0000 0.00750  0.92700  0.98120  Biso   1.000  O
  O248     1.0000 0.15670  0.26640  0.74710  Biso   1.000  O
  O249     1.0000 0.06880  0.23700  0.69460  Biso   1.000  O
  O250     1.0000 0.03570  0.18810  0.05150  Biso   1.000  O
  C5       1.0000 0.02300  0.97520  0.00300  Biso   1.000  C
  K9       1.0000 0.23489  0.28190  0.53020  Biso   1.000  K
  K10      1.0000 0.04450  0.21580  0.42460  Biso   1.000  K
  Na5      1.0000 0.01620  0.27500  0.80810  Biso   1.000  Na
  W76      1.0000 0.69295  0.93145  0.81975  Biso   1.000  W
  W77      1.0000 0.68527  0.60847  0.81990  Biso   1.000  W
  W78      1.0000 0.59155  0.03748  0.82026  Biso   1.000  W
  W79      1.0000 0.52358  0.88877  0.60353  Biso   1.000  W
  W80      1.0000 0.56173  0.72763  0.60268  Biso   1.000  W
  W81      1.0000 0.73097  0.76711  0.81807  Biso   1.000  W
  W82      1.0000 0.46084  0.03827  0.82171  Biso   1.000  W
  W83      1.0000 0.54288  0.63097  0.89499  Biso   1.000  W
  W84      1.0000 0.64538  0.73312  0.89524  Biso   1.000  W
  W85      1.0000 0.60483  0.89330  0.89514  Biso   1.000  W
  W86      1.0000 0.68777  0.78120  0.67527  Biso   1.000  W
  W87      1.0000 0.45076  0.51546  0.82197  Biso   1.000  W
  W88      1.0000 0.64666  0.94442  0.67724  Biso   1.000  W
  W89      1.0000 0.42058  0.50681  0.67961  Biso   1.000  W
  W90      1.0000 0.65438  0.61748  0.67712  Biso   1.000  W
  Sm11     1.0000 0.68485  0.05122  0.56372  Biso   1.000  Sm
  Sm12     1.0000 0.57795  0.59689  0.06554  Biso   1.000  Sm
  P11      1.0000 0.61362  0.72670  0.74870  Biso   1.000  P
  P12      1.0000 0.57037  0.90230  0.74950  Biso   1.000  P
  O251     1.0000 0.60110  0.73910  0.80250  Biso   1.000  O
  O252     1.0000 0.69390  0.76970  0.86970  Biso   1.000  O
  O253     1.0000 0.66540  0.65680  0.86890  Biso   1.000  O
  O254     1.0000 0.58770  0.69160  0.89840  Biso   1.000  O
  O255     1.0000 0.61770  0.80890  0.89970  Biso   1.000  O
  O256     1.0000 0.54210  0.87640  0.89960  Biso   1.000  O
  O257     1.0000 0.63510  0.90940  0.96720  Biso   1.000  O
  O258     1.0000 0.56890  0.87300  0.80380  Biso   1.000  O
  O259     1.0000 0.66090  0.90310  0.87090  Biso   1.000  O
  O260     1.0000 0.58750  0.97460  0.87050  Biso   1.000  O
  O261     1.0000 0.45820  0.57390  0.75030  Biso   1.000  O
  O262     1.0000 0.59170  0.90280  0.62730  Biso   1.000  O
  O263     1.0000 0.62420  0.76910  0.62610  Biso   1.000  O
  O264     1.0000 0.52130  0.05170  0.81550  Biso   1.000  O
  O265     1.0000 0.55390  0.97050  0.74920  Biso   1.000  O
  O266     1.0000 0.67360  0.97540  0.63060  Biso   1.000  O
  O267     1.0000 0.48900  0.57260  0.87110  Biso   1.000  O
  O268     1.0000 0.63090  0.65940  0.75000  Biso   1.000  O
  O269     1.0000 0.71790  0.85820  0.81270  Biso   1.000  O
  O270     1.0000 0.72390  0.68480  0.81490  Biso   1.000  O
  O271     1.0000 0.51670  0.48750  0.81790  Biso   1.000  O
  O272     1.0000 0.51950  0.97220  0.62950  Biso   1.000  O
  O273     1.0000 0.69730  0.96120  0.74820  Biso   1.000  O
  O274     1.0000 0.39430  0.55250  0.81680  Biso   1.000  O
  O275     1.0000 0.69580  0.58570  0.74940  Biso   1.000  O
  O276     1.0000 0.53200  0.80460  0.60040  Biso   1.000  O
  O277     1.0000 0.42010  0.57230  0.62890  Biso   1.000  O
  O278     1.0000 0.57410  0.07960  0.74830  Biso   1.000  O
  O279     1.0000 0.42450  0.46960  0.75080  Biso   1.000  O
  O280     1.0000 0.74290  0.77490  0.74600  Biso   1.000  O
  O281     1.0000 0.68720  0.68800  0.68050  Biso   1.000  O
  O282     1.0000 0.63960  0.54970  0.81440  Biso   1.000  O
  O283     1.0000 0.55630  0.72310  0.53100  Biso   1.000  O
  O284     1.0000 0.56400  0.61000  0.96730  Biso   1.000  O
  O285     1.0000 0.60670  0.00630  0.68190  Biso   1.000  O
  O286     1.0000 0.48440  0.65440  0.69600  Biso   1.000  O
  O287     1.0000 0.59680  0.65500  0.62770  Biso   1.000  O
  O288     1.0000 0.64860  0.00720  0.81640  Biso   1.000  O
  O289     1.0000 0.49690  0.69060  0.90070  Biso   1.000  O
  O290     1.0000 0.62410  0.90310  0.74750  Biso   1.000  O
  O291     1.0000 0.53720  0.86920  0.69570  Biso   1.000  O
  O292     1.0000 0.44890  0.45520  0.86760  Biso   1.000  O
  O293     1.0000 0.72080  0.77920  0.62800  Biso   1.000  O
  O294     1.0000 0.56470  0.49740  0.02790  Biso   1.000  O
  O295     1.0000 0.73690  0.57470  0.86660  Biso   1.000  O
  O296     1.0000 0.68050  0.86200  0.68200  Biso   1.000  O
  O297     1.0000 0.50750  0.42700  0.98120  Biso   1.000  O
  O298     1.0000 0.65670  0.76640  0.74710  Biso   1.000  O
  O299     1.0000 0.56880  0.73700  0.69460  Biso   1.000  O
  O300     1.0000 0.53570  0.68810  0.05150  Biso   1.000  O
  C6       1.0000 0.52300  0.47520  0.00300  Biso   1.000  C
  K11      1.0000 0.73489  0.78190  0.53020  Biso   1.000  K
  K12      1.0000 0.54450  0.71580  0.42460  Biso   1.000  K
  Na6      1.0000 0.51620  0.77500  0.80810  Biso   1.000  Na
  W91      1.0000 0.80705  0.43145  0.68025  Biso   1.000  W
  W92      1.0000 0.81473  0.10847  0.68010  Biso   1.000  W
  W93      1.0000 0.90845  0.53748  0.67974  Biso   1.000  W
  W94      1.0000 0.97642  0.38877  0.89647  Biso   1.000  W
  W95      1.0000 0.93827  0.22763  0.89732  Biso   1.000  W
  W96      1.0000 0.76903  0.26711  0.68193  Biso   1.000  W
  W97      1.0000 0.03916  0.53827  0.67829  Biso   1.000  W
  W98      1.0000 0.95712  0.13097  0.60501  Biso   1.000  W
  W99      1.0000 0.85462  0.23312  0.60476  Biso   1.000  W
  W100     1.0000 0.89517  0.39330  0.60486  Biso   1.000  W
  W101     1.0000 0.81223  0.28120  0.82473  Biso   1.000  W
  W102     1.0000 0.04924  0.01546  0.67803  Biso   1.000  W
  W103     1.0000 0.85334  0.44442  0.82276  Biso   1.000  W
  W104     1.0000 0.07942  0.00681  0.82039  Biso   1.000  W
  W105     1.0000 0.84562  0.11748  0.82288  Biso   1.000  W
  Sm13     1.0000 0.81515  0.55122  0.93628  Biso   1.000  Sm
  Sm14     1.0000 0.92205  0.09689  0.43446  Biso   1.000  Sm
  P13      1.0000 0.88638  0.22670  0.75130  Biso   1.000  P
  P14      1.0000 0.92963  0.40230  0.75050  Biso   1.000  P
  O301     1.0000 0.89890  0.23910  0.69750  Biso   1.000  O
  O302     1.0000 0.80610  0.26970  0.63030  Biso   1.000  O
  O303     1.0000 0.83460  0.15680  0.63110  Biso   1.000  O
  O304     1.0000 0.91230  0.19160  0.60160  Biso   1.000  O
  O305     1.0000 0.88230  0.30890  0.60030  Biso   1.000  O
  O306     1.0000 0.95790  0.37640  0.60040  Biso   1.000  O
  O307     1.0000 0.86490  0.40940  0.53280  Biso   1.000  O
  O308     1.0000 0.93110  0.37300  0.69620  Biso   1.000  O
  O309     1.0000 0.83910  0.40310  0.62910  Biso   1.000  O
  O310     1.0000 0.91250  0.47460  0.62950  Biso   1.000  O
  O311     1.0000 0.04180  0.07390  0.74970  Biso   1.000  O
  O312     1.0000 0.90830  0.40280  0.87270  Biso   1.000  O
  O313     1.0000 0.87580  0.26910  0.87390  Biso   1.000  O
  O314     1.0000 0.97870  0.55170  0.68450  Biso   1.000  O
  O315     1.0000 0.94610  0.47050  0.75080  Biso   1.000  O
  O316     1.0000 0.82640  0.47540  0.86940  Biso   1.000  O
  O317     1.0000 0.01100  0.07260  0.62890  Biso   1.000  O
  O318     1.0000 0.86910  0.15940  0.75000  Biso   1.000  O
  O319     1.0000 0.78210  0.35820  0.68730  Biso   1.000  O
  O320     1.0000 0.77610  0.18480  0.68510  Biso   1.000  O
  O321     1.0000 0.98330  0.98750  0.68210  Biso   1.000  O
  O322     1.0000 0.98050  0.47220  0.87050  Biso   1.000  O
  O323     1.0000 0.80270  0.46120  0.75180  Biso   1.000  O
  O324     1.0000 0.10570  0.05250  0.68320  Biso   1.000  O
  O325     1.0000 0.80420  0.08570  0.75060  Biso   1.000  O
  O326     1.0000 0.96800  0.30460  0.89960  Biso   1.000  O
  O327     1.0000 0.07990  0.07230  0.87110  Biso   1.000  O
  O328     1.0000 0.92590  0.57960  0.75170  Biso   1.000  O
  O329     1.0000 0.07550  0.96960  0.74920  Biso   1.000  O
  O330     1.0000 0.75710  0.27490  0.75400  Biso   1.000  O
  O331     1.0000 0.81280  0.18800  0.81950  Biso   1.000  O
  O332     1.0000 0.86040  0.04970  0.68560  Biso   1.000  O
  O333     1.0000 0.94370  0.22310  0.96900  Biso   1.000  O
  O334     1.0000 0.93600  0.11000  0.53270  Biso   1.000  O
  O335     1.0000 0.89330  0.50630  0.81810  Biso   1.000  O
  O336     1.0000 0.01560  0.15440  0.80400  Biso   1.000  O
  O337     1.0000 0.90320  0.15500  0.87230  Biso   1.000  O
  O338     1.0000 0.85140  0.50720  0.68360  Biso   1.000  O
  O339     1.0000 0.00310  0.19060  0.59930  Biso   1.000  O
  O340     1.0000 0.87590  0.40310  0.75250  Biso   1.000  O
  O341     1.0000 0.96280  0.36920  0.80430  Biso   1.000  O
  O342     1.0000 0.05110  0.95520  0.63240  Biso   1.000  O
  O343     1.0000 0.77920  0.27920  0.87200  Biso   1.000  O
  O344     1.0000 0.93530  0.99740  0.47210  Biso   1.000  O
  O345     1.0000 0.76310  0.07470  0.63340  Biso   1.000  O
  O346     1.0000 0.81950  0.36200  0.81800  Biso   1.000  O
  O347     1.0000 0.99250  0.92700  0.51880  Biso   1.000  O
  O348     1.0000 0.84330  0.26640  0.75290  Biso   1.000  O
  O349     1.0000 0.93120  0.23700  0.80540  Biso   1.000  O
  O350     1.0000 0.96430  0.18810  0.44850  Biso   1.000  O
  C7       1.0000 0.97700  0.97520  0.49700  Biso   1.000  C
  K13      1.0000 0.76511  0.28190  0.96980  Biso   1.000  K
  K14      1.0000 0.95550  0.21580  0.07540  Biso   1.000  K
  Na7      1.0000 0.98380  0.27500  0.69190  Biso   1.000  Na
  W106     1.0000 0.30705  0.93145  0.68025  Biso   1.000  W
  W107     1.0000 0.31473  0.60847  0.68010  Biso   1.000  W
  W108     1.0000 0.40845  0.03748  0.67974  Biso   1.000  W
  W109     1.0000 0.47642  0.88877  0.89647  Biso   1.000  W
  W110     1.0000 0.43827  0.72763  0.89732  Biso   1.000  W
  W111     1.0000 0.26903  0.76711  0.68193  Biso   1.000  W
  W112     1.0000 0.53916  0.03827  0.67829  Biso   1.000  W
  W113     1.0000 0.45712  0.63097  0.60501  Biso   1.000  W
  W114     1.0000 0.35462  0.73312  0.60476  Biso   1.000  W
  W115     1.0000 0.39517  0.89330  0.60486  Biso   1.000  W
  W116     1.0000 0.31223  0.78120  0.82473  Biso   1.000  W
  W117     1.0000 0.54924  0.51546  0.67803  Biso   1.000  W
  W118     1.0000 0.35334  0.94442  0.82276  Biso   1.000  W
  W119     1.0000 0.57942  0.50681  0.82039  Biso   1.000  W
  W120     1.0000 0.34562  0.61748  0.82288  Biso   1.000  W
  Sm15     1.0000 0.31515  0.05122  0.93628  Biso   1.000  Sm
  Sm16     1.0000 0.42205  0.59689  0.43446  Biso   1.000  Sm
  P15      1.0000 0.38638  0.72670  0.75130  Biso   1.000  P
  P16      1.0000 0.42963  0.90230  0.75050  Biso   1.000  P
  O351     1.0000 0.39890  0.73910  0.69750  Biso   1.000  O
  O352     1.0000 0.30610  0.76970  0.63030  Biso   1.000  O
  O353     1.0000 0.33460  0.65680  0.63110  Biso   1.000  O
  O354     1.0000 0.41230  0.69160  0.60160  Biso   1.000  O
  O355     1.0000 0.38230  0.80890  0.60030  Biso   1.000  O
  O356     1.0000 0.45790  0.87640  0.60040  Biso   1.000  O
  O357     1.0000 0.36490  0.90940  0.53280  Biso   1.000  O
  O358     1.0000 0.43110  0.87300  0.69620  Biso   1.000  O
  O359     1.0000 0.33910  0.90310  0.62910  Biso   1.000  O
  O360     1.0000 0.41250  0.97460  0.62950  Biso   1.000  O
  O361     1.0000 0.54180  0.57390  0.74970  Biso   1.000  O
  O362     1.0000 0.40830  0.90280  0.87270  Biso   1.000  O
  O363     1.0000 0.37580  0.76910  0.87390  Biso   1.000  O
  O364     1.0000 0.47870  0.05170  0.68450  Biso   1.000  O
  O365     1.0000 0.44610  0.97050  0.75080  Biso   1.000  O
  O366     1.0000 0.32640  0.97540  0.86940  Biso   1.000  O
  O367     1.0000 0.51100  0.57260  0.62890  Biso   1.000  O
  O368     1.0000 0.36910  0.65940  0.75000  Biso   1.000  O
  O369     1.0000 0.28210  0.85820  0.68730  Biso   1.000  O
  O370     1.0000 0.27610  0.68480  0.68510  Biso   1.000  O
  O371     1.0000 0.48330  0.48750  0.68210  Biso   1.000  O
  O372     1.0000 0.48050  0.97220  0.87050  Biso   1.000  O
  O373     1.0000 0.30270  0.96120  0.75180  Biso   1.000  O
  O374     1.0000 0.60570  0.55250  0.68320  Biso   1.000  O
  O375     1.0000 0.30420  0.58570  0.75060  Biso   1.000  O
  O376     1.0000 0.46800  0.80460  0.89960  Biso   1.000  O
  O377     1.0000 0.57990  0.57230  0.87110  Biso   1.000  O
  O378     1.0000 0.42590  0.07960  0.75170  Biso   1.000  O
  O379     1.0000 0.57550  0.46960  0.74920  Biso   1.000  O
  O380     1.0000 0.25710  0.77490  0.75400  Biso   1.000  O
  O381     1.0000 0.31280  0.68800  0.81950  Biso   1.000  O
  O382     1.0000 0.36040  0.54970  0.68560  Biso   1.000  O
  O383     1.0000 0.44370  0.72310  0.96900  Biso   1.000  O
  O384     1.0000 0.43600  0.61000  0.53270  Biso   1.000  O
  O385     1.0000 0.39330  0.00630  0.81810  Biso   1.000  O
  O386     1.0000 0.51560  0.65440  0.80400  Biso   1.000  O
  O387     1.0000 0.40320  0.65500  0.87230  Biso   1.000  O
  O388     1.0000 0.35140  0.00720  0.68360  Biso   1.000  O
  O389     1.0000 0.50310  0.69060  0.59930  Biso   1.000  O
  O390     1.0000 0.37590  0.90310  0.75250  Biso   1.000  O
  O391     1.0000 0.46280  0.86920  0.80430  Biso   1.000  O
  O392     1.0000 0.55110  0.45520  0.63240  Biso   1.000  O
  O393     1.0000 0.27920  0.77920  0.87200  Biso   1.000  O
  O394     1.0000 0.43530  0.49740  0.47210  Biso   1.000  O
  O395     1.0000 0.26310  0.57470  0.63340  Biso   1.000  O
  O396     1.0000 0.31950  0.86200  0.81800  Biso   1.000  O
  O397     1.0000 0.49250  0.42700  0.51880  Biso   1.000  O
  O398     1.0000 0.34330  0.76640  0.75290  Biso   1.000  O
  O399     1.0000 0.43120  0.73700  0.80540  Biso   1.000  O
  O400     1.0000 0.46430  0.68810  0.44850  Biso   1.000  O
  C8       1.0000 0.47700  0.47520  0.49700  Biso   1.000  C
  K15      1.0000 0.26511  0.78190  0.96980  Biso   1.000  K
  K16      1.0000 0.45550  0.71580  0.07540  Biso   1.000  K
  Na8      1.0000 0.48380  0.77500  0.69190  Biso   1.000  Na
  P17      1.0000 0.00000  0.88360  0.25000  Biso   1.000  P
  P18      1.0000 0.50000  0.38360  0.25000  Biso   1.000  P
  P19      1.0000 0.00000  0.11640  0.75000  Biso   1.000  P
  P20      1.0000 0.50000  0.61640  0.75000  Biso   1.000  P
