data_image0
_cell_length_a       6.9041
_cell_length_b       18.7425
_cell_length_c       22.4191
_cell_angle_alpha    90
_cell_angle_beta     97.687
_cell_angle_gamma    90

_symmetry_space_group_name_H-M    "P 1"
_symmetry_int_tables_number       1

loop_
  _symmetry_equiv_pos_as_xyz
  'x, y, z'

loop_
  _atom_site_label
  _atom_site_occupancy
  _atom_site_fract_x
  _atom_site_fract_y
  _atom_site_fract_z
  _atom_site_thermal_displace_type
  _atom_site_B_iso_or_equiv
  _atom_site_type_symbol
  Ag1      1.0000 0.85167  0.86231  0.58521  Biso   1.000  Ag
  Ag2      1.0000 0.57372  0.94743  0.64658  Biso   1.000  Ag
  Ag3      1.0000 0.47708  0.92574  0.50706  Biso   1.000  Ag
  Ag4      1.0000 0.13064  0.97516  0.55742  Biso   1.000  Ag
  Ag5      1.0000 0.91701  0.13292  0.54856  Biso   1.000  Ag
  Ag6      1.0000 0.91180  0.03499  0.67111  Biso   1.000  Ag
  C1       1.0000 0.75200  0.97100  0.57540  Biso   1.000  C
  C2       1.0000 0.79980  0.02930  0.55560  Biso   1.000  C
  C3       1.0000 0.91830  0.72750  0.50000  Biso   1.000  C
  C4       1.0000 0.86380  0.64810  0.49190  Biso   1.000  C
  C5       1.0000 0.34120  0.81830  0.59350  Biso   1.000  C
  C6       1.0000 0.36100  0.75330  0.63350  Biso   1.000  C
  C7       1.0000 0.35880  0.68530  0.60760  Biso   1.000  C
  H1       1.0000 0.34700  0.68010  0.56600  Biso   1.000  H
  C8       1.0000 0.37450  0.62550  0.64480  Biso   1.000  C
  H2       1.0000 0.36970  0.58010  0.62790  Biso   1.000  H
  C9       1.0000 0.39720  0.63330  0.70660  Biso   1.000  C
  H3       1.0000 0.40620  0.59310  0.73100  Biso   1.000  H
  C10      1.0000 0.40680  0.70140  0.73280  Biso   1.000  C
  C11      1.0000 0.38250  0.76080  0.69550  Biso   1.000  C
  H4       1.0000 0.38050  0.80610  0.71230  Biso   1.000  H
  C12      1.0000 0.44100  0.70710  0.80010  Biso   1.000  C
  F1       1.0000 0.73800  0.62790  0.52480  Biso   1.000  F
  F2       1.0000 0.02000  0.60780  0.50420  Biso   1.000  F
  F3       1.0000 0.79410  0.63100  0.43670  Biso   1.000  F
  O1       1.0000 0.89490  0.75340  0.54890  Biso   1.000  O
  O2       1.0000 0.98340  0.75600  0.45590  Biso   1.000  O
  O3       1.0000 0.27090  0.87450  0.61450  Biso   1.000  O
  O4       1.0000 0.39850  0.81380  0.54300  Biso   1.000  O
  O5       1.0000 0.41180  0.77050  0.82420  Biso   1.000  O
  H5       1.0000 0.31060  0.78810  0.80700  Biso   1.000  H
  O6       1.0000 0.50090  0.65620  0.83240  Biso   1.000  O
  Ag7      1.0000 0.64833  0.36231  0.91479  Biso   1.000  Ag
  Ag8      1.0000 0.92628  0.44743  0.85342  Biso   1.000  Ag
  Ag9      1.0000 0.02292  0.42574  0.99294  Biso   1.000  Ag
  Ag10     1.0000 0.36936  0.47516  0.94258  Biso   1.000  Ag
  Ag11     1.0000 0.58299  0.63292  0.95144  Biso   1.000  Ag
  Ag12     1.0000 0.58820  0.53499  0.82889  Biso   1.000  Ag
  C13      1.0000 0.74800  0.47100  0.92460  Biso   1.000  C
  C14      1.0000 0.70020  0.52930  0.94440  Biso   1.000  C
  C15      1.0000 0.58170  0.22750  0.00000  Biso   1.000  C
  C16      1.0000 0.63620  0.14810  0.00810  Biso   1.000  C
  C17      1.0000 0.15880  0.31830  0.90650  Biso   1.000  C
  C18      1.0000 0.13900  0.25330  0.86650  Biso   1.000  C
  C19      1.0000 0.14120  0.18530  0.89240  Biso   1.000  C
  H6       1.0000 0.15300  0.18010  0.93400  Biso   1.000  H
  C20      1.0000 0.12550  0.12550  0.85520  Biso   1.000  C
  H7       1.0000 0.13030  0.08010  0.87210  Biso   1.000  H
  C21      1.0000 0.10280  0.13330  0.79340  Biso   1.000  C
  H8       1.0000 0.09380  0.09310  0.76900  Biso   1.000  H
  C22      1.0000 0.09320  0.20140  0.76720  Biso   1.000  C
  C23      1.0000 0.11750  0.26080  0.80450  Biso   1.000  C
  H9       1.0000 0.11950  0.30610  0.78770  Biso   1.000  H
  C24      1.0000 0.05900  0.20710  0.69990  Biso   1.000  C
  F4       1.0000 0.76200  0.12790  0.97520  Biso   1.000  F
  F5       1.0000 0.48000  0.10780  0.99580  Biso   1.000  F
  F6       1.0000 0.70590  0.13100  0.06330  Biso   1.000  F
  O7       1.0000 0.60510  0.25340  0.95110  Biso   1.000  O
  O8       1.0000 0.51660  0.25600  0.04410  Biso   1.000  O
  O9       1.0000 0.22910  0.37450  0.88550  Biso   1.000  O
  O10      1.0000 0.10150  0.31380  0.95700  Biso   1.000  O
  O11      1.0000 0.08820  0.27050  0.67580  Biso   1.000  O
  H10      1.0000 0.18940  0.28810  0.69300  Biso   1.000  H
  O12      1.0000 0.99910  0.15620  0.66760  Biso   1.000  O
  Ag13     1.0000 0.14833  0.13769  0.41479  Biso   1.000  Ag
  Ag14     1.0000 0.42628  0.05257  0.35342  Biso   1.000  Ag
  Ag15     1.0000 0.52292  0.07426  0.49294  Biso   1.000  Ag
  Ag16     1.0000 0.86936  0.02484  0.44258  Biso   1.000  Ag
  Ag17     1.0000 0.08299  0.86708  0.45144  Biso   1.000  Ag
  Ag18     1.0000 0.08820  0.96501  0.32889  Biso   1.000  Ag
  C25      1.0000 0.24800  0.02900  0.42460  Biso   1.000  C
  C26      1.0000 0.20020  0.97070  0.44440  Biso   1.000  C
  C27      1.0000 0.08170  0.27250  0.50000  Biso   1.000  C
  C28      1.0000 0.13620  0.35190  0.50810  Biso   1.000  C
  C29      1.0000 0.65880  0.18170  0.40650  Biso   1.000  C
  C30      1.0000 0.63900  0.24670  0.36650  Biso   1.000  C
  C31      1.0000 0.64120  0.31470  0.39240  Biso   1.000  C
  H11      1.0000 0.65300  0.31990  0.43400  Biso   1.000  H
  C32      1.0000 0.62550  0.37450  0.35520  Biso   1.000  C
  H12      1.0000 0.63030  0.41990  0.37210  Biso   1.000  H
  C33      1.0000 0.60280  0.36670  0.29340  Biso   1.000  C
  H13      1.0000 0.59380  0.40690  0.26900  Biso   1.000  H
  C34      1.0000 0.59320  0.29860  0.26720  Biso   1.000  C
  C35      1.0000 0.61750  0.23920  0.30450  Biso   1.000  C
  H14      1.0000 0.61950  0.19390  0.28770  Biso   1.000  H
  C36      1.0000 0.55900  0.29290  0.19990  Biso   1.000  C
  F7       1.0000 0.26200  0.37210  0.47520  Biso   1.000  F
  F8       1.0000 0.98000  0.39220  0.49580  Biso   1.000  F
  F9       1.0000 0.20590  0.36900  0.56330  Biso   1.000  F
  O13      1.0000 0.10510  0.24660  0.45110  Biso   1.000  O
  O14      1.0000 0.01660  0.24400  0.54410  Biso   1.000  O
  O15      1.0000 0.72910  0.12550  0.38550  Biso   1.000  O
  O16      1.0000 0.60150  0.18620  0.45700  Biso   1.000  O
  O17      1.0000 0.58820  0.22950  0.17580  Biso   1.000  O
  H15      1.0000 0.68940  0.21190  0.19300  Biso   1.000  H
  O18      1.0000 0.49910  0.34380  0.16760  Biso   1.000  O
  Ag19     1.0000 0.35167  0.63769  0.08521  Biso   1.000  Ag
  Ag20     1.0000 0.07372  0.55257  0.14658  Biso   1.000  Ag
  Ag21     1.0000 0.97708  0.57426  0.00706  Biso   1.000  Ag
  Ag22     1.0000 0.63064  0.52484  0.05742  Biso   1.000  Ag
  Ag23     1.0000 0.41701  0.36708  0.04856  Biso   1.000  Ag
  Ag24     1.0000 0.41180  0.46501  0.17111  Biso   1.000  Ag
  C37      1.0000 0.25200  0.52900  0.07540  Biso   1.000  C
  C38      1.0000 0.29980  0.47070  0.05560  Biso   1.000  C
  C39      1.0000 0.41830  0.77250  0.00000  Biso   1.000  C
  C40      1.0000 0.36380  0.85190  0.99190  Biso   1.000  C
  C41      1.0000 0.84120  0.68170  0.09350  Biso   1.000  C
  C42      1.0000 0.86100  0.74670  0.13350  Biso   1.000  C
  C43      1.0000 0.85880  0.81470  0.10760  Biso   1.000  C
  H16      1.0000 0.84700  0.81990  0.06600  Biso   1.000  H
  C44      1.0000 0.87450  0.87450  0.14480  Biso   1.000  C
  H17      1.0000 0.86970  0.91990  0.12790  Biso   1.000  H
  C45      1.0000 0.89720  0.86670  0.20660  Biso   1.000  C
  H18      1.0000 0.90620  0.90690  0.23100  Biso   1.000  H
  C46      1.0000 0.90680  0.79860  0.23280  Biso   1.000  C
  C47      1.0000 0.88250  0.73920  0.19550  Biso   1.000  C
  H19      1.0000 0.88050  0.69390  0.21230  Biso   1.000  H
  C48      1.0000 0.94100  0.79290  0.30010  Biso   1.000  C
  F10      1.0000 0.23800  0.87210  0.02480  Biso   1.000  F
  F11      1.0000 0.52000  0.89220  0.00420  Biso   1.000  F
  F12      1.0000 0.29410  0.86900  0.93670  Biso   1.000  F
  O19      1.0000 0.39490  0.74660  0.04890  Biso   1.000  O
  O20      1.0000 0.48340  0.74400  0.95590  Biso   1.000  O
  O21      1.0000 0.77090  0.62550  0.11450  Biso   1.000  O
  O22      1.0000 0.89850  0.68620  0.04300  Biso   1.000  O
  O23      1.0000 0.91180  0.72950  0.32420  Biso   1.000  O
  H20      1.0000 0.81060  0.71190  0.30700  Biso   1.000  H
  O24      1.0000 0.00090  0.84380  0.33240  Biso   1.000  O
