data_image0
_cell_length_a       27.086
_cell_length_b       27.086
_cell_length_c       6.7052
_cell_angle_alpha    90
_cell_angle_beta     90
_cell_angle_gamma    90

_symmetry_space_group_name_H-M    "P 1"
_symmetry_int_tables_number       1

loop_
  _symmetry_equiv_pos_as_xyz
  'x, y, z'

loop_
  _atom_site_label
  _atom_site_occupancy
  _atom_site_fract_x
  _atom_site_fract_y
  _atom_site_fract_z
  _atom_site_thermal_displace_type
  _atom_site_B_iso_or_equiv
  _atom_site_type_symbol
  C1       1.0000 0.49113  0.08374  0.83620  Biso   1.000  C
  C2       1.0000 0.48770  0.13355  0.73890  Biso   1.000  C
  C3       1.0000 0.46563  0.13756  0.55450  Biso   1.000  C
  H1       1.0000 0.45280  0.10980  0.49170  Biso   1.000  H
  C4       1.0000 0.46274  0.18349  0.46340  Biso   1.000  C
  C5       1.0000 0.48291  0.22561  0.55130  Biso   1.000  C
  C6       1.0000 0.50385  0.22068  0.73590  Biso   1.000  C
  H2       1.0000 0.51660  0.24840  0.79960  Biso   1.000  H
  C7       1.0000 0.50643  0.17522  0.82980  Biso   1.000  C
  H3       1.0000 0.52090  0.17280  0.95520  Biso   1.000  H
  C8       1.0000 0.41240  0.15184  0.20320  Biso   1.000  C
  H4       1.0000 0.39850  0.16200  0.07810  Biso   1.000  H
  H5       1.0000 0.38630  0.14310  0.29350  Biso   1.000  H
  H6       1.0000 0.43350  0.12380  0.18230  Biso   1.000  H
  O1       1.0000 0.51076  0.08266  0.00480  Biso   1.000  O
  O2       1.0000 0.47496  0.04689  0.74550  Biso   1.000  O
  O3       1.0000 0.44024  0.19096  0.28500  Biso   1.000  O
  C9       1.0000 0.00887  0.41626  0.83620  Biso   1.000  C
  C10      1.0000 0.01230  0.36645  0.73890  Biso   1.000  C
  C11      1.0000 0.03437  0.36244  0.55450  Biso   1.000  C
  H7       1.0000 0.04720  0.39020  0.49170  Biso   1.000  H
  C12      1.0000 0.03726  0.31651  0.46340  Biso   1.000  C
  C13      1.0000 0.01709  0.27439  0.55130  Biso   1.000  C
  C14      1.0000 0.99615  0.27932  0.73590  Biso   1.000  C
  H8       1.0000 0.98340  0.25160  0.79960  Biso   1.000  H
  C15      1.0000 0.99357  0.32478  0.82980  Biso   1.000  C
  H9       1.0000 0.97910  0.32720  0.95520  Biso   1.000  H
  C16      1.0000 0.08760  0.34816  0.20320  Biso   1.000  C
  H10      1.0000 0.10150  0.33800  0.07810  Biso   1.000  H
  H11      1.0000 0.11370  0.35690  0.29350  Biso   1.000  H
  H12      1.0000 0.06650  0.37620  0.18230  Biso   1.000  H
  O4       1.0000 0.98924  0.41734  0.00480  Biso   1.000  O
  O5       1.0000 0.02504  0.45311  0.74550  Biso   1.000  O
  O6       1.0000 0.05976  0.30904  0.28500  Biso   1.000  O
  C17      1.0000 0.41626  0.49113  0.83620  Biso   1.000  C
  C18      1.0000 0.36645  0.48770  0.73890  Biso   1.000  C
  C19      1.0000 0.36244  0.46563  0.55450  Biso   1.000  C
  H13      1.0000 0.39020  0.45280  0.49170  Biso   1.000  H
  C20      1.0000 0.31651  0.46274  0.46340  Biso   1.000  C
  C21      1.0000 0.27439  0.48291  0.55130  Biso   1.000  C
  C22      1.0000 0.27932  0.50385  0.73590  Biso   1.000  C
  H14      1.0000 0.25160  0.51660  0.79960  Biso   1.000  H
  C23      1.0000 0.32478  0.50643  0.82980  Biso   1.000  C
  H15      1.0000 0.32720  0.52090  0.95520  Biso   1.000  H
  C24      1.0000 0.34816  0.41240  0.20320  Biso   1.000  C
  H16      1.0000 0.33800  0.39850  0.07810  Biso   1.000  H
  H17      1.0000 0.35690  0.38630  0.29350  Biso   1.000  H
  H18      1.0000 0.37620  0.43350  0.18230  Biso   1.000  H
  O7       1.0000 0.41734  0.51076  0.00480  Biso   1.000  O
  O8       1.0000 0.45311  0.47496  0.74550  Biso   1.000  O
  O9       1.0000 0.30904  0.44024  0.28500  Biso   1.000  O
  C25      1.0000 0.08374  0.00887  0.83620  Biso   1.000  C
  C26      1.0000 0.13355  0.01230  0.73890  Biso   1.000  C
  C27      1.0000 0.13756  0.03437  0.55450  Biso   1.000  C
  H19      1.0000 0.10980  0.04720  0.49170  Biso   1.000  H
  C28      1.0000 0.18349  0.03726  0.46340  Biso   1.000  C
  C29      1.0000 0.22561  0.01709  0.55130  Biso   1.000  C
  C30      1.0000 0.22068  0.99615  0.73590  Biso   1.000  C
  H20      1.0000 0.24840  0.98340  0.79960  Biso   1.000  H
  C31      1.0000 0.17522  0.99357  0.82980  Biso   1.000  C
  H21      1.0000 0.17280  0.97910  0.95520  Biso   1.000  H
  C32      1.0000 0.15184  0.08760  0.20320  Biso   1.000  C
  H22      1.0000 0.16200  0.10150  0.07810  Biso   1.000  H
  H23      1.0000 0.14310  0.11370  0.29350  Biso   1.000  H
  H24      1.0000 0.12380  0.06650  0.18230  Biso   1.000  H
  O10      1.0000 0.08266  0.98924  0.00480  Biso   1.000  O
  O11      1.0000 0.04689  0.02504  0.74550  Biso   1.000  O
  O12      1.0000 0.19096  0.05976  0.28500  Biso   1.000  O
  C33      1.0000 0.00887  0.08374  0.16380  Biso   1.000  C
  C34      1.0000 0.01230  0.13355  0.26110  Biso   1.000  C
  C35      1.0000 0.03437  0.13756  0.44550  Biso   1.000  C
  H25      1.0000 0.04720  0.10980  0.50830  Biso   1.000  H
  C36      1.0000 0.03726  0.18349  0.53660  Biso   1.000  C
  C37      1.0000 0.01709  0.22561  0.44870  Biso   1.000  C
  C38      1.0000 0.99615  0.22068  0.26410  Biso   1.000  C
  H26      1.0000 0.98340  0.24840  0.20040  Biso   1.000  H
  C39      1.0000 0.99357  0.17522  0.17020  Biso   1.000  C
  H27      1.0000 0.97910  0.17280  0.04480  Biso   1.000  H
  C40      1.0000 0.08760  0.15184  0.79680  Biso   1.000  C
  H28      1.0000 0.10150  0.16200  0.92190  Biso   1.000  H
  H29      1.0000 0.11370  0.14310  0.70650  Biso   1.000  H
  H30      1.0000 0.06650  0.12380  0.81770  Biso   1.000  H
  O13      1.0000 0.98924  0.08266  0.99520  Biso   1.000  O
  O14      1.0000 0.02504  0.04689  0.25450  Biso   1.000  O
  O15      1.0000 0.05976  0.19096  0.71500  Biso   1.000  O
  C41      1.0000 0.49113  0.41626  0.16380  Biso   1.000  C
  C42      1.0000 0.48770  0.36645  0.26110  Biso   1.000  C
  C43      1.0000 0.46563  0.36244  0.44550  Biso   1.000  C
  H31      1.0000 0.45280  0.39020  0.50830  Biso   1.000  H
  C44      1.0000 0.46274  0.31651  0.53660  Biso   1.000  C
  C45      1.0000 0.48291  0.27439  0.44870  Biso   1.000  C
  C46      1.0000 0.50385  0.27932  0.26410  Biso   1.000  C
  H32      1.0000 0.51660  0.25160  0.20040  Biso   1.000  H
  C47      1.0000 0.50643  0.32478  0.17020  Biso   1.000  C
  H33      1.0000 0.52090  0.32720  0.04480  Biso   1.000  H
  C48      1.0000 0.41240  0.34816  0.79680  Biso   1.000  C
  H34      1.0000 0.39850  0.33800  0.92190  Biso   1.000  H
  H35      1.0000 0.38630  0.35690  0.70650  Biso   1.000  H
  H36      1.0000 0.43350  0.37620  0.81770  Biso   1.000  H
  O16      1.0000 0.51076  0.41734  0.99520  Biso   1.000  O
  O17      1.0000 0.47496  0.45311  0.25450  Biso   1.000  O
  O18      1.0000 0.44024  0.30904  0.71500  Biso   1.000  O
  C49      1.0000 0.08374  0.49113  0.16380  Biso   1.000  C
  C50      1.0000 0.13355  0.48770  0.26110  Biso   1.000  C
  C51      1.0000 0.13756  0.46563  0.44550  Biso   1.000  C
  H37      1.0000 0.10980  0.45280  0.50830  Biso   1.000  H
  C52      1.0000 0.18349  0.46274  0.53660  Biso   1.000  C
  C53      1.0000 0.22561  0.48291  0.44870  Biso   1.000  C
  C54      1.0000 0.22068  0.50385  0.26410  Biso   1.000  C
  H38      1.0000 0.24840  0.51660  0.20040  Biso   1.000  H
  C55      1.0000 0.17522  0.50643  0.17020  Biso   1.000  C
  H39      1.0000 0.17280  0.52090  0.04480  Biso   1.000  H
  C56      1.0000 0.15184  0.41240  0.79680  Biso   1.000  C
  H40      1.0000 0.16200  0.39850  0.92190  Biso   1.000  H
  H41      1.0000 0.14310  0.38630  0.70650  Biso   1.000  H
  H42      1.0000 0.12380  0.43350  0.81770  Biso   1.000  H
  O19      1.0000 0.08266  0.51076  0.99520  Biso   1.000  O
  O20      1.0000 0.04689  0.47496  0.25450  Biso   1.000  O
  O21      1.0000 0.19096  0.44024  0.71500  Biso   1.000  O
  C57      1.0000 0.41626  0.00887  0.16380  Biso   1.000  C
  C58      1.0000 0.36645  0.01230  0.26110  Biso   1.000  C
  C59      1.0000 0.36244  0.03437  0.44550  Biso   1.000  C
  H43      1.0000 0.39020  0.04720  0.50830  Biso   1.000  H
  C60      1.0000 0.31651  0.03726  0.53660  Biso   1.000  C
  C61      1.0000 0.27439  0.01709  0.44870  Biso   1.000  C
  C62      1.0000 0.27932  0.99615  0.26410  Biso   1.000  C
  H44      1.0000 0.25160  0.98340  0.20040  Biso   1.000  H
  C63      1.0000 0.32478  0.99357  0.17020  Biso   1.000  C
  H45      1.0000 0.32720  0.97910  0.04480  Biso   1.000  H
  C64      1.0000 0.34816  0.08760  0.79680  Biso   1.000  C
  H46      1.0000 0.33800  0.10150  0.92190  Biso   1.000  H
  H47      1.0000 0.35690  0.11370  0.70650  Biso   1.000  H
  H48      1.0000 0.37620  0.06650  0.81770  Biso   1.000  H
  O22      1.0000 0.41734  0.98924  0.99520  Biso   1.000  O
  O23      1.0000 0.45311  0.02504  0.25450  Biso   1.000  O
  O24      1.0000 0.30904  0.05976  0.71500  Biso   1.000  O
  C65      1.0000 0.50887  0.91626  0.16380  Biso   1.000  C
  C66      1.0000 0.51230  0.86645  0.26110  Biso   1.000  C
  C67      1.0000 0.53437  0.86244  0.44550  Biso   1.000  C
  H49      1.0000 0.54720  0.89020  0.50830  Biso   1.000  H
  C68      1.0000 0.53726  0.81651  0.53660  Biso   1.000  C
  C69      1.0000 0.51709  0.77439  0.44870  Biso   1.000  C
  C70      1.0000 0.49615  0.77932  0.26410  Biso   1.000  C
  H50      1.0000 0.48340  0.75160  0.20040  Biso   1.000  H
  C71      1.0000 0.49357  0.82478  0.17020  Biso   1.000  C
  H51      1.0000 0.47910  0.82720  0.04480  Biso   1.000  H
  C72      1.0000 0.58760  0.84816  0.79680  Biso   1.000  C
  H52      1.0000 0.60150  0.83800  0.92190  Biso   1.000  H
  H53      1.0000 0.61370  0.85690  0.70650  Biso   1.000  H
  H54      1.0000 0.56650  0.87620  0.81770  Biso   1.000  H
  O25      1.0000 0.48924  0.91734  0.99520  Biso   1.000  O
  O26      1.0000 0.52504  0.95311  0.25450  Biso   1.000  O
  O27      1.0000 0.55976  0.80904  0.71500  Biso   1.000  O
  C73      1.0000 0.99113  0.58374  0.16380  Biso   1.000  C
  C74      1.0000 0.98770  0.63355  0.26110  Biso   1.000  C
  C75      1.0000 0.96563  0.63756  0.44550  Biso   1.000  C
  H55      1.0000 0.95280  0.60980  0.50830  Biso   1.000  H
  C76      1.0000 0.96274  0.68349  0.53660  Biso   1.000  C
  C77      1.0000 0.98291  0.72561  0.44870  Biso   1.000  C
  C78      1.0000 0.00385  0.72068  0.26410  Biso   1.000  C
  H56      1.0000 0.01660  0.74840  0.20040  Biso   1.000  H
  C79      1.0000 0.00643  0.67522  0.17020  Biso   1.000  C
  H57      1.0000 0.02090  0.67280  0.04480  Biso   1.000  H
  C80      1.0000 0.91240  0.65184  0.79680  Biso   1.000  C
  H58      1.0000 0.89850  0.66200  0.92190  Biso   1.000  H
  H59      1.0000 0.88630  0.64310  0.70650  Biso   1.000  H
  H60      1.0000 0.93350  0.62380  0.81770  Biso   1.000  H
  O28      1.0000 0.01076  0.58266  0.99520  Biso   1.000  O
  O29      1.0000 0.97496  0.54689  0.25450  Biso   1.000  O
  O30      1.0000 0.94024  0.69096  0.71500  Biso   1.000  O
  C81      1.0000 0.58374  0.50887  0.16380  Biso   1.000  C
  C82      1.0000 0.63355  0.51230  0.26110  Biso   1.000  C
  C83      1.0000 0.63756  0.53437  0.44550  Biso   1.000  C
  H61      1.0000 0.60980  0.54720  0.50830  Biso   1.000  H
  C84      1.0000 0.68349  0.53726  0.53660  Biso   1.000  C
  C85      1.0000 0.72561  0.51709  0.44870  Biso   1.000  C
  C86      1.0000 0.72068  0.49615  0.26410  Biso   1.000  C
  H62      1.0000 0.74840  0.48340  0.20040  Biso   1.000  H
  C87      1.0000 0.67522  0.49357  0.17020  Biso   1.000  C
  H63      1.0000 0.67280  0.47910  0.04480  Biso   1.000  H
  C88      1.0000 0.65184  0.58760  0.79680  Biso   1.000  C
  H64      1.0000 0.66200  0.60150  0.92190  Biso   1.000  H
  H65      1.0000 0.64310  0.61370  0.70650  Biso   1.000  H
  H66      1.0000 0.62380  0.56650  0.81770  Biso   1.000  H
  O31      1.0000 0.58266  0.48924  0.99520  Biso   1.000  O
  O32      1.0000 0.54689  0.52504  0.25450  Biso   1.000  O
  O33      1.0000 0.69096  0.55976  0.71500  Biso   1.000  O
  C89      1.0000 0.91626  0.99113  0.16380  Biso   1.000  C
  C90      1.0000 0.86645  0.98770  0.26110  Biso   1.000  C
  C91      1.0000 0.86244  0.96563  0.44550  Biso   1.000  C
  H67      1.0000 0.89020  0.95280  0.50830  Biso   1.000  H
  C92      1.0000 0.81651  0.96274  0.53660  Biso   1.000  C
  C93      1.0000 0.77439  0.98291  0.44870  Biso   1.000  C
  C94      1.0000 0.77932  0.00385  0.26410  Biso   1.000  C
  H68      1.0000 0.75160  0.01660  0.20040  Biso   1.000  H
  C95      1.0000 0.82478  0.00643  0.17020  Biso   1.000  C
  H69      1.0000 0.82720  0.02090  0.04480  Biso   1.000  H
  C96      1.0000 0.84816  0.91240  0.79680  Biso   1.000  C
  H70      1.0000 0.83800  0.89850  0.92190  Biso   1.000  H
  H71      1.0000 0.85690  0.88630  0.70650  Biso   1.000  H
  H72      1.0000 0.87620  0.93350  0.81770  Biso   1.000  H
  O34      1.0000 0.91734  0.01076  0.99520  Biso   1.000  O
  O35      1.0000 0.95311  0.97496  0.25450  Biso   1.000  O
  O36      1.0000 0.80904  0.94024  0.71500  Biso   1.000  O
  C97      1.0000 0.99113  0.91626  0.83620  Biso   1.000  C
  C98      1.0000 0.98770  0.86645  0.73890  Biso   1.000  C
  C99      1.0000 0.96563  0.86244  0.55450  Biso   1.000  C
  H73      1.0000 0.95280  0.89020  0.49170  Biso   1.000  H
  C100     1.0000 0.96274  0.81651  0.46340  Biso   1.000  C
  C101     1.0000 0.98291  0.77439  0.55130  Biso   1.000  C
  C102     1.0000 0.00385  0.77932  0.73590  Biso   1.000  C
  H74      1.0000 0.01660  0.75160  0.79960  Biso   1.000  H
  C103     1.0000 0.00643  0.82478  0.82980  Biso   1.000  C
  H75      1.0000 0.02090  0.82720  0.95520  Biso   1.000  H
  C104     1.0000 0.91240  0.84816  0.20320  Biso   1.000  C
  H76      1.0000 0.89850  0.83800  0.07810  Biso   1.000  H
  H77      1.0000 0.88630  0.85690  0.29350  Biso   1.000  H
  H78      1.0000 0.93350  0.87620  0.18230  Biso   1.000  H
  O37      1.0000 0.01076  0.91734  0.00480  Biso   1.000  O
  O38      1.0000 0.97496  0.95311  0.74550  Biso   1.000  O
  O39      1.0000 0.94024  0.80904  0.28500  Biso   1.000  O
  C105     1.0000 0.50887  0.58374  0.83620  Biso   1.000  C
  C106     1.0000 0.51230  0.63355  0.73890  Biso   1.000  C
  C107     1.0000 0.53437  0.63756  0.55450  Biso   1.000  C
  H79      1.0000 0.54720  0.60980  0.49170  Biso   1.000  H
  C108     1.0000 0.53726  0.68349  0.46340  Biso   1.000  C
  C109     1.0000 0.51709  0.72561  0.55130  Biso   1.000  C
  C110     1.0000 0.49615  0.72068  0.73590  Biso   1.000  C
  H80      1.0000 0.48340  0.74840  0.79960  Biso   1.000  H
  C111     1.0000 0.49357  0.67522  0.82980  Biso   1.000  C
  H81      1.0000 0.47910  0.67280  0.95520  Biso   1.000  H
  C112     1.0000 0.58760  0.65184  0.20320  Biso   1.000  C
  H82      1.0000 0.60150  0.66200  0.07810  Biso   1.000  H
  H83      1.0000 0.61370  0.64310  0.29350  Biso   1.000  H
  H84      1.0000 0.56650  0.62380  0.18230  Biso   1.000  H
  O40      1.0000 0.48924  0.58266  0.00480  Biso   1.000  O
  O41      1.0000 0.52504  0.54689  0.74550  Biso   1.000  O
  O42      1.0000 0.55976  0.69096  0.28500  Biso   1.000  O
  C113     1.0000 0.91626  0.50887  0.83620  Biso   1.000  C
  C114     1.0000 0.86645  0.51230  0.73890  Biso   1.000  C
  C115     1.0000 0.86244  0.53437  0.55450  Biso   1.000  C
  H85      1.0000 0.89020  0.54720  0.49170  Biso   1.000  H
  C116     1.0000 0.81651  0.53726  0.46340  Biso   1.000  C
  C117     1.0000 0.77439  0.51709  0.55130  Biso   1.000  C
  C118     1.0000 0.77932  0.49615  0.73590  Biso   1.000  C
  H86      1.0000 0.75160  0.48340  0.79960  Biso   1.000  H
  C119     1.0000 0.82478  0.49357  0.82980  Biso   1.000  C
  H87      1.0000 0.82720  0.47910  0.95520  Biso   1.000  H
  C120     1.0000 0.84816  0.58760  0.20320  Biso   1.000  C
  H88      1.0000 0.83800  0.60150  0.07810  Biso   1.000  H
  H89      1.0000 0.85690  0.61370  0.29350  Biso   1.000  H
  H90      1.0000 0.87620  0.56650  0.18230  Biso   1.000  H
  O43      1.0000 0.91734  0.48924  0.00480  Biso   1.000  O
  O44      1.0000 0.95311  0.52504  0.74550  Biso   1.000  O
  O45      1.0000 0.80904  0.55976  0.28500  Biso   1.000  O
  C121     1.0000 0.58374  0.99113  0.83620  Biso   1.000  C
  C122     1.0000 0.63355  0.98770  0.73890  Biso   1.000  C
  C123     1.0000 0.63756  0.96563  0.55450  Biso   1.000  C
  H91      1.0000 0.60980  0.95280  0.49170  Biso   1.000  H
  C124     1.0000 0.68349  0.96274  0.46340  Biso   1.000  C
  C125     1.0000 0.72561  0.98291  0.55130  Biso   1.000  C
  C126     1.0000 0.72068  0.00385  0.73590  Biso   1.000  C
  H92      1.0000 0.74840  0.01660  0.79960  Biso   1.000  H
  C127     1.0000 0.67522  0.00643  0.82980  Biso   1.000  C
  H93      1.0000 0.67280  0.02090  0.95520  Biso   1.000  H
  C128     1.0000 0.65184  0.91240  0.20320  Biso   1.000  C
  H94      1.0000 0.66200  0.89850  0.07810  Biso   1.000  H
  H95      1.0000 0.64310  0.88630  0.29350  Biso   1.000  H
  H96      1.0000 0.62380  0.93350  0.18230  Biso   1.000  H
  O46      1.0000 0.58266  0.01076  0.00480  Biso   1.000  O
  O47      1.0000 0.54689  0.97496  0.74550  Biso   1.000  O
  O48      1.0000 0.69096  0.94024  0.28500  Biso   1.000  O
  Cu1      1.0000 0.52097  0.02097  0.15159  Biso   1.000  Cu
  Cu2      1.0000 0.97903  0.47903  0.15159  Biso   1.000  Cu
  Cu3      1.0000 0.47903  0.52097  0.15159  Biso   1.000  Cu
  Cu4      1.0000 0.02097  0.97903  0.15159  Biso   1.000  Cu
  Cu5      1.0000 0.97903  0.02097  0.84841  Biso   1.000  Cu
  Cu6      1.0000 0.52097  0.47903  0.84841  Biso   1.000  Cu
  Cu7      1.0000 0.02097  0.52097  0.84841  Biso   1.000  Cu
  Cu8      1.0000 0.47903  0.97903  0.84841  Biso   1.000  Cu
