data_RIXBEG_clean
_audit_creation_date              2014-07-02
_audit_creation_method            'Materials Studio'
_symmetry_space_group_name_H-M    'P1'
_symmetry_Int_Tables_number       1
_symmetry_cell_setting            triclinic
loop_
_symmetry_equiv_pos_as_xyz
  x,y,z
_cell_length_a                    8.6715
_cell_length_b                    13.3403
_cell_length_c                    27.4412
_cell_angle_alpha                 93.8742
_cell_angle_beta                  90.0000
_cell_angle_gamma                 108.9660
loop_
_atom_site_label
_atom_site_type_symbol
_atom_site_fract_x
_atom_site_fract_y
_atom_site_fract_z
_atom_site_U_iso_or_equiv
_atom_site_adp_type
_atom_site_occupancy
Mn1    Mn    0.87750   0.54192   0.20252   0.01267  Uiso   1.00
Mn2    Mn    0.33558   0.45808   0.29748   0.01267  Uiso   1.00
Mn3    Mn    0.12250   0.45808   0.79748   0.01267  Uiso   1.00
Mn4    Mn    0.66442   0.54192   0.70252   0.01267  Uiso   1.00
H1     H     0.44720   0.48980   0.11400   0.01267  Uiso   1.00
H2     H     0.30730   0.59880   0.13800   0.01267  Uiso   1.00
H3     H     0.14480   0.50560   0.12600   0.01267  Uiso   1.00
H4     H     0.91950   0.33340   0.08010   0.01267  Uiso   1.00
H5     H     0.75880   0.34540   0.01460   0.01267  Uiso   1.00
H6     H     0.87120   0.38080   0.93900   0.01267  Uiso   1.00
H7     H     0.30810   0.39140   0.99280   0.01267  Uiso   1.00
H8     H     0.92030   0.32080   0.22930   0.01267  Uiso   1.00
H9     H     0.80500   0.14060   0.21810   0.01267  Uiso   1.00
H10    H     0.50010   0.18280   0.11930   0.01267  Uiso   1.00
H11    H     0.61630   0.36280   0.13620   0.01267  Uiso   1.00
H12    H     0.73800   0.97900   0.19070   0.01267  Uiso   1.00
H13    H     0.61880   0.80120   0.17410   0.01267  Uiso   1.00
H14    H     0.25820   0.84080   0.10190   0.01267  Uiso   1.00
H15    H     0.36770   0.02280   0.11740   0.01267  Uiso   1.00
H16    H     0.02530   0.71680   0.28860   0.01267  Uiso   1.00
H17    H     0.10380   0.89480   0.31010   0.01267  Uiso   1.00
H18    H     0.03220   0.94360   0.17370   0.01267  Uiso   1.00
H19    H     0.94480   0.76360   0.15750   0.01267  Uiso   1.00
H20    H     0.95740   0.51020   0.38600   0.01267  Uiso   1.00
H21    H     0.70850   0.40120   0.36200   0.01267  Uiso   1.00
H22    H     0.63920   0.49440   0.37400   0.01267  Uiso   1.00
H23    H     0.58610   0.66660   0.41990   0.01267  Uiso   1.00
H24    H     0.41340   0.65460   0.48540   0.01267  Uiso   1.00
H25    H     0.49040   0.61920   0.56100   0.01267  Uiso   1.00
H26    H     0.91670   0.60860   0.50720   0.01267  Uiso   1.00
H27    H     0.59950   0.67920   0.27070   0.01267  Uiso   1.00
H28    H     0.66440   0.85940   0.28190   0.01267  Uiso   1.00
H29    H     0.31730   0.81720   0.38070   0.01267  Uiso   1.00
H30    H     0.25350   0.63720   0.36380   0.01267  Uiso   1.00
H31    H     0.75900   0.02100   0.30930   0.01267  Uiso   1.00
H32    H     0.81760   0.19880   0.32590   0.01267  Uiso   1.00
H33    H     0.41740   0.15920   0.39810   0.01267  Uiso   1.00
H34    H     0.34490   0.97720   0.38260   0.01267  Uiso   1.00
H35    H     0.30850   0.28320   0.21140   0.01267  Uiso   1.00
H36    H     0.20900   0.10520   0.18990   0.01267  Uiso   1.00
H37    H     0.08860   0.05640   0.32630   0.01267  Uiso   1.00
H38    H     0.18120   0.23640   0.34250   0.01267  Uiso   1.00
H39    H     0.55280   0.51020   0.88600   0.01267  Uiso   1.00
H40    H     0.69270   0.40120   0.86200   0.01267  Uiso   1.00
H41    H     0.85520   0.49440   0.87400   0.01267  Uiso   1.00
H42    H     0.08050   0.66660   0.91990   0.01267  Uiso   1.00
H43    H     0.24120   0.65460   0.98540   0.01267  Uiso   1.00
H44    H     0.12880   0.61920   0.06100   0.01267  Uiso   1.00
H45    H     0.69190   0.60860   0.00720   0.01267  Uiso   1.00
H46    H     0.07970   0.67920   0.77070   0.01267  Uiso   1.00
H47    H     0.19500   0.85940   0.78190   0.01267  Uiso   1.00
H48    H     0.49990   0.81720   0.88070   0.01267  Uiso   1.00
H49    H     0.38370   0.63720   0.86380   0.01267  Uiso   1.00
H50    H     0.26200   0.02100   0.80930   0.01267  Uiso   1.00
H51    H     0.38120   0.19880   0.82590   0.01267  Uiso   1.00
H52    H     0.74180   0.15920   0.89810   0.01267  Uiso   1.00
H53    H     0.63230   0.97720   0.88260   0.01267  Uiso   1.00
H54    H     0.97470   0.28320   0.71140   0.01267  Uiso   1.00
H55    H     0.89620   0.10520   0.68990   0.01267  Uiso   1.00
H56    H     0.96780   0.05640   0.82630   0.01267  Uiso   1.00
H57    H     0.05520   0.23640   0.84250   0.01267  Uiso   1.00
H58    H     0.04260   0.48980   0.61400   0.01267  Uiso   1.00
H59    H     0.29150   0.59880   0.63800   0.01267  Uiso   1.00
H60    H     0.36080   0.50560   0.62600   0.01267  Uiso   1.00
H61    H     0.41390   0.33340   0.58010   0.01267  Uiso   1.00
H62    H     0.58660   0.34540   0.51460   0.01267  Uiso   1.00
H63    H     0.50960   0.38080   0.43900   0.01267  Uiso   1.00
H64    H     0.08330   0.39140   0.49280   0.01267  Uiso   1.00
H65    H     0.40050   0.32080   0.72930   0.01267  Uiso   1.00
H66    H     0.33560   0.14060   0.71810   0.01267  Uiso   1.00
H67    H     0.68270   0.18280   0.61930   0.01267  Uiso   1.00
H68    H     0.74650   0.36280   0.63620   0.01267  Uiso   1.00
H69    H     0.24100   0.97900   0.69070   0.01267  Uiso   1.00
H70    H     0.18240   0.80120   0.67410   0.01267  Uiso   1.00
H71    H     0.58260   0.84080   0.60190   0.01267  Uiso   1.00
H72    H     0.65510   0.02280   0.61740   0.01267  Uiso   1.00
H73    H     0.69150   0.71680   0.78860   0.01267  Uiso   1.00
H74    H     0.79100   0.89480   0.81010   0.01267  Uiso   1.00
H75    H     0.91140   0.94360   0.67370   0.01267  Uiso   1.00
H76    H     0.81880   0.76360   0.65750   0.01267  Uiso   1.00
C1     C     0.22854   0.50728   0.19614   0.01267  Uiso   1.00
C2     C     0.25154   0.52388   0.14165   0.01267  Uiso   1.00
C3     C     0.12716   0.35912   0.04224   0.01267  Uiso   1.00
C4     C     0.96429   0.34678   0.04944   0.01267  Uiso   1.00
C5     C     0.86886   0.35452   0.01032   0.01267  Uiso   1.00
C6     C     0.93629   0.37578   0.96500   0.01267  Uiso   1.00
C7     C     0.10117   0.38974   0.95791   0.01267  Uiso   1.00
C8     C     0.19788   0.38176   0.99690   0.01267  Uiso   1.00
C9     C     0.17639   0.41438   0.90895   0.01267  Uiso   1.00
C10    C     0.83050   0.29300   0.20810   0.01267  Uiso   1.00
C11    C     0.76360   0.18400   0.20060   0.01267  Uiso   1.00
C12    C     0.63650   0.13880   0.16770   0.01267  Uiso   1.00
C13    C     0.58320   0.20860   0.14290   0.01267  Uiso   1.00
C14    C     0.65446   0.31752   0.15340   0.01267  Uiso   1.00
C15    C     0.56640   0.02180   0.15770   0.01267  Uiso   1.00
C16    C     0.63990   0.95340   0.17300   0.01267  Uiso   1.00
C17    C     0.56790   0.84580   0.16190   0.01267  Uiso   1.00
C18    C     0.35580   0.86940   0.11970   0.01267  Uiso   1.00
C19    C     0.42000   0.97840   0.12930   0.01267  Uiso   1.00
C20    C     0.02680   0.76280   0.26440   0.01267  Uiso   1.00
C21    C     0.07740   0.87100   0.27760   0.01267  Uiso   1.00
C22    C     0.08852   0.94204   0.24378   0.01267  Uiso   1.00
C23    C     0.03450   0.89980   0.19840   0.01267  Uiso   1.00
C24    C     0.98240   0.79040   0.18910   0.01267  Uiso   1.00
C25    C     0.72126   0.49272   0.30386   0.01267  Uiso   1.00
C26    C     0.72766   0.47612   0.35835   0.01267  Uiso   1.00
C27    C     0.76804   0.64088   0.45776   0.01267  Uiso   1.00
C28    C     0.61751   0.65322   0.45056   0.01267  Uiso   1.00
C29    C     0.51434   0.64548   0.48968   0.01267  Uiso   1.00
C30    C     0.56051   0.62422   0.53500   0.01267  Uiso   1.00
C31    C     0.71143   0.61026   0.54209   0.01267  Uiso   1.00
C32    C     0.81612   0.61824   0.50310   0.01267  Uiso   1.00
C33    C     0.76201   0.58562   0.59105   0.01267  Uiso   1.00
C34    C     0.53750   0.70700   0.29190   0.01267  Uiso   1.00
C35    C     0.57960   0.81600   0.29940   0.01267  Uiso   1.00
C36    C     0.49770   0.86120   0.33230   0.01267  Uiso   1.00
C37    C     0.37460   0.79140   0.35710   0.01267  Uiso   1.00
C38    C     0.33694   0.68248   0.34660   0.01267  Uiso   1.00
C39    C     0.54460   0.97820   0.34230   0.01267  Uiso   1.00
C40    C     0.68650   0.04660   0.32700   0.01267  Uiso   1.00
C41    C     0.72210   0.15420   0.33810   0.01267  Uiso   1.00
C42    C     0.48640   0.13060   0.38030   0.01267  Uiso   1.00
C43    C     0.44160   0.02160   0.37070   0.01267  Uiso   1.00
C44    C     0.26400   0.23720   0.23560   0.01267  Uiso   1.00
C45    C     0.20640   0.12900   0.22240   0.01267  Uiso   1.00
C46    C     0.14648   0.05796   0.25622   0.01267  Uiso   1.00
C47    C     0.13470   0.10020   0.30160   0.01267  Uiso   1.00
C48    C     0.19200   0.20960   0.31090   0.01267  Uiso   1.00
C49    C     0.77146   0.49272   0.80386   0.01267  Uiso   1.00
C50    C     0.74846   0.47612   0.85835   0.01267  Uiso   1.00
C51    C     0.87284   0.64088   0.95776   0.01267  Uiso   1.00
C52    C     0.03571   0.65322   0.95056   0.01267  Uiso   1.00
C53    C     0.13114   0.64548   0.98968   0.01267  Uiso   1.00
C54    C     0.06371   0.62422   0.03500   0.01267  Uiso   1.00
C55    C     0.89883   0.61026   0.04209   0.01267  Uiso   1.00
C56    C     0.80212   0.61824   0.00310   0.01267  Uiso   1.00
C57    C     0.82361   0.58562   0.09105   0.01267  Uiso   1.00
C58    C     0.16950   0.70700   0.79190   0.01267  Uiso   1.00
C59    C     0.23640   0.81600   0.79940   0.01267  Uiso   1.00
C60    C     0.36350   0.86120   0.83230   0.01267  Uiso   1.00
C61    C     0.41680   0.79140   0.85710   0.01267  Uiso   1.00
C62    C     0.34554   0.68248   0.84660   0.01267  Uiso   1.00
C63    C     0.43360   0.97820   0.84230   0.01267  Uiso   1.00
C64    C     0.36010   0.04660   0.82700   0.01267  Uiso   1.00
C65    C     0.43210   0.15420   0.83810   0.01267  Uiso   1.00
C66    C     0.64420   0.13060   0.88030   0.01267  Uiso   1.00
C67    C     0.58000   0.02160   0.87070   0.01267  Uiso   1.00
C68    C     0.97320   0.23720   0.73560   0.01267  Uiso   1.00
C69    C     0.92260   0.12900   0.72240   0.01267  Uiso   1.00
C70    C     0.91148   0.05796   0.75622   0.01267  Uiso   1.00
C71    C     0.96550   0.10020   0.80160   0.01267  Uiso   1.00
C72    C     0.01760   0.20960   0.81090   0.01267  Uiso   1.00
C73    C     0.27874   0.50728   0.69614   0.01267  Uiso   1.00
C74    C     0.27234   0.52388   0.64165   0.01267  Uiso   1.00
C75    C     0.23196   0.35912   0.54224   0.01267  Uiso   1.00
C76    C     0.38249   0.34678   0.54944   0.01267  Uiso   1.00
C77    C     0.48566   0.35452   0.51032   0.01267  Uiso   1.00
C78    C     0.43949   0.37578   0.46500   0.01267  Uiso   1.00
C79    C     0.28857   0.38974   0.45791   0.01267  Uiso   1.00
C80    C     0.18388   0.38176   0.49690   0.01267  Uiso   1.00
C81    C     0.23799   0.41438   0.40895   0.01267  Uiso   1.00
C82    C     0.46250   0.29300   0.70810   0.01267  Uiso   1.00
C83    C     0.42040   0.18400   0.70060   0.01267  Uiso   1.00
C84    C     0.50230   0.13880   0.66770   0.01267  Uiso   1.00
C85    C     0.62540   0.20860   0.64290   0.01267  Uiso   1.00
C86    C     0.66306   0.31752   0.65340   0.01267  Uiso   1.00
C87    C     0.45540   0.02180   0.65770   0.01267  Uiso   1.00
C88    C     0.31350   0.95340   0.67300   0.01267  Uiso   1.00
C89    C     0.27790   0.84580   0.66190   0.01267  Uiso   1.00
C90    C     0.51360   0.86940   0.61970   0.01267  Uiso   1.00
C91    C     0.55840   0.97840   0.62930   0.01267  Uiso   1.00
C92    C     0.73600   0.76280   0.76440   0.01267  Uiso   1.00
C93    C     0.79360   0.87100   0.77760   0.01267  Uiso   1.00
C94    C     0.85352   0.94204   0.74378   0.01267  Uiso   1.00
C95    C     0.86530   0.89980   0.69840   0.01267  Uiso   1.00
C96    C     0.80800   0.79040   0.68910   0.01267  Uiso   1.00
S1     S     0.25143   0.34582   0.09117   0.01267  Uiso   1.00
S2     S     0.90561   0.65418   0.40883   0.01267  Uiso   1.00
S3     S     0.74857   0.65418   0.90883   0.01267  Uiso   1.00
S4     S     0.09439   0.34582   0.59117   0.01267  Uiso   1.00
N1     N     0.34307   0.46274   0.11591   0.01267  Uiso   1.00
N2     N     0.77318   0.36056   0.18639   0.01267  Uiso   1.00
N3     N     0.43500   0.80140   0.13620   0.01267  Uiso   1.00
N4     N     0.98191   0.72222   0.22084   0.01267  Uiso   1.00
N5     N     0.88033   0.53726   0.38409   0.01267  Uiso   1.00
N6     N     0.41262   0.63944   0.31361   0.01267  Uiso   1.00
N7     N     0.63360   0.19860   0.36380   0.01267  Uiso   1.00
N8     N     0.25969   0.27778   0.27916   0.01267  Uiso   1.00
N9     N     0.65693   0.53726   0.88409   0.01267  Uiso   1.00
N10    N     0.22682   0.63944   0.81361   0.01267  Uiso   1.00
N11    N     0.56500   0.19860   0.86380   0.01267  Uiso   1.00
N12    N     0.01809   0.27778   0.77916   0.01267  Uiso   1.00
N13    N     0.11967   0.46274   0.61591   0.01267  Uiso   1.00
N14    N     0.58738   0.36056   0.68639   0.01267  Uiso   1.00
N15    N     0.36640   0.80140   0.63620   0.01267  Uiso   1.00
N16    N     0.74031   0.72222   0.72084   0.01267  Uiso   1.00
O1     O     0.11299   0.52958   0.21527   0.01267  Uiso   1.00
O2     O     0.33081   0.47822   0.21896   0.01267  Uiso   1.00
O3     O     0.14145   0.28750   0.12647   0.01267  Uiso   1.00
O4     O     0.37516   0.30692   0.07062   0.01267  Uiso   1.00
O5     O     0.32055   0.41470   0.90411   0.01267  Uiso   1.00
O6     O     0.09085   0.43250   0.87595   0.01267  Uiso   1.00
O7     O     0.58341   0.47042   0.28473   0.01267  Uiso   1.00
O8     O     0.85259   0.52178   0.28104   0.01267  Uiso   1.00
O9     O     0.85395   0.71250   0.37353   0.01267  Uiso   1.00
O10    O     0.06824   0.69308   0.42938   0.01267  Uiso   1.00
O11    O     0.90585   0.58530   0.59589   0.01267  Uiso   1.00
O12    O     0.65835   0.56750   0.62405   0.01267  Uiso   1.00
O13    O     0.88701   0.47042   0.78473   0.01267  Uiso   1.00
O14    O     0.66919   0.52178   0.78104   0.01267  Uiso   1.00
O15    O     0.85855   0.71250   0.87353   0.01267  Uiso   1.00
O16    O     0.62484   0.69308   0.92938   0.01267  Uiso   1.00
O17    O     0.67945   0.58530   0.09589   0.01267  Uiso   1.00
O18    O     0.90915   0.56750   0.12405   0.01267  Uiso   1.00
O19    O     0.41659   0.52958   0.71527   0.01267  Uiso   1.00
O20    O     0.14741   0.47822   0.71896   0.01267  Uiso   1.00
O21    O     0.14605   0.28750   0.62647   0.01267  Uiso   1.00
O22    O     0.93176   0.30692   0.57062   0.01267  Uiso   1.00
O23    O     0.09415   0.41470   0.40411   0.01267  Uiso   1.00
O24    O     0.34165   0.43250   0.37595   0.01267  Uiso   1.00
