data_RIXBIK_clean
_audit_creation_date              2014-07-02
_audit_creation_method            'Materials Studio'
_symmetry_space_group_name_H-M    'P1'
_symmetry_Int_Tables_number       1
_symmetry_cell_setting            triclinic
loop_
_symmetry_equiv_pos_as_xyz
  x,y,z
_cell_length_a                    8.7080
_cell_length_b                    11.6630
_cell_length_c                    27.2180
_cell_angle_alpha                 101.4850
_cell_angle_beta                  90.0000
_cell_angle_gamma                 90.0000
loop_
_atom_site_label
_atom_site_type_symbol
_atom_site_fract_x
_atom_site_fract_y
_atom_site_fract_z
_atom_site_U_iso_or_equiv
_atom_site_adp_type
_atom_site_occupancy
Mn1    Mn    0.36613   0.74615   0.80333   0.01267  Uiso   1.00
Mn2    Mn    0.86613   0.75385   0.69667   0.01267  Uiso   1.00
Mn3    Mn    0.63387   0.25385   0.19667   0.01267  Uiso   1.00
Mn4    Mn    0.13387   0.24615   0.30333   0.01267  Uiso   1.00
H1     H     0.95150   0.88840   0.88750   0.01267  Uiso   1.00
H2     H     0.74900   0.76820   0.87770   0.01267  Uiso   1.00
H3     H     0.64400   0.87390   0.87270   0.01267  Uiso   1.00
H4     H     0.86340   0.11260   0.99370   0.01267  Uiso   1.00
H5     H     0.43350   0.19020   0.04140   0.01267  Uiso   1.00
H6     H     0.34590   0.14950   0.95990   0.01267  Uiso   1.00
H7     H     0.52060   0.09130   0.89420   0.01267  Uiso   1.00
H8     H     0.53660   0.94050   0.75450   0.01267  Uiso   1.00
H9     H     0.54170   0.13460   0.75300   0.01267  Uiso   1.00
H10    H     0.18850   0.17900   0.84840   0.01267  Uiso   1.00
H11    H     0.19110   0.98120   0.84520   0.01267  Uiso   1.00
H12    H     0.46010   0.30630   0.73350   0.01267  Uiso   1.00
H13    H     0.46210   0.50360   0.73860   0.01267  Uiso   1.00
H14    H     0.28340   0.55820   0.87060   0.01267  Uiso   1.00
H15    H     0.27250   0.36310   0.86980   0.01267  Uiso   1.00
H16    H     0.45150   0.61160   0.61250   0.01267  Uiso   1.00
H17    H     0.24900   0.73180   0.62230   0.01267  Uiso   1.00
H18    H     0.14400   0.62610   0.62730   0.01267  Uiso   1.00
H19    H     0.36340   0.38740   0.50630   0.01267  Uiso   1.00
H20    H     0.93350   0.30980   0.45860   0.01267  Uiso   1.00
H21    H     0.84590   0.35050   0.54010   0.01267  Uiso   1.00
H22    H     0.02060   0.40870   0.60580   0.01267  Uiso   1.00
H23    H     0.03660   0.55950   0.74550   0.01267  Uiso   1.00
H24    H     0.04170   0.36540   0.74700   0.01267  Uiso   1.00
H25    H     0.68850   0.32100   0.65160   0.01267  Uiso   1.00
H26    H     0.69110   0.51880   0.65480   0.01267  Uiso   1.00
H27    H     0.96010   0.19370   0.76650   0.01267  Uiso   1.00
H28    H     0.96210   0.99640   0.76140   0.01267  Uiso   1.00
H29    H     0.78340   0.94180   0.62940   0.01267  Uiso   1.00
H30    H     0.77250   0.13690   0.63020   0.01267  Uiso   1.00
H31    H     0.04850   0.11160   0.11250   0.01267  Uiso   1.00
H32    H     0.25100   0.23180   0.12230   0.01267  Uiso   1.00
H33    H     0.35600   0.12610   0.12730   0.01267  Uiso   1.00
H34    H     0.13660   0.88740   0.00630   0.01267  Uiso   1.00
H35    H     0.56650   0.80980   0.95860   0.01267  Uiso   1.00
H36    H     0.65410   0.85050   0.04010   0.01267  Uiso   1.00
H37    H     0.47940   0.90870   0.10580   0.01267  Uiso   1.00
H38    H     0.46340   0.05950   0.24550   0.01267  Uiso   1.00
H39    H     0.45830   0.86540   0.24700   0.01267  Uiso   1.00
H40    H     0.81150   0.82100   0.15160   0.01267  Uiso   1.00
H41    H     0.80890   0.01880   0.15480   0.01267  Uiso   1.00
H42    H     0.53990   0.69370   0.26650   0.01267  Uiso   1.00
H43    H     0.53790   0.49640   0.26140   0.01267  Uiso   1.00
H44    H     0.71660   0.44180   0.12940   0.01267  Uiso   1.00
H45    H     0.72750   0.63690   0.13020   0.01267  Uiso   1.00
H46    H     0.54850   0.38840   0.38750   0.01267  Uiso   1.00
H47    H     0.75100   0.26820   0.37770   0.01267  Uiso   1.00
H48    H     0.85600   0.37390   0.37270   0.01267  Uiso   1.00
H49    H     0.63660   0.61260   0.49370   0.01267  Uiso   1.00
H50    H     0.06650   0.69020   0.54140   0.01267  Uiso   1.00
H51    H     0.15410   0.64950   0.45990   0.01267  Uiso   1.00
H52    H     0.97940   0.59130   0.39420   0.01267  Uiso   1.00
H53    H     0.96340   0.44050   0.25450   0.01267  Uiso   1.00
H54    H     0.95830   0.63460   0.25300   0.01267  Uiso   1.00
H55    H     0.31150   0.67900   0.34840   0.01267  Uiso   1.00
H56    H     0.30890   0.48120   0.34520   0.01267  Uiso   1.00
H57    H     0.03990   0.80630   0.23350   0.01267  Uiso   1.00
H58    H     0.03790   0.00360   0.23860   0.01267  Uiso   1.00
H59    H     0.21660   0.05820   0.37060   0.01267  Uiso   1.00
H60    H     0.22750   0.86310   0.36980   0.01267  Uiso   1.00
C1     C     0.73250   0.79110   0.80532   0.01267  Uiso   1.00
C2     C     0.74050   0.83550   0.86190   0.01267  Uiso   1.00
C3     C     0.70690   0.09670   0.93810   0.01267  Uiso   1.00
C4     C     0.75960   0.12050   0.98710   0.01267  Uiso   1.00
C5     C     0.65730   0.15620   0.02610   0.01267  Uiso   1.00
C6     C     0.50260   0.16660   0.01530   0.01267  Uiso   1.00
C7     C     0.44990   0.14250   0.96670   0.01267  Uiso   1.00
C8     C     0.55440   0.10730   0.92720   0.01267  Uiso   1.00
C9     C     0.71450   0.18590   0.07950   0.01267  Uiso   1.00
C10    C     0.46470   0.98930   0.77350   0.01267  Uiso   1.00
C11    C     0.46900   0.10590   0.77240   0.01267  Uiso   1.00
C12    C     0.36460   0.18090   0.80050   0.01267  Uiso   1.00
C13    C     0.26030   0.13210   0.82850   0.01267  Uiso   1.00
C14    C     0.26370   0.01290   0.82660   0.01267  Uiso   1.00
C15    C     0.36810   0.30880   0.80210   0.01267  Uiso   1.00
C16    C     0.42380   0.35550   0.76230   0.01267  Uiso   1.00
C17    C     0.42480   0.47500   0.76580   0.01267  Uiso   1.00
C18    C     0.32050   0.50660   0.84260   0.01267  Uiso   1.00
C19    C     0.31390   0.38890   0.84240   0.01267  Uiso   1.00
C20    C     0.23250   0.70890   0.69468   0.01267  Uiso   1.00
C21    C     0.24050   0.66450   0.63810   0.01267  Uiso   1.00
C22    C     0.20690   0.40330   0.56190   0.01267  Uiso   1.00
C23    C     0.25960   0.37950   0.51290   0.01267  Uiso   1.00
C24    C     0.15730   0.34380   0.47390   0.01267  Uiso   1.00
C25    C     0.00260   0.33340   0.48470   0.01267  Uiso   1.00
C26    C     0.94990   0.35750   0.53330   0.01267  Uiso   1.00
C27    C     0.05440   0.39270   0.57280   0.01267  Uiso   1.00
C28    C     0.21450   0.31410   0.42050   0.01267  Uiso   1.00
C29    C     0.96470   0.51070   0.72650   0.01267  Uiso   1.00
C30    C     0.96900   0.39410   0.72760   0.01267  Uiso   1.00
C31    C     0.86460   0.31910   0.69950   0.01267  Uiso   1.00
C32    C     0.76030   0.36790   0.67150   0.01267  Uiso   1.00
C33    C     0.76370   0.48710   0.67340   0.01267  Uiso   1.00
C34    C     0.86810   0.19120   0.69790   0.01267  Uiso   1.00
C35    C     0.92380   0.14450   0.73770   0.01267  Uiso   1.00
C36    C     0.92480   0.02500   0.73420   0.01267  Uiso   1.00
C37    C     0.82050   0.99340   0.65740   0.01267  Uiso   1.00
C38    C     0.81390   0.11110   0.65760   0.01267  Uiso   1.00
C39    C     0.26750   0.20890   0.19468   0.01267  Uiso   1.00
C40    C     0.25950   0.16450   0.13810   0.01267  Uiso   1.00
C41    C     0.29310   0.90330   0.06190   0.01267  Uiso   1.00
C42    C     0.24040   0.87950   0.01290   0.01267  Uiso   1.00
C43    C     0.34270   0.84380   0.97390   0.01267  Uiso   1.00
C44    C     0.49740   0.83340   0.98470   0.01267  Uiso   1.00
C45    C     0.55010   0.85750   0.03330   0.01267  Uiso   1.00
C46    C     0.44560   0.89270   0.07280   0.01267  Uiso   1.00
C47    C     0.28550   0.81410   0.92050   0.01267  Uiso   1.00
C48    C     0.53530   0.01070   0.22650   0.01267  Uiso   1.00
C49    C     0.53100   0.89410   0.22760   0.01267  Uiso   1.00
C50    C     0.63540   0.81910   0.19950   0.01267  Uiso   1.00
C51    C     0.73970   0.86790   0.17150   0.01267  Uiso   1.00
C52    C     0.73630   0.98710   0.17340   0.01267  Uiso   1.00
C53    C     0.63190   0.69120   0.19790   0.01267  Uiso   1.00
C54    C     0.57620   0.64450   0.23770   0.01267  Uiso   1.00
C55    C     0.57520   0.52500   0.23420   0.01267  Uiso   1.00
C56    C     0.67950   0.49340   0.15740   0.01267  Uiso   1.00
C57    C     0.68610   0.61110   0.15760   0.01267  Uiso   1.00
C58    C     0.76750   0.29110   0.30532   0.01267  Uiso   1.00
C59    C     0.75950   0.33550   0.36190   0.01267  Uiso   1.00
C60    C     0.79310   0.59670   0.43810   0.01267  Uiso   1.00
C61    C     0.74040   0.62050   0.48710   0.01267  Uiso   1.00
C62    C     0.84270   0.65620   0.52610   0.01267  Uiso   1.00
C63    C     0.99740   0.66660   0.51530   0.01267  Uiso   1.00
C64    C     0.05010   0.64250   0.46670   0.01267  Uiso   1.00
C65    C     0.94560   0.60730   0.42720   0.01267  Uiso   1.00
C66    C     0.78550   0.68590   0.57950   0.01267  Uiso   1.00
C67    C     0.03530   0.48930   0.27350   0.01267  Uiso   1.00
C68    C     0.03100   0.60590   0.27240   0.01267  Uiso   1.00
C69    C     0.13540   0.68090   0.30050   0.01267  Uiso   1.00
C70    C     0.23970   0.63210   0.32850   0.01267  Uiso   1.00
C71    C     0.23630   0.51290   0.32660   0.01267  Uiso   1.00
C72    C     0.13190   0.80880   0.30210   0.01267  Uiso   1.00
C73    C     0.07620   0.85550   0.26230   0.01267  Uiso   1.00
C74    C     0.07520   0.97500   0.26580   0.01267  Uiso   1.00
C75    C     0.17950   0.00660   0.34260   0.01267  Uiso   1.00
C76    C     0.18610   0.88890   0.34240   0.01267  Uiso   1.00
S1     S     0.83990   0.05436   0.88841   0.01267  Uiso   1.00
S2     S     0.33990   0.44564   0.61159   0.01267  Uiso   1.00
S3     S     0.16010   0.94564   0.11159   0.01267  Uiso   1.00
S4     S     0.66010   0.55436   0.38841   0.01267  Uiso   1.00
N1     N     0.86410   0.91560   0.88054   0.01267  Uiso   1.00
N2     N     0.36380   0.94140   0.80006   0.01267  Uiso   1.00
N3     N     0.37690   0.55130   0.80497   0.01267  Uiso   1.00
N4     N     0.36410   0.58440   0.61946   0.01267  Uiso   1.00
N5     N     0.86380   0.55860   0.69994   0.01267  Uiso   1.00
N6     N     0.87690   0.94870   0.69503   0.01267  Uiso   1.00
N7     N     0.13590   0.08440   0.11946   0.01267  Uiso   1.00
N8     N     0.63620   0.05860   0.19994   0.01267  Uiso   1.00
N9     N     0.62310   0.44870   0.19503   0.01267  Uiso   1.00
N10    N     0.63590   0.41560   0.38054   0.01267  Uiso   1.00
N11    N     0.13620   0.44140   0.30006   0.01267  Uiso   1.00
N12    N     0.12310   0.05130   0.30497   0.01267  Uiso   1.00
O1     O     0.60910   0.74360   0.78907   0.01267  Uiso   1.00
O2     O     0.84690   0.80110   0.77880   0.01267  Uiso   1.00
O3     O     0.76900   0.07770   0.84410   0.01267  Uiso   1.00
O4     O     0.98450   0.10630   0.90502   0.01267  Uiso   1.00
O5     O     0.85830   0.19180   0.08516   0.01267  Uiso   1.00
O6     O     0.61850   0.20810   0.11403   0.01267  Uiso   1.00
O7     O     0.10910   0.75640   0.71093   0.01267  Uiso   1.00
O8     O     0.34690   0.69890   0.72120   0.01267  Uiso   1.00
O9     O     0.26900   0.42230   0.65590   0.01267  Uiso   1.00
O10    O     0.48450   0.39370   0.59498   0.01267  Uiso   1.00
O11    O     0.35830   0.30820   0.41484   0.01267  Uiso   1.00
O12    O     0.11850   0.29190   0.38597   0.01267  Uiso   1.00
O13    O     0.39090   0.25640   0.21093   0.01267  Uiso   1.00
O14    O     0.15310   0.19890   0.22120   0.01267  Uiso   1.00
O15    O     0.23100   0.92230   0.15590   0.01267  Uiso   1.00
O16    O     0.01550   0.89370   0.09498   0.01267  Uiso   1.00
O17    O     0.14170   0.80820   0.91484   0.01267  Uiso   1.00
O18    O     0.38150   0.79190   0.88597   0.01267  Uiso   1.00
O19    O     0.89090   0.24360   0.28907   0.01267  Uiso   1.00
O20    O     0.65310   0.30110   0.27880   0.01267  Uiso   1.00
O21    O     0.73100   0.57770   0.34410   0.01267  Uiso   1.00
O22    O     0.51550   0.60630   0.40502   0.01267  Uiso   1.00
O23    O     0.64170   0.69180   0.58516   0.01267  Uiso   1.00
O24    O     0.88150   0.70810   0.61403   0.01267  Uiso   1.00
