data_image0
_cell_length_a       23.112
_cell_length_b       6.9534
_cell_length_c       22.638
_cell_angle_alpha    90
_cell_angle_beta     90
_cell_angle_gamma    90

_symmetry_space_group_name_H-M    "P 1"
_symmetry_int_tables_number       1

loop_
  _symmetry_equiv_pos_as_xyz
  'x, y, z'

loop_
  _atom_site_label
  _atom_site_occupancy
  _atom_site_fract_x
  _atom_site_fract_y
  _atom_site_fract_z
  _atom_site_thermal_displace_type
  _atom_site_B_iso_or_equiv
  _atom_site_type_symbol
  Ca1      1.0000 0.46847  0.93570  0.50113  Biso   1.000  Ca
  Ca2      1.0000 0.45707  0.56320  0.99093  Biso   1.000  Ca
  P1       1.0000 0.41484  0.43750  0.52588  Biso   1.000  P
  P2       1.0000 0.46557  0.91840  0.34265  Biso   1.000  P
  P3       1.0000 0.40479  0.06400  0.96294  Biso   1.000  P
  O1       1.0000 0.45130  0.61190  0.51480  Biso   1.000  O
  O2       1.0000 0.45080  0.25860  0.51350  Biso   1.000  O
  O3       1.0000 0.39110  0.44290  0.59080  Biso   1.000  O
  H1       1.0000 0.38030  0.33220  0.60080  Biso   1.000  H
  O4       1.0000 0.35070  0.30270  0.30160  Biso   1.000  O
  H2       1.0000 0.34660  0.26150  0.26690  Biso   1.000  H
  O5       1.0000 0.25300  0.31790  0.29680  Biso   1.000  O
  O6       1.0000 0.19080  0.58170  0.55680  Biso   1.000  O
  H3       1.0000 0.15690  0.59490  0.56940  Biso   1.000  H
  O7       1.0000 0.14510  0.56150  0.46930  Biso   1.000  O
  O8       1.0000 0.43410  0.91360  0.40160  Biso   1.000  O
  O9       1.0000 0.52340  0.81090  0.33990  Biso   1.000  O
  O10      1.0000 0.47400  0.13610  0.32870  Biso   1.000  O
  H4       1.0000 0.47630  0.15150  0.29190  Biso   1.000  H
  O11      1.0000 0.41610  0.58660  0.08700  Biso   1.000  O
  O12      1.0000 0.48230  0.46280  0.14660  Biso   1.000  O
  O13      1.0000 0.23940  0.81890  0.30030  Biso   1.000  O
  H5       1.0000 0.20310  0.81130  0.30060  Biso   1.000  H
  O14      1.0000 0.23010  0.68520  0.20910  Biso   1.000  O
  O15      1.0000 0.44000  0.23460  0.98090  Biso   1.000  O
  O16      1.0000 0.44150  0.88390  0.97320  Biso   1.000  O
  O17      1.0000 0.38320  0.07740  0.89740  Biso   1.000  O
  H6       1.0000 0.41000  0.12030  0.87600  Biso   1.000  H
  O18      1.0000 0.24500  0.17320  0.18980  Biso   1.000  O
  H7       1.0000 0.24950  0.15600  0.22620  Biso   1.000  H
  O19      1.0000 0.34210  0.20570  0.18640  Biso   1.000  O
  O20      1.0000 0.17620  0.92610  0.93230  Biso   1.000  O
  H8       1.0000 0.14160  0.91600  0.92130  Biso   1.000  H
  O21      1.0000 0.13460  0.95080  0.02140  Biso   1.000  O
  C1       1.0000 0.34970  0.44020  0.48130  Biso   1.000  C
  C2       1.0000 0.35180  0.39210  0.42140  Biso   1.000  C
  H9       1.0000 0.38730  0.35500  0.40380  Biso   1.000  H
  C3       1.0000 0.30100  0.39870  0.38750  Biso   1.000  C
  C4       1.0000 0.30050  0.33800  0.32420  Biso   1.000  C
  C5       1.0000 0.24850  0.45000  0.41360  Biso   1.000  C
  H10      1.0000 0.21410  0.45090  0.39060  Biso   1.000  H
  C6       1.0000 0.24620  0.49980  0.47290  Biso   1.000  C
  C7       1.0000 0.18960  0.55170  0.49890  Biso   1.000  C
  C8       1.0000 0.29750  0.49600  0.50620  Biso   1.000  C
  H11      1.0000 0.29640  0.53260  0.54660  Biso   1.000  H
  C9       1.0000 0.41930  0.81900  0.28580  Biso   1.000  C
  C10      1.0000 0.44410  0.73600  0.23600  Biso   1.000  C
  H12      1.0000 0.48510  0.72950  0.23280  Biso   1.000  H
  C11      1.0000 0.41040  0.66300  0.19150  Biso   1.000  C
  C12      1.0000 0.44160  0.56900  0.13840  Biso   1.000  C
  C13      1.0000 0.35080  0.67290  0.19460  Biso   1.000  C
  H13      1.0000 0.32750  0.62650  0.16310  Biso   1.000  H
  C14      1.0000 0.32450  0.75600  0.24680  Biso   1.000  C
  C15      1.0000 0.25960  0.74800  0.24980  Biso   1.000  C
  C16      1.0000 0.35940  0.82500  0.29030  Biso   1.000  C
  H14      1.0000 0.34230  0.87740  0.32490  Biso   1.000  H
  C17      1.0000 0.33930  0.05410  0.00470  Biso   1.000  C
  C18      1.0000 0.34120  0.09810  0.06450  Biso   1.000  C
  H15      1.0000 0.37760  0.12760  0.08180  Biso   1.000  H
  C19      1.0000 0.29200  0.10100  0.10010  Biso   1.000  C
  C20      1.0000 0.29540  0.16600  0.16320  Biso   1.000  C
  C21      1.0000 0.23930  0.04890  0.07490  Biso   1.000  C
  H16      1.0000 0.20540  0.04600  0.09870  Biso   1.000  H
  C22      1.0000 0.23560  0.00080  0.01480  Biso   1.000  C
  C23      1.0000 0.17790  0.95730  0.99130  Biso   1.000  C
  C24      1.0000 0.28590  0.00750  0.98030  Biso   1.000  C
  H17      1.0000 0.28340  0.97950  0.93930  Biso   1.000  H
  Ca3      1.0000 0.53153  0.06430  0.00113  Biso   1.000  Ca
  Ca4      1.0000 0.54293  0.43680  0.49093  Biso   1.000  Ca
  P4       1.0000 0.58516  0.56250  0.02588  Biso   1.000  P
  P5       1.0000 0.53443  0.08160  0.84265  Biso   1.000  P
  P6       1.0000 0.59521  0.93600  0.46294  Biso   1.000  P
  O22      1.0000 0.54870  0.38810  0.01480  Biso   1.000  O
  O23      1.0000 0.54920  0.74140  0.01350  Biso   1.000  O
  O24      1.0000 0.60890  0.55710  0.09080  Biso   1.000  O
  H18      1.0000 0.61970  0.66780  0.10080  Biso   1.000  H
  O25      1.0000 0.64930  0.69730  0.80160  Biso   1.000  O
  H19      1.0000 0.65340  0.73850  0.76690  Biso   1.000  H
  O26      1.0000 0.74700  0.68210  0.79680  Biso   1.000  O
  O27      1.0000 0.80920  0.41830  0.05680  Biso   1.000  O
  H20      1.0000 0.84310  0.40510  0.06940  Biso   1.000  H
  O28      1.0000 0.85490  0.43850  0.96930  Biso   1.000  O
  O29      1.0000 0.56590  0.08640  0.90160  Biso   1.000  O
  O30      1.0000 0.47660  0.18910  0.83990  Biso   1.000  O
  O31      1.0000 0.52600  0.86390  0.82870  Biso   1.000  O
  H21      1.0000 0.52370  0.84850  0.79190  Biso   1.000  H
  O32      1.0000 0.58390  0.41340  0.58700  Biso   1.000  O
  O33      1.0000 0.51770  0.53720  0.64660  Biso   1.000  O
  O34      1.0000 0.76060  0.18110  0.80030  Biso   1.000  O
  H22      1.0000 0.79690  0.18870  0.80060  Biso   1.000  H
  O35      1.0000 0.76990  0.31480  0.70910  Biso   1.000  O
  O36      1.0000 0.56000  0.76540  0.48090  Biso   1.000  O
  O37      1.0000 0.55850  0.11610  0.47320  Biso   1.000  O
  O38      1.0000 0.61680  0.92260  0.39740  Biso   1.000  O
  H23      1.0000 0.59000  0.87970  0.37600  Biso   1.000  H
  O39      1.0000 0.75500  0.82680  0.68980  Biso   1.000  O
  H24      1.0000 0.75050  0.84400  0.72620  Biso   1.000  H
  O40      1.0000 0.65790  0.79430  0.68640  Biso   1.000  O
  O41      1.0000 0.82380  0.07390  0.43230  Biso   1.000  O
  H25      1.0000 0.85840  0.08400  0.42130  Biso   1.000  H
  O42      1.0000 0.86540  0.04920  0.52140  Biso   1.000  O
  C25      1.0000 0.65030  0.55980  0.98130  Biso   1.000  C
  C26      1.0000 0.64820  0.60790  0.92140  Biso   1.000  C
  H26      1.0000 0.61270  0.64500  0.90380  Biso   1.000  H
  C27      1.0000 0.69900  0.60130  0.88750  Biso   1.000  C
  C28      1.0000 0.69950  0.66200  0.82420  Biso   1.000  C
  C29      1.0000 0.75150  0.55000  0.91360  Biso   1.000  C
  H27      1.0000 0.78590  0.54910  0.89060  Biso   1.000  H
  C30      1.0000 0.75380  0.50020  0.97290  Biso   1.000  C
  C31      1.0000 0.81040  0.44830  0.99890  Biso   1.000  C
  C32      1.0000 0.70250  0.50400  0.00620  Biso   1.000  C
  H28      1.0000 0.70360  0.46740  0.04660  Biso   1.000  H
  C33      1.0000 0.58070  0.18100  0.78580  Biso   1.000  C
  C34      1.0000 0.55590  0.26400  0.73600  Biso   1.000  C
  H29      1.0000 0.51490  0.27050  0.73280  Biso   1.000  H
  C35      1.0000 0.58960  0.33700  0.69150  Biso   1.000  C
  C36      1.0000 0.55840  0.43100  0.63840  Biso   1.000  C
  C37      1.0000 0.64920  0.32710  0.69460  Biso   1.000  C
  H30      1.0000 0.67250  0.37350  0.66310  Biso   1.000  H
  C38      1.0000 0.67550  0.24400  0.74680  Biso   1.000  C
  C39      1.0000 0.74040  0.25200  0.74980  Biso   1.000  C
  C40      1.0000 0.64060  0.17500  0.79030  Biso   1.000  C
  H31      1.0000 0.65770  0.12260  0.82490  Biso   1.000  H
  C41      1.0000 0.66070  0.94590  0.50470  Biso   1.000  C
  C42      1.0000 0.65880  0.90190  0.56450  Biso   1.000  C
  H32      1.0000 0.62240  0.87240  0.58180  Biso   1.000  H
  C43      1.0000 0.70800  0.89900  0.60010  Biso   1.000  C
  C44      1.0000 0.70460  0.83400  0.66320  Biso   1.000  C
  C45      1.0000 0.76070  0.95110  0.57490  Biso   1.000  C
  H33      1.0000 0.79460  0.95400  0.59870  Biso   1.000  H
  C46      1.0000 0.76440  0.99920  0.51480  Biso   1.000  C
  C47      1.0000 0.82210  0.04270  0.49130  Biso   1.000  C
  C48      1.0000 0.71410  0.99250  0.48030  Biso   1.000  C
  H34      1.0000 0.71660  0.02050  0.43930  Biso   1.000  H
  Ca5      1.0000 0.96847  0.06430  0.50113  Biso   1.000  Ca
  Ca6      1.0000 0.95707  0.43680  0.99093  Biso   1.000  Ca
  P7       1.0000 0.91484  0.56250  0.52588  Biso   1.000  P
  P8       1.0000 0.96557  0.08160  0.34265  Biso   1.000  P
  P9       1.0000 0.90479  0.93600  0.96294  Biso   1.000  P
  O43      1.0000 0.95130  0.38810  0.51480  Biso   1.000  O
  O44      1.0000 0.95080  0.74140  0.51350  Biso   1.000  O
  O45      1.0000 0.89110  0.55710  0.59080  Biso   1.000  O
  H35      1.0000 0.88030  0.66780  0.60080  Biso   1.000  H
  O46      1.0000 0.85070  0.69730  0.30160  Biso   1.000  O
  H36      1.0000 0.84660  0.73850  0.26690  Biso   1.000  H
  O47      1.0000 0.75300  0.68210  0.29680  Biso   1.000  O
  O48      1.0000 0.69080  0.41830  0.55680  Biso   1.000  O
  H37      1.0000 0.65690  0.40510  0.56940  Biso   1.000  H
  O49      1.0000 0.64510  0.43850  0.46930  Biso   1.000  O
  O50      1.0000 0.93410  0.08640  0.40160  Biso   1.000  O
  O51      1.0000 0.02340  0.18910  0.33990  Biso   1.000  O
  O52      1.0000 0.97400  0.86390  0.32870  Biso   1.000  O
  H38      1.0000 0.97630  0.84850  0.29190  Biso   1.000  H
  O53      1.0000 0.91610  0.41340  0.08700  Biso   1.000  O
  O54      1.0000 0.98230  0.53720  0.14660  Biso   1.000  O
  O55      1.0000 0.73940  0.18110  0.30030  Biso   1.000  O
  H39      1.0000 0.70310  0.18870  0.30060  Biso   1.000  H
  O56      1.0000 0.73010  0.31480  0.20910  Biso   1.000  O
  O57      1.0000 0.94000  0.76540  0.98090  Biso   1.000  O
  O58      1.0000 0.94150  0.11610  0.97320  Biso   1.000  O
  O59      1.0000 0.88320  0.92260  0.89740  Biso   1.000  O
  H40      1.0000 0.91000  0.87970  0.87600  Biso   1.000  H
  O60      1.0000 0.74500  0.82680  0.18980  Biso   1.000  O
  H41      1.0000 0.74950  0.84400  0.22620  Biso   1.000  H
  O61      1.0000 0.84210  0.79430  0.18640  Biso   1.000  O
  O62      1.0000 0.67620  0.07390  0.93230  Biso   1.000  O
  H42      1.0000 0.64160  0.08400  0.92130  Biso   1.000  H
  O63      1.0000 0.63460  0.04920  0.02140  Biso   1.000  O
  C49      1.0000 0.84970  0.55980  0.48130  Biso   1.000  C
  C50      1.0000 0.85180  0.60790  0.42140  Biso   1.000  C
  H43      1.0000 0.88730  0.64500  0.40380  Biso   1.000  H
  C51      1.0000 0.80100  0.60130  0.38750  Biso   1.000  C
  C52      1.0000 0.80050  0.66200  0.32420  Biso   1.000  C
  C53      1.0000 0.74850  0.55000  0.41360  Biso   1.000  C
  H44      1.0000 0.71410  0.54910  0.39060  Biso   1.000  H
  C54      1.0000 0.74620  0.50020  0.47290  Biso   1.000  C
  C55      1.0000 0.68960  0.44830  0.49890  Biso   1.000  C
  C56      1.0000 0.79750  0.50400  0.50620  Biso   1.000  C
  H45      1.0000 0.79640  0.46740  0.54660  Biso   1.000  H
  C57      1.0000 0.91930  0.18100  0.28580  Biso   1.000  C
  C58      1.0000 0.94410  0.26400  0.23600  Biso   1.000  C
  H46      1.0000 0.98510  0.27050  0.23280  Biso   1.000  H
  C59      1.0000 0.91040  0.33700  0.19150  Biso   1.000  C
  C60      1.0000 0.94160  0.43100  0.13840  Biso   1.000  C
  C61      1.0000 0.85080  0.32710  0.19460  Biso   1.000  C
  H47      1.0000 0.82750  0.37350  0.16310  Biso   1.000  H
  C62      1.0000 0.82450  0.24400  0.24680  Biso   1.000  C
  C63      1.0000 0.75960  0.25200  0.24980  Biso   1.000  C
  C64      1.0000 0.85940  0.17500  0.29030  Biso   1.000  C
  H48      1.0000 0.84230  0.12260  0.32490  Biso   1.000  H
  C65      1.0000 0.83930  0.94590  0.00470  Biso   1.000  C
  C66      1.0000 0.84120  0.90190  0.06450  Biso   1.000  C
  H49      1.0000 0.87760  0.87240  0.08180  Biso   1.000  H
  C67      1.0000 0.79200  0.89900  0.10010  Biso   1.000  C
  C68      1.0000 0.79540  0.83400  0.16320  Biso   1.000  C
  C69      1.0000 0.73930  0.95110  0.07490  Biso   1.000  C
  H50      1.0000 0.70540  0.95400  0.09870  Biso   1.000  H
  C70      1.0000 0.73560  0.99920  0.01480  Biso   1.000  C
  C71      1.0000 0.67790  0.04270  0.99130  Biso   1.000  C
  C72      1.0000 0.78590  0.99250  0.98030  Biso   1.000  C
  H51      1.0000 0.78340  0.02050  0.93930  Biso   1.000  H
  Ca7      1.0000 0.03153  0.93570  0.00113  Biso   1.000  Ca
  Ca8      1.0000 0.04293  0.56320  0.49093  Biso   1.000  Ca
  P10      1.0000 0.08516  0.43750  0.02588  Biso   1.000  P
  P11      1.0000 0.03443  0.91840  0.84265  Biso   1.000  P
  P12      1.0000 0.09521  0.06400  0.46294  Biso   1.000  P
  O64      1.0000 0.04870  0.61190  0.01480  Biso   1.000  O
  O65      1.0000 0.04920  0.25860  0.01350  Biso   1.000  O
  O66      1.0000 0.10890  0.44290  0.09080  Biso   1.000  O
  H52      1.0000 0.11970  0.33220  0.10080  Biso   1.000  H
  O67      1.0000 0.14930  0.30270  0.80160  Biso   1.000  O
  H53      1.0000 0.15340  0.26150  0.76690  Biso   1.000  H
  O68      1.0000 0.24700  0.31790  0.79680  Biso   1.000  O
  O69      1.0000 0.30920  0.58170  0.05680  Biso   1.000  O
  H54      1.0000 0.34310  0.59490  0.06940  Biso   1.000  H
  O70      1.0000 0.35490  0.56150  0.96930  Biso   1.000  O
  O71      1.0000 0.06590  0.91360  0.90160  Biso   1.000  O
  O72      1.0000 0.97660  0.81090  0.83990  Biso   1.000  O
  O73      1.0000 0.02600  0.13610  0.82870  Biso   1.000  O
  H55      1.0000 0.02370  0.15150  0.79190  Biso   1.000  H
  O74      1.0000 0.08390  0.58660  0.58700  Biso   1.000  O
  O75      1.0000 0.01770  0.46280  0.64660  Biso   1.000  O
  O76      1.0000 0.26060  0.81890  0.80030  Biso   1.000  O
  H56      1.0000 0.29690  0.81130  0.80060  Biso   1.000  H
  O77      1.0000 0.26990  0.68520  0.70910  Biso   1.000  O
  O78      1.0000 0.06000  0.23460  0.48090  Biso   1.000  O
  O79      1.0000 0.05850  0.88390  0.47320  Biso   1.000  O
  O80      1.0000 0.11680  0.07740  0.39740  Biso   1.000  O
  H57      1.0000 0.09000  0.12030  0.37600  Biso   1.000  H
  O81      1.0000 0.25500  0.17320  0.68980  Biso   1.000  O
  H58      1.0000 0.25050  0.15600  0.72620  Biso   1.000  H
  O82      1.0000 0.15790  0.20570  0.68640  Biso   1.000  O
  O83      1.0000 0.32380  0.92610  0.43230  Biso   1.000  O
  H59      1.0000 0.35840  0.91600  0.42130  Biso   1.000  H
  O84      1.0000 0.36540  0.95080  0.52140  Biso   1.000  O
  C73      1.0000 0.15030  0.44020  0.98130  Biso   1.000  C
  C74      1.0000 0.14820  0.39210  0.92140  Biso   1.000  C
  H60      1.0000 0.11270  0.35500  0.90380  Biso   1.000  H
  C75      1.0000 0.19900  0.39870  0.88750  Biso   1.000  C
  C76      1.0000 0.19950  0.33800  0.82420  Biso   1.000  C
  C77      1.0000 0.25150  0.45000  0.91360  Biso   1.000  C
  H61      1.0000 0.28590  0.45090  0.89060  Biso   1.000  H
  C78      1.0000 0.25380  0.49980  0.97290  Biso   1.000  C
  C79      1.0000 0.31040  0.55170  0.99890  Biso   1.000  C
  C80      1.0000 0.20250  0.49600  0.00620  Biso   1.000  C
  H62      1.0000 0.20360  0.53260  0.04660  Biso   1.000  H
  C81      1.0000 0.08070  0.81900  0.78580  Biso   1.000  C
  C82      1.0000 0.05590  0.73600  0.73600  Biso   1.000  C
  H63      1.0000 0.01490  0.72950  0.73280  Biso   1.000  H
  C83      1.0000 0.08960  0.66300  0.69150  Biso   1.000  C
  C84      1.0000 0.05840  0.56900  0.63840  Biso   1.000  C
  C85      1.0000 0.14920  0.67290  0.69460  Biso   1.000  C
  H64      1.0000 0.17250  0.62650  0.66310  Biso   1.000  H
  C86      1.0000 0.17550  0.75600  0.74680  Biso   1.000  C
  C87      1.0000 0.24040  0.74800  0.74980  Biso   1.000  C
  C88      1.0000 0.14060  0.82500  0.79030  Biso   1.000  C
  H65      1.0000 0.15770  0.87740  0.82490  Biso   1.000  H
  C89      1.0000 0.16070  0.05410  0.50470  Biso   1.000  C
  C90      1.0000 0.15880  0.09810  0.56450  Biso   1.000  C
  H66      1.0000 0.12240  0.12760  0.58180  Biso   1.000  H
  C91      1.0000 0.20800  0.10100  0.60010  Biso   1.000  C
  C92      1.0000 0.20460  0.16600  0.66320  Biso   1.000  C
  C93      1.0000 0.26070  0.04890  0.57490  Biso   1.000  C
  H67      1.0000 0.29460  0.04600  0.59870  Biso   1.000  H
  C94      1.0000 0.26440  0.00080  0.51480  Biso   1.000  C
  C95      1.0000 0.32210  0.95730  0.49130  Biso   1.000  C
  C96      1.0000 0.21410  0.00750  0.48030  Biso   1.000  C
  H68      1.0000 0.21660  0.97950  0.43930  Biso   1.000  H
