data_image0
_cell_length_a       23.0652
_cell_length_b       6.9731
_cell_length_c       22.4165
_cell_angle_alpha    90
_cell_angle_beta     91.54
_cell_angle_gamma    90

_symmetry_space_group_name_H-M    "P 1"
_symmetry_int_tables_number       1

loop_
  _symmetry_equiv_pos_as_xyz
  'x, y, z'

loop_
  _atom_site_label
  _atom_site_occupancy
  _atom_site_fract_x
  _atom_site_fract_y
  _atom_site_fract_z
  _atom_site_thermal_displace_type
  _atom_site_B_iso_or_equiv
  _atom_site_type_symbol
  Ca1      1.0000 0.53250  0.95240  0.00690  Biso   1.000  Ca
  P1       1.0000 0.40860  0.97380  0.04250  Biso   1.000  P
  O1       1.0000 0.44180  0.78680  0.03080  Biso   1.000  O
  O2       1.0000 0.44590  0.14100  0.02130  Biso   1.000  O
  O3       1.0000 0.39950  0.99300  0.11040  Biso   1.000  O
  C1       1.0000 0.33900  0.97100  0.00380  Biso   1.000  C
  C2       1.0000 0.28730  0.97800  0.03420  Biso   1.000  C
  C3       1.0000 0.23510  0.99600  0.00180  Biso   1.000  C
  C4       1.0000 0.23470  0.99400  0.93900  Biso   1.000  C
  C5       1.0000 0.28420  0.92500  0.91120  Biso   1.000  C
  C6       1.0000 0.33790  0.94900  0.94160  Biso   1.000  C
  C7       1.0000 0.17790  0.04300  0.03040  Biso   1.000  C
  O4       1.0000 0.17580  0.07000  0.08470  Biso   1.000  O
  O5       1.0000 0.13310  0.03800  0.99800  Biso   1.000  O
  C8       1.0000 0.28140  0.86700  0.84600  Biso   1.000  C
  O6       1.0000 0.32850  0.86500  0.82000  Biso   1.000  O
  O7       1.0000 0.23610  0.79600  0.82450  Biso   1.000  O
  P2       1.0000 0.58150  0.44780  0.98680  Biso   1.000  P
  O8       1.0000 0.60030  0.47600  0.92160  Biso   1.000  O
  O9       1.0000 0.54140  0.27330  0.99320  Biso   1.000  O
  O10      1.0000 0.54940  0.62700  0.00720  Biso   1.000  O
  C9       1.0000 0.64570  0.40700  0.03220  Biso   1.000  C
  C10      1.0000 0.69690  0.49900  0.01770  Biso   1.000  C
  C11      1.0000 0.74600  0.47400  0.05500  Biso   1.000  C
  C12      1.0000 0.73690  0.43200  0.11540  Biso   1.000  C
  C13      1.0000 0.68650  0.33000  0.12930  Biso   1.000  C
  C14      1.0000 0.63770  0.35300  0.09150  Biso   1.000  C
  C15      1.0000 0.80570  0.51600  0.03170  Biso   1.000  C
  O11      1.0000 0.81160  0.50900  0.97660  Biso   1.000  O
  O12      1.0000 0.84710  0.57300  0.06350  Biso   1.000  O
  C16      1.0000 0.67600  0.27100  0.19360  Biso   1.000  C
  O13      1.0000 0.71770  0.29600  0.22910  Biso   1.000  O
  O14      1.0000 0.62410  0.27700  0.20790  Biso   1.000  O
  Ca2      1.0000 0.45860  0.46620  0.03140  Biso   1.000  Ca
  P3       1.0000 0.53730  0.59190  0.36330  Biso   1.000  P
  O15      1.0000 0.57010  0.60200  0.42400  Biso   1.000  O
  O16      1.0000 0.52190  0.38100  0.34860  Biso   1.000  O
  O17      1.0000 0.48280  0.72100  0.36330  Biso   1.000  O
  C17      1.0000 0.58300  0.68300  0.30560  Biso   1.000  C
  C18      1.0000 0.55790  0.78900  0.25950  Biso   1.000  C
  C19      1.0000 0.58920  0.82700  0.20860  Biso   1.000  C
  C20      1.0000 0.65020  0.81200  0.21260  Biso   1.000  C
  C21      1.0000 0.67710  0.72900  0.26290  Biso   1.000  C
  C22      1.0000 0.64210  0.63500  0.30401  Biso   1.000  C
  C23      1.0000 0.55870  0.90500  0.15300  Biso   1.000  C
  O18      1.0000 0.50530  0.92100  0.15610  Biso   1.000  O
  O19      1.0000 0.58450  0.94100  0.10700  Biso   1.000  O
  C24      1.0000 0.74260  0.71800  0.26880  Biso   1.000  C
  O20      1.0000 0.76430  0.66300  0.31700  Biso   1.000  O
  O21      1.0000 0.77350  0.79400  0.23080  Biso   1.000  O
  Ca3      1.0000 0.45707  0.08080  0.50910  Biso   1.000  Ca
  P4       1.0000 0.58230  0.07930  0.55430  Biso   1.000  P
  O22      1.0000 0.54480  0.25800  0.54940  Biso   1.000  O
  O23      1.0000 0.54680  0.91300  0.52760  Biso   1.000  O
  O24      1.0000 0.60130  0.03900  0.61990  Biso   1.000  O
  C25      1.0000 0.64690  0.10600  0.51100  Biso   1.000  C
  C26      1.0000 0.69590  0.00500  0.53140  Biso   1.000  C
  C27      1.0000 0.74430  0.00100  0.49480  Biso   1.000  C
  C28      1.0000 0.73350  0.00600  0.43290  Biso   1.000  C
  C29      1.0000 0.68190  0.08700  0.41060  Biso   1.000  C
  C30      1.0000 0.63560  0.10500  0.44920  Biso   1.000  C
  C31      1.0000 0.80330  0.95300  0.52170  Biso   1.000  C
  O25      1.0000 0.80530  0.90200  0.57500  Biso   1.000  O
  O26      1.0000 0.84800  0.96100  0.49200  Biso   1.000  O
  C32      1.0000 0.67250  0.15100  0.34640  Biso   1.000  C
  O27      1.0000 0.62200  0.19600  0.33140  Biso   1.000  O
  O28      1.0000 0.71400  0.20200  0.31640  Biso   1.000  O
  P5       1.0000 0.39910  0.57600  0.49390  Biso   1.000  P
  O29      1.0000 0.38380  0.59200  0.42640  Biso   1.000  O
  O30      1.0000 0.43430  0.75200  0.51390  Biso   1.000  O
  O31      1.0000 0.44040  0.40700  0.50460  Biso   1.000  O
  C33      1.0000 0.33390  0.54800  0.53610  Biso   1.000  C
  C34      1.0000 0.28070  0.51400  0.50700  Biso   1.000  C
  C35      1.0000 0.23110  0.49800  0.54030  Biso   1.000  C
  C36      1.0000 0.23060  0.59300  0.59560  Biso   1.000  C
  C37      1.0000 0.28220  0.65500  0.62310  Biso   1.000  C
  C38      1.0000 0.33450  0.61200  0.59600  Biso   1.000  C
  C39      1.0000 0.17070  0.43500  0.51980  Biso   1.000  C
  O32      1.0000 0.15260  0.49100  0.47060  Biso   1.000  O
  O33      1.0000 0.13740  0.40700  0.56190  Biso   1.000  O
  C40      1.0000 0.27620  0.70700  0.68850  Biso   1.000  C
  O34      1.0000 0.22700  0.69200  0.70980  Biso   1.000  O
  O35      1.0000 0.32140  0.73000  0.71850  Biso   1.000  O
  Ca4      1.0000 0.53510  0.59120  0.52820  Biso   1.000  Ca
  P6       1.0000 0.47890  0.54620  0.85000  Biso   1.000  P
  O36      1.0000 0.46630  0.57600  0.91680  Biso   1.000  O
  O37      1.0000 0.48510  0.73800  0.81660  Biso   1.000  O
  O38      1.0000 0.53720  0.43300  0.84600  Biso   1.000  O
  C41      1.0000 0.42440  0.39000  0.81660  Biso   1.000  C
  C42      1.0000 0.44840  0.24700  0.78050  Biso   1.000  C
  C43      1.0000 0.41990  0.21300  0.72480  Biso   1.000  C
  C44      1.0000 0.35920  0.22200  0.72470  Biso   1.000  C
  C45      1.0000 0.32890  0.29800  0.77360  Biso   1.000  C
  C46      1.0000 0.36370  0.39900  0.81660  Biso   1.000  C
  C47      1.0000 0.45870  0.14500  0.67500  Biso   1.000  C
  O39      1.0000 0.51050  0.19800  0.68200  Biso   1.000  O
  O40      1.0000 0.43890  0.07600  0.62810  Biso   1.000  O
  C48      1.0000 0.26300  0.29400  0.77160  Biso   1.000  C
  O41      1.0000 0.23340  0.33300  0.81560  Biso   1.000  O
  O42      1.0000 0.23410  0.23400  0.72720  Biso   1.000  O
  Ca5      1.0000 0.03250  0.04760  0.00690  Biso   1.000  Ca
  P7       1.0000 0.90860  0.02620  0.04250  Biso   1.000  P
  O43      1.0000 0.94180  0.21320  0.03080  Biso   1.000  O
  O44      1.0000 0.94590  0.85900  0.02130  Biso   1.000  O
  O45      1.0000 0.89950  0.00700  0.11040  Biso   1.000  O
  C49      1.0000 0.83900  0.02900  0.00380  Biso   1.000  C
  C50      1.0000 0.78730  0.02200  0.03420  Biso   1.000  C
  C51      1.0000 0.73510  0.00400  0.00180  Biso   1.000  C
  C52      1.0000 0.73470  0.00600  0.93900  Biso   1.000  C
  C53      1.0000 0.78420  0.07500  0.91120  Biso   1.000  C
  C54      1.0000 0.83790  0.05100  0.94160  Biso   1.000  C
  C55      1.0000 0.67790  0.95700  0.03040  Biso   1.000  C
  O46      1.0000 0.67580  0.93000  0.08470  Biso   1.000  O
  O47      1.0000 0.63310  0.96200  0.99800  Biso   1.000  O
  C56      1.0000 0.78140  0.13300  0.84600  Biso   1.000  C
  O48      1.0000 0.82850  0.13500  0.82000  Biso   1.000  O
  O49      1.0000 0.73610  0.20400  0.82450  Biso   1.000  O
  P8       1.0000 0.08150  0.55220  0.98680  Biso   1.000  P
  O50      1.0000 0.10030  0.52400  0.92160  Biso   1.000  O
  O51      1.0000 0.04140  0.72670  0.99320  Biso   1.000  O
  O52      1.0000 0.04940  0.37300  0.00720  Biso   1.000  O
  C57      1.0000 0.14570  0.59300  0.03220  Biso   1.000  C
  C58      1.0000 0.19690  0.50100  0.01770  Biso   1.000  C
  C59      1.0000 0.24600  0.52600  0.05500  Biso   1.000  C
  C60      1.0000 0.23690  0.56800  0.11540  Biso   1.000  C
  C61      1.0000 0.18650  0.67000  0.12930  Biso   1.000  C
  C62      1.0000 0.13770  0.64700  0.09150  Biso   1.000  C
  C63      1.0000 0.30570  0.48400  0.03170  Biso   1.000  C
  O53      1.0000 0.31160  0.49100  0.97660  Biso   1.000  O
  O54      1.0000 0.34710  0.42700  0.06350  Biso   1.000  O
  C64      1.0000 0.17600  0.72900  0.19360  Biso   1.000  C
  O55      1.0000 0.21770  0.70400  0.22910  Biso   1.000  O
  O56      1.0000 0.12410  0.72300  0.20790  Biso   1.000  O
  Ca6      1.0000 0.95860  0.53380  0.03140  Biso   1.000  Ca
  P9       1.0000 0.03730  0.40810  0.36330  Biso   1.000  P
  O57      1.0000 0.07010  0.39800  0.42400  Biso   1.000  O
  O58      1.0000 0.02190  0.61900  0.34860  Biso   1.000  O
  O59      1.0000 0.98280  0.27900  0.36330  Biso   1.000  O
  C65      1.0000 0.08300  0.31700  0.30560  Biso   1.000  C
  C66      1.0000 0.05790  0.21100  0.25950  Biso   1.000  C
  C67      1.0000 0.08920  0.17300  0.20860  Biso   1.000  C
  C68      1.0000 0.15020  0.18800  0.21260  Biso   1.000  C
  C69      1.0000 0.17710  0.27100  0.26290  Biso   1.000  C
  C70      1.0000 0.14210  0.36500  0.30401  Biso   1.000  C
  C71      1.0000 0.05870  0.09500  0.15300  Biso   1.000  C
  O60      1.0000 0.00530  0.07900  0.15610  Biso   1.000  O
  O61      1.0000 0.08450  0.05900  0.10700  Biso   1.000  O
  C72      1.0000 0.24260  0.28200  0.26880  Biso   1.000  C
  O62      1.0000 0.26430  0.33700  0.31700  Biso   1.000  O
  O63      1.0000 0.27350  0.20600  0.23080  Biso   1.000  O
  Ca7      1.0000 0.95707  0.91920  0.50910  Biso   1.000  Ca
  P10      1.0000 0.08230  0.92070  0.55430  Biso   1.000  P
  O64      1.0000 0.04480  0.74200  0.54940  Biso   1.000  O
  O65      1.0000 0.04680  0.08700  0.52760  Biso   1.000  O
  O66      1.0000 0.10130  0.96100  0.61990  Biso   1.000  O
  C73      1.0000 0.14690  0.89400  0.51100  Biso   1.000  C
  C74      1.0000 0.19590  0.99500  0.53140  Biso   1.000  C
  C75      1.0000 0.24430  0.99900  0.49480  Biso   1.000  C
  C76      1.0000 0.23350  0.99400  0.43290  Biso   1.000  C
  C77      1.0000 0.18190  0.91300  0.41060  Biso   1.000  C
  C78      1.0000 0.13560  0.89500  0.44920  Biso   1.000  C
  C79      1.0000 0.30330  0.04700  0.52170  Biso   1.000  C
  O67      1.0000 0.30530  0.09800  0.57500  Biso   1.000  O
  O68      1.0000 0.34800  0.03900  0.49200  Biso   1.000  O
  C80      1.0000 0.17250  0.84900  0.34640  Biso   1.000  C
  O69      1.0000 0.12200  0.80400  0.33140  Biso   1.000  O
  O70      1.0000 0.21400  0.79800  0.31640  Biso   1.000  O
  P11      1.0000 0.89910  0.42400  0.49390  Biso   1.000  P
  O71      1.0000 0.88380  0.40800  0.42640  Biso   1.000  O
  O72      1.0000 0.93430  0.24800  0.51390  Biso   1.000  O
  O73      1.0000 0.94040  0.59300  0.50460  Biso   1.000  O
  C81      1.0000 0.83390  0.45200  0.53610  Biso   1.000  C
  C82      1.0000 0.78070  0.48600  0.50700  Biso   1.000  C
  C83      1.0000 0.73110  0.50200  0.54030  Biso   1.000  C
  C84      1.0000 0.73060  0.40700  0.59560  Biso   1.000  C
  C85      1.0000 0.78220  0.34500  0.62310  Biso   1.000  C
  C86      1.0000 0.83450  0.38800  0.59600  Biso   1.000  C
  C87      1.0000 0.67070  0.56500  0.51980  Biso   1.000  C
  O74      1.0000 0.65260  0.50900  0.47060  Biso   1.000  O
  O75      1.0000 0.63740  0.59300  0.56190  Biso   1.000  O
  C88      1.0000 0.77620  0.29300  0.68850  Biso   1.000  C
  O76      1.0000 0.72700  0.30800  0.70980  Biso   1.000  O
  O77      1.0000 0.82140  0.27000  0.71850  Biso   1.000  O
  Ca8      1.0000 0.03510  0.40880  0.52820  Biso   1.000  Ca
  P12      1.0000 0.97890  0.45380  0.85000  Biso   1.000  P
  O78      1.0000 0.96630  0.42400  0.91680  Biso   1.000  O
  O79      1.0000 0.98510  0.26200  0.81660  Biso   1.000  O
  O80      1.0000 0.03720  0.56700  0.84600  Biso   1.000  O
  C89      1.0000 0.92440  0.61000  0.81660  Biso   1.000  C
  C90      1.0000 0.94840  0.75300  0.78050  Biso   1.000  C
  C91      1.0000 0.91990  0.78700  0.72480  Biso   1.000  C
  C92      1.0000 0.85920  0.77800  0.72470  Biso   1.000  C
  C93      1.0000 0.82890  0.70200  0.77360  Biso   1.000  C
  C94      1.0000 0.86370  0.60100  0.81660  Biso   1.000  C
  C95      1.0000 0.95870  0.85500  0.67500  Biso   1.000  C
  O81      1.0000 0.01050  0.80200  0.68200  Biso   1.000  O
  O82      1.0000 0.93890  0.92400  0.62810  Biso   1.000  O
  C96      1.0000 0.76300  0.70600  0.77160  Biso   1.000  C
  O83      1.0000 0.73340  0.66700  0.81560  Biso   1.000  O
  O84      1.0000 0.73410  0.76600  0.72720  Biso   1.000  O
