data_image0
_cell_length_a       6.533
_cell_length_b       10.453
_cell_length_c       19.293
_cell_angle_alpha    90
_cell_angle_beta     90
_cell_angle_gamma    90

_symmetry_space_group_name_H-M    "P 1"
_symmetry_int_tables_number       1

loop_
  _symmetry_equiv_pos_as_xyz
  'x, y, z'

loop_
  _atom_site_label
  _atom_site_occupancy
  _atom_site_fract_x
  _atom_site_fract_y
  _atom_site_fract_z
  _atom_site_thermal_displace_type
  _atom_site_B_iso_or_equiv
  _atom_site_type_symbol
  N1       1.0000 0.31160  0.79720  0.80640  Biso   1.000  N
  C1       1.0000 0.31610  0.90990  0.75900  Biso   1.000  C
  C2       1.0000 0.31610  0.84390  0.87930  Biso   1.000  C
  H1       1.0000 0.62020  0.08620  0.85250  Biso   1.000  H
  H2       1.0000 0.31470  0.88050  0.71130  Biso   1.000  H
  H3       1.0000 0.19440  0.96130  0.76650  Biso   1.000  H
  H4       1.0000 0.19380  0.89370  0.88850  Biso   1.000  H
  H5       1.0000 0.31670  0.77130  0.91060  Biso   1.000  H
  N2       1.0000 0.31160  0.20280  0.19360  Biso   1.000  N
  C3       1.0000 0.31610  0.09010  0.24100  Biso   1.000  C
  C4       1.0000 0.31610  0.15610  0.12070  Biso   1.000  C
  H6       1.0000 0.62020  0.91380  0.14750  Biso   1.000  H
  H7       1.0000 0.31470  0.11950  0.28870  Biso   1.000  H
  H8       1.0000 0.19440  0.03870  0.23350  Biso   1.000  H
  H9       1.0000 0.19380  0.10630  0.11150  Biso   1.000  H
  H10      1.0000 0.31670  0.22870  0.08940  Biso   1.000  H
  N3       1.0000 0.18840  0.70280  0.30640  Biso   1.000  N
  C5       1.0000 0.18390  0.59010  0.25900  Biso   1.000  C
  C6       1.0000 0.18390  0.65610  0.37930  Biso   1.000  C
  H11      1.0000 0.87980  0.41380  0.35250  Biso   1.000  H
  H12      1.0000 0.18530  0.61950  0.21130  Biso   1.000  H
  H13      1.0000 0.30560  0.53870  0.26650  Biso   1.000  H
  H14      1.0000 0.30620  0.60630  0.38850  Biso   1.000  H
  H15      1.0000 0.18330  0.72870  0.41060  Biso   1.000  H
  N4       1.0000 0.18840  0.29720  0.69360  Biso   1.000  N
  C7       1.0000 0.18390  0.40990  0.74100  Biso   1.000  C
  C8       1.0000 0.18390  0.34390  0.62070  Biso   1.000  C
  H16      1.0000 0.87980  0.58620  0.64750  Biso   1.000  H
  H17      1.0000 0.18530  0.38050  0.78870  Biso   1.000  H
  H18      1.0000 0.30560  0.46130  0.73350  Biso   1.000  H
  H19      1.0000 0.30620  0.39370  0.61150  Biso   1.000  H
  H20      1.0000 0.18330  0.27130  0.58940  Biso   1.000  H
  N5       1.0000 0.68840  0.20280  0.19360  Biso   1.000  N
  C9       1.0000 0.68390  0.09010  0.24100  Biso   1.000  C
  C10      1.0000 0.68390  0.15610  0.12070  Biso   1.000  C
  H21      1.0000 0.37980  0.91380  0.14750  Biso   1.000  H
  H22      1.0000 0.68530  0.11950  0.28870  Biso   1.000  H
  H23      1.0000 0.80560  0.03870  0.23350  Biso   1.000  H
  H24      1.0000 0.80620  0.10630  0.11150  Biso   1.000  H
  H25      1.0000 0.68330  0.22870  0.08940  Biso   1.000  H
  N6       1.0000 0.68840  0.79720  0.80640  Biso   1.000  N
  C11      1.0000 0.68390  0.90990  0.75900  Biso   1.000  C
  C12      1.0000 0.68390  0.84390  0.87930  Biso   1.000  C
  H26      1.0000 0.37980  0.08620  0.85250  Biso   1.000  H
  H27      1.0000 0.68530  0.88050  0.71130  Biso   1.000  H
  H28      1.0000 0.80560  0.96130  0.76650  Biso   1.000  H
  H29      1.0000 0.80620  0.89370  0.88850  Biso   1.000  H
  H30      1.0000 0.68330  0.77130  0.91060  Biso   1.000  H
  N7       1.0000 0.81160  0.29720  0.69360  Biso   1.000  N
  C13      1.0000 0.81610  0.40990  0.74100  Biso   1.000  C
  C14      1.0000 0.81610  0.34390  0.62070  Biso   1.000  C
  H31      1.0000 0.12020  0.58620  0.64750  Biso   1.000  H
  H32      1.0000 0.81470  0.38050  0.78870  Biso   1.000  H
  H33      1.0000 0.69440  0.46130  0.73350  Biso   1.000  H
  H34      1.0000 0.69380  0.39370  0.61150  Biso   1.000  H
  H35      1.0000 0.81670  0.27130  0.58940  Biso   1.000  H
  N8       1.0000 0.81160  0.70280  0.30640  Biso   1.000  N
  C15      1.0000 0.81610  0.59010  0.25900  Biso   1.000  C
  C16      1.0000 0.81610  0.65610  0.37930  Biso   1.000  C
  H36      1.0000 0.12020  0.41380  0.35250  Biso   1.000  H
  H37      1.0000 0.81470  0.61950  0.21130  Biso   1.000  H
  H38      1.0000 0.69440  0.53870  0.26650  Biso   1.000  H
  H39      1.0000 0.69380  0.60630  0.38850  Biso   1.000  H
  H40      1.0000 0.81670  0.72870  0.41060  Biso   1.000  H
  Ag1      1.0000 0.50000  0.17763  0.70343  Biso   1.000  Ag
  N9       1.0000 0.50000  0.98970  0.77070  Biso   1.000  N
  N10      1.0000 0.50000  0.92410  0.89240  Biso   1.000  N
  C17      1.0000 0.50000  0.03390  0.84410  Biso   1.000  C
  C18      1.0000 0.50000  0.72080  0.79410  Biso   1.000  C
  H41      1.0000 0.50000  0.68980  0.74670  Biso   1.000  H
  H42      1.0000 0.50000  0.64710  0.82470  Biso   1.000  H
  Ag2      1.0000 0.50000  0.82237  0.29657  Biso   1.000  Ag
  N11      1.0000 0.50000  0.01030  0.22930  Biso   1.000  N
  N12      1.0000 0.50000  0.07590  0.10760  Biso   1.000  N
  C19      1.0000 0.50000  0.96610  0.15590  Biso   1.000  C
  C20      1.0000 0.50000  0.27920  0.20590  Biso   1.000  C
  H43      1.0000 0.50000  0.31020  0.25330  Biso   1.000  H
  H44      1.0000 0.50000  0.35290  0.17530  Biso   1.000  H
  Ag3      1.0000 0.00000  0.32237  0.20343  Biso   1.000  Ag
  N13      1.0000 0.00000  0.51030  0.27070  Biso   1.000  N
  N14      1.0000 0.00000  0.57590  0.39240  Biso   1.000  N
  C21      1.0000 0.00000  0.46610  0.34410  Biso   1.000  C
  C22      1.0000 0.00000  0.77920  0.29410  Biso   1.000  C
  H45      1.0000 0.00000  0.81020  0.24670  Biso   1.000  H
  H46      1.0000 0.00000  0.85290  0.32470  Biso   1.000  H
  Ag4      1.0000 0.00000  0.67763  0.79657  Biso   1.000  Ag
  N15      1.0000 0.00000  0.48970  0.72930  Biso   1.000  N
  N16      1.0000 0.00000  0.42410  0.60760  Biso   1.000  N
  C23      1.0000 0.00000  0.53390  0.65590  Biso   1.000  C
  C24      1.0000 0.00000  0.22080  0.70590  Biso   1.000  C
  H47      1.0000 0.00000  0.18980  0.75330  Biso   1.000  H
  H48      1.0000 0.00000  0.14710  0.67530  Biso   1.000  H
  Ag5      1.0000 0.50000  0.00000  0.00000  Biso   1.000  Ag
  Ag6      1.0000 0.00000  0.50000  0.50000  Biso   1.000  Ag
