data_image0
_cell_length_a       10.974
_cell_length_b       22.669
_cell_length_c       14.106
_cell_angle_alpha    90
_cell_angle_beta     96.637
_cell_angle_gamma    90

_symmetry_space_group_name_H-M    "P 1"
_symmetry_int_tables_number       1

loop_
  _symmetry_equiv_pos_as_xyz
  'x, y, z'

loop_
  _atom_site_label
  _atom_site_occupancy
  _atom_site_fract_x
  _atom_site_fract_y
  _atom_site_fract_z
  _atom_site_thermal_displace_type
  _atom_site_B_iso_or_equiv
  _atom_site_type_symbol
  Cd1      1.0000 0.86819  0.07323  0.77806  Biso   1.000  Cd
  C1       1.0000 0.61810  0.05650  0.86830  Biso   1.000  C
  H1       1.0000 0.67760  0.04440  0.91670  Biso   1.000  H
  C2       1.0000 0.49870  0.05420  0.88420  Biso   1.000  C
  H2       1.0000 0.47840  0.04050  0.94250  Biso   1.000  H
  C3       1.0000 0.40770  0.07190  0.81560  Biso   1.000  C
  C4       1.0000 0.44410  0.09280  0.73140  Biso   1.000  C
  H3       1.0000 0.38630  0.10640  0.68290  Biso   1.000  H
  C5       1.0000 0.56640  0.09320  0.72030  Biso   1.000  C
  H4       1.0000 0.58930  0.10680  0.66280  Biso   1.000  H
  C6       1.0000 0.27970  0.06620  0.83070  Biso   1.000  C
  C7       1.0000 0.92030  0.29230  0.23460  Biso   1.000  C
  H5       1.0000 0.95070  0.29370  0.29890  Biso   1.000  H
  C8       1.0000 0.92390  0.24000  0.18870  Biso   1.000  C
  H6       1.0000 0.95690  0.20690  0.22090  Biso   1.000  H
  C9       1.0000 0.87820  0.23640  0.09390  Biso   1.000  C
  C10      1.0000 0.83160  0.28680  0.04950  Biso   1.000  C
  H7       1.0000 0.79980  0.28650  0.98540  Biso   1.000  H
  C11      1.0000 0.83330  0.33760  0.10230  Biso   1.000  C
  H8       1.0000 0.80200  0.37160  0.07180  Biso   1.000  H
  C12      1.0000 0.88260  0.18140  0.04070  Biso   1.000  C
  N1       1.0000 0.65400  0.07530  0.78640  Biso   1.000  N
  N2       1.0000 0.24680  0.03980  0.90900  Biso   1.000  N
  N3       1.0000 0.12550  0.04300  0.89760  Biso   1.000  N
  N4       1.0000 0.08720  0.06930  0.81530  Biso   1.000  N
  N5       1.0000 0.18290  0.08480  0.77230  Biso   1.000  N
  N6       1.0000 0.87620  0.34160  0.19370  Biso   1.000  N
  N7       1.0000 0.92100  0.13080  0.08110  Biso   1.000  N
  N8       1.0000 0.91620  0.09320  0.00860  Biso   1.000  N
  N9       1.0000 0.87810  0.12120  0.92850  Biso   1.000  N
  N10      1.0000 0.85570  0.17730  0.94690  Biso   1.000  N
  N11      1.0000 0.87120  0.98720  0.86150  Biso   1.000  N
  N12      1.0000 0.81400  0.94500  0.83740  Biso   1.000  N
  N13      1.0000 0.75990  0.90500  0.81230  Biso   1.000  N
  Cd2      1.0000 0.13181  0.57323  0.72194  Biso   1.000  Cd
  C13      1.0000 0.38190  0.55650  0.63170  Biso   1.000  C
  H9       1.0000 0.32240  0.54440  0.58330  Biso   1.000  H
  C14      1.0000 0.50130  0.55420  0.61580  Biso   1.000  C
  H10      1.0000 0.52160  0.54050  0.55750  Biso   1.000  H
  C15      1.0000 0.59230  0.57190  0.68440  Biso   1.000  C
  C16      1.0000 0.55590  0.59280  0.76860  Biso   1.000  C
  H11      1.0000 0.61370  0.60640  0.81710  Biso   1.000  H
  C17      1.0000 0.43360  0.59320  0.77970  Biso   1.000  C
  H12      1.0000 0.41070  0.60680  0.83720  Biso   1.000  H
  C18      1.0000 0.72030  0.56620  0.66930  Biso   1.000  C
  C19      1.0000 0.07970  0.79230  0.26540  Biso   1.000  C
  H13      1.0000 0.04930  0.79370  0.20110  Biso   1.000  H
  C20      1.0000 0.07610  0.74000  0.31130  Biso   1.000  C
  H14      1.0000 0.04310  0.70690  0.27910  Biso   1.000  H
  C21      1.0000 0.12180  0.73640  0.40610  Biso   1.000  C
  C22      1.0000 0.16840  0.78680  0.45050  Biso   1.000  C
  H15      1.0000 0.20020  0.78650  0.51460  Biso   1.000  H
  C23      1.0000 0.16670  0.83760  0.39770  Biso   1.000  C
  H16      1.0000 0.19800  0.87160  0.42820  Biso   1.000  H
  C24      1.0000 0.11740  0.68140  0.45930  Biso   1.000  C
  N14      1.0000 0.34600  0.57530  0.71360  Biso   1.000  N
  N15      1.0000 0.75320  0.53980  0.59100  Biso   1.000  N
  N16      1.0000 0.87450  0.54300  0.60240  Biso   1.000  N
  N17      1.0000 0.91280  0.56930  0.68470  Biso   1.000  N
  N18      1.0000 0.81710  0.58480  0.72770  Biso   1.000  N
  N19      1.0000 0.12380  0.84160  0.30630  Biso   1.000  N
  N20      1.0000 0.07900  0.63080  0.41890  Biso   1.000  N
  N21      1.0000 0.08380  0.59320  0.49140  Biso   1.000  N
  N22      1.0000 0.12190  0.62120  0.57150  Biso   1.000  N
  N23      1.0000 0.14430  0.67730  0.55310  Biso   1.000  N
  N24      1.0000 0.12880  0.48720  0.63850  Biso   1.000  N
  N25      1.0000 0.18600  0.44500  0.66260  Biso   1.000  N
  N26      1.0000 0.24010  0.40500  0.68770  Biso   1.000  N
  Cd3      1.0000 0.13181  0.92677  0.22194  Biso   1.000  Cd
  C25      1.0000 0.38190  0.94350  0.13170  Biso   1.000  C
  H17      1.0000 0.32240  0.95560  0.08330  Biso   1.000  H
  C26      1.0000 0.50130  0.94580  0.11580  Biso   1.000  C
  H18      1.0000 0.52160  0.95950  0.05750  Biso   1.000  H
  C27      1.0000 0.59230  0.92810  0.18440  Biso   1.000  C
  C28      1.0000 0.55590  0.90720  0.26860  Biso   1.000  C
  H19      1.0000 0.61370  0.89360  0.31710  Biso   1.000  H
  C29      1.0000 0.43360  0.90680  0.27970  Biso   1.000  C
  H20      1.0000 0.41070  0.89320  0.33720  Biso   1.000  H
  C30      1.0000 0.72030  0.93380  0.16930  Biso   1.000  C
  C31      1.0000 0.07970  0.70770  0.76540  Biso   1.000  C
  H21      1.0000 0.04930  0.70630  0.70110  Biso   1.000  H
  C32      1.0000 0.07610  0.76000  0.81130  Biso   1.000  C
  H22      1.0000 0.04310  0.79310  0.77910  Biso   1.000  H
  C33      1.0000 0.12180  0.76360  0.90610  Biso   1.000  C
  C34      1.0000 0.16840  0.71320  0.95050  Biso   1.000  C
  H23      1.0000 0.20020  0.71350  0.01460  Biso   1.000  H
  C35      1.0000 0.16670  0.66240  0.89770  Biso   1.000  C
  H24      1.0000 0.19800  0.62840  0.92820  Biso   1.000  H
  C36      1.0000 0.11740  0.81860  0.95930  Biso   1.000  C
  N27      1.0000 0.34600  0.92470  0.21360  Biso   1.000  N
  N28      1.0000 0.75320  0.96020  0.09100  Biso   1.000  N
  N29      1.0000 0.87450  0.95700  0.10240  Biso   1.000  N
  N30      1.0000 0.91280  0.93070  0.18470  Biso   1.000  N
  N31      1.0000 0.81710  0.91520  0.22770  Biso   1.000  N
  N32      1.0000 0.12380  0.65840  0.80630  Biso   1.000  N
  N33      1.0000 0.07900  0.86920  0.91890  Biso   1.000  N
  N34      1.0000 0.08380  0.90680  0.99140  Biso   1.000  N
  N35      1.0000 0.12190  0.87880  0.07150  Biso   1.000  N
  N36      1.0000 0.14430  0.82270  0.05310  Biso   1.000  N
  N37      1.0000 0.12880  0.01280  0.13850  Biso   1.000  N
  N38      1.0000 0.18600  0.05500  0.16260  Biso   1.000  N
  N39      1.0000 0.24010  0.09500  0.18770  Biso   1.000  N
  Cd4      1.0000 0.86819  0.42677  0.27806  Biso   1.000  Cd
  C37      1.0000 0.61810  0.44350  0.36830  Biso   1.000  C
  H25      1.0000 0.67760  0.45560  0.41670  Biso   1.000  H
  C38      1.0000 0.49870  0.44580  0.38420  Biso   1.000  C
  H26      1.0000 0.47840  0.45950  0.44250  Biso   1.000  H
  C39      1.0000 0.40770  0.42810  0.31560  Biso   1.000  C
  C40      1.0000 0.44410  0.40720  0.23140  Biso   1.000  C
  H27      1.0000 0.38630  0.39360  0.18290  Biso   1.000  H
  C41      1.0000 0.56640  0.40680  0.22030  Biso   1.000  C
  H28      1.0000 0.58930  0.39320  0.16280  Biso   1.000  H
  C42      1.0000 0.27970  0.43380  0.33070  Biso   1.000  C
  C43      1.0000 0.92030  0.20770  0.73460  Biso   1.000  C
  H29      1.0000 0.95070  0.20630  0.79890  Biso   1.000  H
  C44      1.0000 0.92390  0.26000  0.68870  Biso   1.000  C
  H30      1.0000 0.95690  0.29310  0.72090  Biso   1.000  H
  C45      1.0000 0.87820  0.26360  0.59390  Biso   1.000  C
  C46      1.0000 0.83160  0.21320  0.54950  Biso   1.000  C
  H31      1.0000 0.79980  0.21350  0.48540  Biso   1.000  H
  C47      1.0000 0.83330  0.16240  0.60230  Biso   1.000  C
  H32      1.0000 0.80200  0.12840  0.57180  Biso   1.000  H
  C48      1.0000 0.88260  0.31860  0.54070  Biso   1.000  C
  N40      1.0000 0.65400  0.42470  0.28640  Biso   1.000  N
  N41      1.0000 0.24680  0.46020  0.40900  Biso   1.000  N
  N42      1.0000 0.12550  0.45700  0.39760  Biso   1.000  N
  N43      1.0000 0.08720  0.43070  0.31530  Biso   1.000  N
  N44      1.0000 0.18290  0.41520  0.27230  Biso   1.000  N
  N45      1.0000 0.87620  0.15840  0.69370  Biso   1.000  N
  N46      1.0000 0.92100  0.36920  0.58110  Biso   1.000  N
  N47      1.0000 0.91620  0.40680  0.50860  Biso   1.000  N
  N48      1.0000 0.87810  0.37880  0.42850  Biso   1.000  N
  N49      1.0000 0.85570  0.32270  0.44690  Biso   1.000  N
  N50      1.0000 0.87120  0.51280  0.36150  Biso   1.000  N
  N51      1.0000 0.81400  0.55500  0.33740  Biso   1.000  N
  N52      1.0000 0.75990  0.59500  0.31230  Biso   1.000  N
  Cd5      1.0000 0.00000  0.00000  0.00000  Biso   1.000  Cd
  Cd6      1.0000 0.00000  0.50000  0.50000  Biso   1.000  Cd
