data_image0
_cell_length_a       9.638
_cell_length_b       15.443
_cell_length_c       18.717
_cell_angle_alpha    90
_cell_angle_beta     90
_cell_angle_gamma    90

_symmetry_space_group_name_H-M    "P 1"
_symmetry_int_tables_number       1

loop_
  _symmetry_equiv_pos_as_xyz
  'x, y, z'

loop_
  _atom_site_label
  _atom_site_occupancy
  _atom_site_fract_x
  _atom_site_fract_y
  _atom_site_fract_z
  _atom_site_thermal_displace_type
  _atom_site_B_iso_or_equiv
  _atom_site_type_symbol
  Cd1      1.0000 0.11647  0.78310  0.93902  Biso   1.000  Cd
  C1       1.0000 0.41810  0.85540  0.98340  Biso   1.000  C
  H1       1.0000 0.35750  0.89270  0.00690  Biso   1.000  H
  C2       1.0000 0.55700  0.86990  0.99090  Biso   1.000  C
  H2       1.0000 0.58890  0.91620  0.01810  Biso   1.000  H
  C3       1.0000 0.64890  0.81530  0.95770  Biso   1.000  C
  C4       1.0000 0.59300  0.74850  0.91830  Biso   1.000  C
  H3       1.0000 0.65140  0.70950  0.89530  Biso   1.000  H
  C5       1.0000 0.45270  0.73900  0.91280  Biso   1.000  C
  H4       1.0000 0.41830  0.69370  0.88520  Biso   1.000  H
  C6       1.0000 0.80190  0.83110  0.96310  Biso   1.000  C
  C7       1.0000 0.05070  0.82730  0.29940  Biso   1.000  C
  H5       1.0000 0.99360  0.85340  0.33320  Biso   1.000  H
  C8       1.0000 0.04640  0.85770  0.23060  Biso   1.000  C
  H6       1.0000 0.99010  0.90440  0.21870  Biso   1.000  H
  C9       1.0000 0.12570  0.81830  0.18000  Biso   1.000  C
  C10      1.0000 0.20870  0.75030  0.20090  Biso   1.000  C
  H7       1.0000 0.26310  0.72130  0.16760  Biso   1.000  H
  C11      1.0000 0.21050  0.72560  0.27150  Biso   1.000  C
  H8       1.0000 0.26930  0.68080  0.28520  Biso   1.000  H
  C12      1.0000 0.11890  0.84720  0.10310  Biso   1.000  C
  N1       1.0000 0.36350  0.79130  0.94480  Biso   1.000  N
  N2       1.0000 0.13210  0.76270  0.32060  Biso   1.000  N
  N3       1.0000 0.12120  0.92850  0.91490  Biso   1.000  N
  N4       1.0000 0.17100  0.96320  0.86670  Biso   1.000  N
  N5       1.0000 0.21500  0.99760  0.81810  Biso   1.000  N
  O1       1.0000 0.10660  0.92590  0.09189  Biso   1.000  O
  O2       1.0000 0.12880  0.78830  0.05798  Biso   1.000  O
  O3       1.0000 0.83880  0.89290  0.00070  Biso   1.000  O
  O4       1.0000 0.87950  0.78040  0.92967  Biso   1.000  O
  Cd2      1.0000 0.88353  0.28310  0.56098  Biso   1.000  Cd
  C13      1.0000 0.58190  0.35540  0.51660  Biso   1.000  C
  H9       1.0000 0.64250  0.39270  0.49310  Biso   1.000  H
  C14      1.0000 0.44300  0.36990  0.50910  Biso   1.000  C
  H10      1.0000 0.41110  0.41620  0.48190  Biso   1.000  H
  C15      1.0000 0.35110  0.31530  0.54230  Biso   1.000  C
  C16      1.0000 0.40700  0.24850  0.58170  Biso   1.000  C
  H11      1.0000 0.34860  0.20950  0.60470  Biso   1.000  H
  C17      1.0000 0.54730  0.23900  0.58720  Biso   1.000  C
  H12      1.0000 0.58170  0.19370  0.61480  Biso   1.000  H
  C18      1.0000 0.19810  0.33110  0.53690  Biso   1.000  C
  C19      1.0000 0.94930  0.32730  0.20060  Biso   1.000  C
  H13      1.0000 0.00640  0.35340  0.16680  Biso   1.000  H
  C20      1.0000 0.95360  0.35770  0.26940  Biso   1.000  C
  H14      1.0000 0.00990  0.40440  0.28130  Biso   1.000  H
  C21      1.0000 0.87430  0.31830  0.32000  Biso   1.000  C
  C22      1.0000 0.79130  0.25030  0.29910  Biso   1.000  C
  H15      1.0000 0.73690  0.22130  0.33240  Biso   1.000  H
  C23      1.0000 0.78950  0.22560  0.22850  Biso   1.000  C
  H16      1.0000 0.73070  0.18080  0.21480  Biso   1.000  H
  C24      1.0000 0.88110  0.34720  0.39690  Biso   1.000  C
  N6       1.0000 0.63650  0.29130  0.55520  Biso   1.000  N
  N7       1.0000 0.86790  0.26270  0.17940  Biso   1.000  N
  N8       1.0000 0.87880  0.42850  0.58510  Biso   1.000  N
  N9       1.0000 0.82900  0.46320  0.63330  Biso   1.000  N
  N10      1.0000 0.78500  0.49760  0.68190  Biso   1.000  N
  O5       1.0000 0.89340  0.42590  0.40811  Biso   1.000  O
  O6       1.0000 0.87120  0.28830  0.44202  Biso   1.000  O
  O7       1.0000 0.16120  0.39290  0.49930  Biso   1.000  O
  O8       1.0000 0.12050  0.28040  0.57033  Biso   1.000  O
  Cd3      1.0000 0.88353  0.21690  0.06098  Biso   1.000  Cd
  C25      1.0000 0.58190  0.14460  0.01660  Biso   1.000  C
  H17      1.0000 0.64250  0.10730  0.99310  Biso   1.000  H
  C26      1.0000 0.44300  0.13010  0.00910  Biso   1.000  C
  H18      1.0000 0.41110  0.08380  0.98190  Biso   1.000  H
  C27      1.0000 0.35110  0.18470  0.04230  Biso   1.000  C
  C28      1.0000 0.40700  0.25150  0.08170  Biso   1.000  C
  H19      1.0000 0.34860  0.29050  0.10470  Biso   1.000  H
  C29      1.0000 0.54730  0.26100  0.08720  Biso   1.000  C
  H20      1.0000 0.58170  0.30630  0.11480  Biso   1.000  H
  C30      1.0000 0.19810  0.16890  0.03690  Biso   1.000  C
  C31      1.0000 0.94930  0.17270  0.70060  Biso   1.000  C
  H21      1.0000 0.00640  0.14660  0.66680  Biso   1.000  H
  C32      1.0000 0.95360  0.14230  0.76940  Biso   1.000  C
  H22      1.0000 0.00990  0.09560  0.78130  Biso   1.000  H
  C33      1.0000 0.87430  0.18170  0.82000  Biso   1.000  C
  C34      1.0000 0.79130  0.24970  0.79910  Biso   1.000  C
  H23      1.0000 0.73690  0.27870  0.83240  Biso   1.000  H
  C35      1.0000 0.78950  0.27440  0.72850  Biso   1.000  C
  H24      1.0000 0.73070  0.31920  0.71480  Biso   1.000  H
  C36      1.0000 0.88110  0.15280  0.89690  Biso   1.000  C
  N11      1.0000 0.63650  0.20870  0.05520  Biso   1.000  N
  N12      1.0000 0.86790  0.23730  0.67940  Biso   1.000  N
  N13      1.0000 0.87880  0.07150  0.08510  Biso   1.000  N
  N14      1.0000 0.82900  0.03680  0.13330  Biso   1.000  N
  N15      1.0000 0.78500  0.00240  0.18190  Biso   1.000  N
  O9       1.0000 0.89340  0.07410  0.90811  Biso   1.000  O
  O10      1.0000 0.87120  0.21170  0.94202  Biso   1.000  O
  O11      1.0000 0.16120  0.10710  0.99930  Biso   1.000  O
  O12      1.0000 0.12050  0.21960  0.07033  Biso   1.000  O
  Cd4      1.0000 0.11647  0.71690  0.43902  Biso   1.000  Cd
  C37      1.0000 0.41810  0.64460  0.48340  Biso   1.000  C
  H25      1.0000 0.35750  0.60730  0.50690  Biso   1.000  H
  C38      1.0000 0.55700  0.63010  0.49090  Biso   1.000  C
  H26      1.0000 0.58890  0.58380  0.51810  Biso   1.000  H
  C39      1.0000 0.64890  0.68470  0.45770  Biso   1.000  C
  C40      1.0000 0.59300  0.75150  0.41830  Biso   1.000  C
  H27      1.0000 0.65140  0.79050  0.39530  Biso   1.000  H
  C41      1.0000 0.45270  0.76100  0.41280  Biso   1.000  C
  H28      1.0000 0.41830  0.80630  0.38520  Biso   1.000  H
  C42      1.0000 0.80190  0.66890  0.46310  Biso   1.000  C
  C43      1.0000 0.05070  0.67270  0.79940  Biso   1.000  C
  H29      1.0000 0.99360  0.64660  0.83320  Biso   1.000  H
  C44      1.0000 0.04640  0.64230  0.73060  Biso   1.000  C
  H30      1.0000 0.99010  0.59560  0.71870  Biso   1.000  H
  C45      1.0000 0.12570  0.68170  0.68000  Biso   1.000  C
  C46      1.0000 0.20870  0.74970  0.70090  Biso   1.000  C
  H31      1.0000 0.26310  0.77870  0.66760  Biso   1.000  H
  C47      1.0000 0.21050  0.77440  0.77150  Biso   1.000  C
  H32      1.0000 0.26930  0.81920  0.78520  Biso   1.000  H
  C48      1.0000 0.11890  0.65280  0.60310  Biso   1.000  C
  N16      1.0000 0.36350  0.70870  0.44480  Biso   1.000  N
  N17      1.0000 0.13210  0.73730  0.82060  Biso   1.000  N
  N18      1.0000 0.12120  0.57150  0.41490  Biso   1.000  N
  N19      1.0000 0.17100  0.53680  0.36670  Biso   1.000  N
  N20      1.0000 0.21500  0.50240  0.31810  Biso   1.000  N
  O13      1.0000 0.10660  0.57410  0.59189  Biso   1.000  O
  O14      1.0000 0.12880  0.71170  0.55798  Biso   1.000  O
  O15      1.0000 0.83880  0.60710  0.50070  Biso   1.000  O
  O16      1.0000 0.87950  0.71960  0.42967  Biso   1.000  O
  Cd5      1.0000 0.00000  0.00000  0.00000  Biso   1.000  Cd
  Cd6      1.0000 0.00000  0.50000  0.50000  Biso   1.000  Cd
