data_image0
_cell_length_a       9.628
_cell_length_b       21.337
_cell_length_c       13.208
_cell_angle_alpha    90
_cell_angle_beta     91.953
_cell_angle_gamma    90

_symmetry_space_group_name_H-M    "P 1"
_symmetry_int_tables_number       1

loop_
  _symmetry_equiv_pos_as_xyz
  'x, y, z'

loop_
  _atom_site_label
  _atom_site_occupancy
  _atom_site_fract_x
  _atom_site_fract_y
  _atom_site_fract_z
  _atom_site_thermal_displace_type
  _atom_site_B_iso_or_equiv
  _atom_site_type_symbol
  Cd1      1.0000 0.40554  0.90841  0.72577  Biso   1.000  Cd
  C1       1.0000 0.47510  0.73295  0.29050  Biso   1.000  C
  H1       1.0000 0.51560  0.73160  0.22760  Biso   1.000  H
  C2       1.0000 0.48040  0.78823  0.34490  Biso   1.000  C
  H2       1.0000 0.52470  0.82320  0.31900  Biso   1.000  H
  C3       1.0000 0.41970  0.79123  0.43770  Biso   1.000  C
  C4       1.0000 0.35820  0.73803  0.47210  Biso   1.000  C
  H3       1.0000 0.31780  0.73800  0.53510  Biso   1.000  H
  C5       1.0000 0.35570  0.68462  0.41420  Biso   1.000  C
  H4       1.0000 0.31140  0.64920  0.43840  Biso   1.000  H
  C6       1.0000 0.42000  0.85098  0.49920  Biso   1.000  C
  C7       1.0000 0.09880  0.91779  0.61900  Biso   1.000  C
  H5       1.0000 0.15720  0.92170  0.56480  Biso   1.000  H
  C8       1.0000 0.95850  0.92595  0.60150  Biso   1.000  C
  H6       1.0000 0.92390  0.93650  0.53720  Biso   1.000  H
  C9       1.0000 0.87000  0.91847  0.67990  Biso   1.000  C
  C10      1.0000 0.92810  0.90290  0.77280  Biso   1.000  C
  H7       1.0000 0.87160  0.89630  0.82750  Biso   1.000  H
  C11      1.0000 0.06980  0.89700  0.78490  Biso   1.000  C
  H8       1.0000 0.10710  0.88740  0.84880  Biso   1.000  H
  C12      1.0000 0.71610  0.92910  0.66400  Biso   1.000  C
  N1       1.0000 0.41440  0.68174  0.32450  Biso   1.000  N
  N2       1.0000 0.15530  0.90453  0.71000  Biso   1.000  N
  N3       1.0000 0.37740  0.00025  0.64190  Biso   1.000  N
  N4       1.0000 0.29890  0.04101  0.65870  Biso   1.000  N
  N5       1.0000 0.22340  0.08060  0.67540  Biso   1.000  N
  O1       1.0000 0.43030  0.90074  0.45150  Biso   1.000  O
  O2       1.0000 0.40580  0.84411  0.59144  Biso   1.000  O
  O3       1.0000 0.68010  0.95362  0.58300  Biso   1.000  O
  O4       1.0000 0.64020  0.91237  0.73390  Biso   1.000  O
  Cd2      1.0000 0.59446  0.40841  0.77423  Biso   1.000  Cd
  C13      1.0000 0.52490  0.23295  0.20950  Biso   1.000  C
  H9       1.0000 0.48440  0.23160  0.27240  Biso   1.000  H
  C14      1.0000 0.51960  0.28823  0.15510  Biso   1.000  C
  H10      1.0000 0.47530  0.32320  0.18100  Biso   1.000  H
  C15      1.0000 0.58030  0.29123  0.06230  Biso   1.000  C
  C16      1.0000 0.64180  0.23803  0.02790  Biso   1.000  C
  H11      1.0000 0.68220  0.23800  0.96490  Biso   1.000  H
  C17      1.0000 0.64430  0.18462  0.08580  Biso   1.000  C
  H12      1.0000 0.68860  0.14920  0.06160  Biso   1.000  H
  C18      1.0000 0.58000  0.35098  0.00080  Biso   1.000  C
  C19      1.0000 0.90120  0.41779  0.88100  Biso   1.000  C
  H13      1.0000 0.84280  0.42170  0.93520  Biso   1.000  H
  C20      1.0000 0.04150  0.42595  0.89850  Biso   1.000  C
  H14      1.0000 0.07610  0.43650  0.96280  Biso   1.000  H
  C21      1.0000 0.13000  0.41847  0.82010  Biso   1.000  C
  C22      1.0000 0.07190  0.40290  0.72720  Biso   1.000  C
  H15      1.0000 0.12840  0.39630  0.67250  Biso   1.000  H
  C23      1.0000 0.93020  0.39700  0.71510  Biso   1.000  C
  H16      1.0000 0.89290  0.38740  0.65120  Biso   1.000  H
  C24      1.0000 0.28390  0.42910  0.83600  Biso   1.000  C
  N6       1.0000 0.58560  0.18174  0.17550  Biso   1.000  N
  N7       1.0000 0.84470  0.40453  0.79000  Biso   1.000  N
  N8       1.0000 0.62260  0.50025  0.85810  Biso   1.000  N
  N9       1.0000 0.70110  0.54101  0.84130  Biso   1.000  N
  N10      1.0000 0.77660  0.58060  0.82460  Biso   1.000  N
  O5       1.0000 0.56970  0.40074  0.04850  Biso   1.000  O
  O6       1.0000 0.59420  0.34411  0.90856  Biso   1.000  O
  O7       1.0000 0.31990  0.45362  0.91700  Biso   1.000  O
  O8       1.0000 0.35980  0.41237  0.76610  Biso   1.000  O
  Cd3      1.0000 0.59446  0.09159  0.27423  Biso   1.000  Cd
  C25      1.0000 0.52490  0.26705  0.70950  Biso   1.000  C
  H17      1.0000 0.48440  0.26840  0.77240  Biso   1.000  H
  C26      1.0000 0.51960  0.21177  0.65510  Biso   1.000  C
  H18      1.0000 0.47530  0.17680  0.68100  Biso   1.000  H
  C27      1.0000 0.58030  0.20877  0.56230  Biso   1.000  C
  C28      1.0000 0.64180  0.26197  0.52790  Biso   1.000  C
  H19      1.0000 0.68220  0.26200  0.46490  Biso   1.000  H
  C29      1.0000 0.64430  0.31538  0.58580  Biso   1.000  C
  H20      1.0000 0.68860  0.35080  0.56160  Biso   1.000  H
  C30      1.0000 0.58000  0.14902  0.50080  Biso   1.000  C
  C31      1.0000 0.90120  0.08221  0.38100  Biso   1.000  C
  H21      1.0000 0.84280  0.07830  0.43520  Biso   1.000  H
  C32      1.0000 0.04150  0.07405  0.39850  Biso   1.000  C
  H22      1.0000 0.07610  0.06350  0.46280  Biso   1.000  H
  C33      1.0000 0.13000  0.08153  0.32010  Biso   1.000  C
  C34      1.0000 0.07190  0.09710  0.22720  Biso   1.000  C
  H23      1.0000 0.12840  0.10370  0.17250  Biso   1.000  H
  C35      1.0000 0.93020  0.10300  0.21510  Biso   1.000  C
  H24      1.0000 0.89290  0.11260  0.15120  Biso   1.000  H
  C36      1.0000 0.28390  0.07090  0.33600  Biso   1.000  C
  N11      1.0000 0.58560  0.31826  0.67550  Biso   1.000  N
  N12      1.0000 0.84470  0.09547  0.29000  Biso   1.000  N
  N13      1.0000 0.62260  0.99975  0.35810  Biso   1.000  N
  N14      1.0000 0.70110  0.95899  0.34130  Biso   1.000  N
  N15      1.0000 0.77660  0.91940  0.32460  Biso   1.000  N
  O9       1.0000 0.56970  0.09926  0.54850  Biso   1.000  O
  O10      1.0000 0.59420  0.15589  0.40856  Biso   1.000  O
  O11      1.0000 0.31990  0.04638  0.41700  Biso   1.000  O
  O12      1.0000 0.35980  0.08763  0.26610  Biso   1.000  O
  Cd4      1.0000 0.40554  0.59159  0.22577  Biso   1.000  Cd
  C37      1.0000 0.47510  0.76705  0.79050  Biso   1.000  C
  H25      1.0000 0.51560  0.76840  0.72760  Biso   1.000  H
  C38      1.0000 0.48040  0.71177  0.84490  Biso   1.000  C
  H26      1.0000 0.52470  0.67680  0.81900  Biso   1.000  H
  C39      1.0000 0.41970  0.70877  0.93770  Biso   1.000  C
  C40      1.0000 0.35820  0.76197  0.97210  Biso   1.000  C
  H27      1.0000 0.31780  0.76200  0.03510  Biso   1.000  H
  C41      1.0000 0.35570  0.81538  0.91420  Biso   1.000  C
  H28      1.0000 0.31140  0.85080  0.93840  Biso   1.000  H
  C42      1.0000 0.42000  0.64902  0.99920  Biso   1.000  C
  C43      1.0000 0.09880  0.58221  0.11900  Biso   1.000  C
  H29      1.0000 0.15720  0.57830  0.06480  Biso   1.000  H
  C44      1.0000 0.95850  0.57405  0.10150  Biso   1.000  C
  H30      1.0000 0.92390  0.56350  0.03720  Biso   1.000  H
  C45      1.0000 0.87000  0.58153  0.17990  Biso   1.000  C
  C46      1.0000 0.92810  0.59710  0.27280  Biso   1.000  C
  H31      1.0000 0.87160  0.60370  0.32750  Biso   1.000  H
  C47      1.0000 0.06980  0.60300  0.28490  Biso   1.000  C
  H32      1.0000 0.10710  0.61260  0.34880  Biso   1.000  H
  C48      1.0000 0.71610  0.57090  0.16400  Biso   1.000  C
  N16      1.0000 0.41440  0.81826  0.82450  Biso   1.000  N
  N17      1.0000 0.15530  0.59547  0.21000  Biso   1.000  N
  N18      1.0000 0.37740  0.49975  0.14190  Biso   1.000  N
  N19      1.0000 0.29890  0.45899  0.15870  Biso   1.000  N
  N20      1.0000 0.22340  0.41940  0.17540  Biso   1.000  N
  O13      1.0000 0.43030  0.59926  0.95150  Biso   1.000  O
  O14      1.0000 0.40580  0.65589  0.09144  Biso   1.000  O
  O15      1.0000 0.68010  0.54638  0.08300  Biso   1.000  O
  O16      1.0000 0.64020  0.58763  0.23390  Biso   1.000  O
  Cd5      1.0000 0.50000  0.00000  0.50000  Biso   1.000  Cd
  Cd6      1.0000 0.50000  0.50000  0.00000  Biso   1.000  Cd
