data_image0
_cell_length_a       11.029
_cell_length_b       22.762
_cell_length_c       14.48
_cell_angle_alpha    90
_cell_angle_beta     97.147
_cell_angle_gamma    90

_symmetry_space_group_name_H-M    "P 1"
_symmetry_int_tables_number       1

loop_
  _symmetry_equiv_pos_as_xyz
  'x, y, z'

loop_
  _atom_site_label
  _atom_site_occupancy
  _atom_site_fract_x
  _atom_site_fract_y
  _atom_site_fract_z
  _atom_site_thermal_displace_type
  _atom_site_B_iso_or_equiv
  _atom_site_type_symbol
  Cd1      1.0000 0.63583  0.92555  0.21634  Biso   1.000  Cd
  C1       1.0000 0.93750  0.90520  0.27470  Biso   1.000  C
  H1       1.0000 0.91460  0.89160  0.33050  Biso   1.000  H
  C2       1.0000 0.05960  0.90770  0.26600  Biso   1.000  C
  H2       1.0000 0.11720  0.89580  0.31480  Biso   1.000  H
  C3       1.0000 0.09660  0.92812  0.18400  Biso   1.000  C
  C4       1.0000 0.00550  0.94340  0.11340  Biso   1.000  C
  H3       1.0000 0.02570  0.95640  0.05640  Biso   1.000  H
  C5       1.0000 0.88620  0.93930  0.12800  Biso   1.000  C
  H4       1.0000 0.82680  0.94970  0.07940  Biso   1.000  H
  C6       1.0000 0.22500  0.93570  0.16930  Biso   1.000  C
  C7       1.0000 0.58210  0.70910  0.76260  Biso   1.000  C
  H5       1.0000 0.55220  0.70830  0.69970  Biso   1.000  H
  C8       1.0000 0.57730  0.76090  0.80920  Biso   1.000  C
  H6       1.0000 0.54620  0.79440  0.77810  Biso   1.000  H
  C9       1.0000 0.61920  0.76315  0.90320  Biso   1.000  C
  C10      1.0000 0.66580  0.71205  0.94530  Biso   1.000  C
  H7       1.0000 0.69540  0.71160  0.00830  Biso   1.000  H
  C11      1.0000 0.66780  0.66163  0.89250  Biso   1.000  C
  H8       1.0000 0.69940  0.62750  0.92170  Biso   1.000  H
  C12      1.0000 0.61230  0.81717  0.95660  Biso   1.000  C
  N1       1.0000 0.84930  0.92122  0.20760  Biso   1.000  N
  N2       1.0000 0.25670  0.96094  0.09260  Biso   1.000  N
  N3       1.0000 0.37690  0.96008  0.10470  Biso   1.000  N
  N4       1.0000 0.41760  0.93478  0.18600  Biso   1.000  N
  N5       1.0000 0.32200  0.91896  0.22840  Biso   1.000  N
  N6       1.0000 0.62710  0.65922  0.80210  Biso   1.000  N
  N7       1.0000 0.57330  0.86870  0.91910  Biso   1.000  N
  N8       1.0000 0.57770  0.90511  0.99110  Biso   1.000  N
  N9       1.0000 0.61670  0.87661  0.06910  Biso   1.000  N
  N10      1.0000 0.63950  0.82086  0.04890  Biso   1.000  N
  N11      1.0000 0.63610  0.01183  0.13190  Biso   1.000  N
  N12      1.0000 0.69780  0.05254  0.15220  Biso   1.000  N
  N13      1.0000 0.75720  0.09280  0.17310  Biso   1.000  N
  Cd2      1.0000 0.36417  0.42555  0.28366  Biso   1.000  Cd
  C13      1.0000 0.06250  0.40520  0.22530  Biso   1.000  C
  H9       1.0000 0.08540  0.39160  0.16950  Biso   1.000  H
  C14      1.0000 0.94040  0.40770  0.23400  Biso   1.000  C
  H10      1.0000 0.88280  0.39580  0.18520  Biso   1.000  H
  C15      1.0000 0.90340  0.42812  0.31600  Biso   1.000  C
  C16      1.0000 0.99450  0.44340  0.38660  Biso   1.000  C
  H11      1.0000 0.97430  0.45640  0.44360  Biso   1.000  H
  C17      1.0000 0.11380  0.43930  0.37200  Biso   1.000  C
  H12      1.0000 0.17320  0.44970  0.42060  Biso   1.000  H
  C18      1.0000 0.77500  0.43570  0.33070  Biso   1.000  C
  C19      1.0000 0.41790  0.20910  0.73740  Biso   1.000  C
  H13      1.0000 0.44780  0.20830  0.80030  Biso   1.000  H
  C20      1.0000 0.42270  0.26090  0.69080  Biso   1.000  C
  H14      1.0000 0.45380  0.29440  0.72190  Biso   1.000  H
  C21      1.0000 0.38080  0.26315  0.59680  Biso   1.000  C
  C22      1.0000 0.33420  0.21205  0.55470  Biso   1.000  C
  H15      1.0000 0.30460  0.21160  0.49170  Biso   1.000  H
  C23      1.0000 0.33220  0.16163  0.60750  Biso   1.000  C
  H16      1.0000 0.30060  0.12750  0.57830  Biso   1.000  H
  C24      1.0000 0.38770  0.31717  0.54340  Biso   1.000  C
  N14      1.0000 0.15070  0.42122  0.29240  Biso   1.000  N
  N15      1.0000 0.74330  0.46094  0.40740  Biso   1.000  N
  N16      1.0000 0.62310  0.46008  0.39530  Biso   1.000  N
  N17      1.0000 0.58240  0.43478  0.31400  Biso   1.000  N
  N18      1.0000 0.67800  0.41896  0.27160  Biso   1.000  N
  N19      1.0000 0.37290  0.15922  0.69790  Biso   1.000  N
  N20      1.0000 0.42670  0.36870  0.58090  Biso   1.000  N
  N21      1.0000 0.42230  0.40511  0.50890  Biso   1.000  N
  N22      1.0000 0.38330  0.37661  0.43090  Biso   1.000  N
  N23      1.0000 0.36050  0.32086  0.45110  Biso   1.000  N
  N24      1.0000 0.36390  0.51183  0.36810  Biso   1.000  N
  N25      1.0000 0.30220  0.55254  0.34780  Biso   1.000  N
  N26      1.0000 0.24280  0.59280  0.32690  Biso   1.000  N
  Cd3      1.0000 0.36417  0.07445  0.78366  Biso   1.000  Cd
  C25      1.0000 0.06250  0.09480  0.72530  Biso   1.000  C
  H17      1.0000 0.08540  0.10840  0.66950  Biso   1.000  H
  C26      1.0000 0.94040  0.09230  0.73400  Biso   1.000  C
  H18      1.0000 0.88280  0.10420  0.68520  Biso   1.000  H
  C27      1.0000 0.90340  0.07188  0.81600  Biso   1.000  C
  C28      1.0000 0.99450  0.05660  0.88660  Biso   1.000  C
  H19      1.0000 0.97430  0.04360  0.94360  Biso   1.000  H
  C29      1.0000 0.11380  0.06070  0.87200  Biso   1.000  C
  H20      1.0000 0.17320  0.05030  0.92060  Biso   1.000  H
  C30      1.0000 0.77500  0.06430  0.83070  Biso   1.000  C
  C31      1.0000 0.41790  0.29090  0.23740  Biso   1.000  C
  H21      1.0000 0.44780  0.29170  0.30030  Biso   1.000  H
  C32      1.0000 0.42270  0.23910  0.19080  Biso   1.000  C
  H22      1.0000 0.45380  0.20560  0.22190  Biso   1.000  H
  C33      1.0000 0.38080  0.23685  0.09680  Biso   1.000  C
  C34      1.0000 0.33420  0.28795  0.05470  Biso   1.000  C
  H23      1.0000 0.30460  0.28840  0.99170  Biso   1.000  H
  C35      1.0000 0.33220  0.33837  0.10750  Biso   1.000  C
  H24      1.0000 0.30060  0.37250  0.07830  Biso   1.000  H
  C36      1.0000 0.38770  0.18283  0.04340  Biso   1.000  C
  N27      1.0000 0.15070  0.07878  0.79240  Biso   1.000  N
  N28      1.0000 0.74330  0.03906  0.90740  Biso   1.000  N
  N29      1.0000 0.62310  0.03992  0.89530  Biso   1.000  N
  N30      1.0000 0.58240  0.06522  0.81400  Biso   1.000  N
  N31      1.0000 0.67800  0.08104  0.77160  Biso   1.000  N
  N32      1.0000 0.37290  0.34078  0.19790  Biso   1.000  N
  N33      1.0000 0.42670  0.13130  0.08090  Biso   1.000  N
  N34      1.0000 0.42230  0.09489  0.00890  Biso   1.000  N
  N35      1.0000 0.38330  0.12339  0.93090  Biso   1.000  N
  N36      1.0000 0.36050  0.17914  0.95110  Biso   1.000  N
  N37      1.0000 0.36390  0.98817  0.86810  Biso   1.000  N
  N38      1.0000 0.30220  0.94746  0.84780  Biso   1.000  N
  N39      1.0000 0.24280  0.90720  0.82690  Biso   1.000  N
  Cd4      1.0000 0.63583  0.57445  0.71634  Biso   1.000  Cd
  C37      1.0000 0.93750  0.59480  0.77470  Biso   1.000  C
  H25      1.0000 0.91460  0.60840  0.83050  Biso   1.000  H
  C38      1.0000 0.05960  0.59230  0.76600  Biso   1.000  C
  H26      1.0000 0.11720  0.60420  0.81480  Biso   1.000  H
  C39      1.0000 0.09660  0.57188  0.68400  Biso   1.000  C
  C40      1.0000 0.00550  0.55660  0.61340  Biso   1.000  C
  H27      1.0000 0.02570  0.54360  0.55640  Biso   1.000  H
  C41      1.0000 0.88620  0.56070  0.62800  Biso   1.000  C
  H28      1.0000 0.82680  0.55030  0.57940  Biso   1.000  H
  C42      1.0000 0.22500  0.56430  0.66930  Biso   1.000  C
  C43      1.0000 0.58210  0.79090  0.26260  Biso   1.000  C
  H29      1.0000 0.55220  0.79170  0.19970  Biso   1.000  H
  C44      1.0000 0.57730  0.73910  0.30920  Biso   1.000  C
  H30      1.0000 0.54620  0.70560  0.27810  Biso   1.000  H
  C45      1.0000 0.61920  0.73685  0.40320  Biso   1.000  C
  C46      1.0000 0.66580  0.78795  0.44530  Biso   1.000  C
  H31      1.0000 0.69540  0.78840  0.50830  Biso   1.000  H
  C47      1.0000 0.66780  0.83837  0.39250  Biso   1.000  C
  H32      1.0000 0.69940  0.87250  0.42170  Biso   1.000  H
  C48      1.0000 0.61230  0.68283  0.45660  Biso   1.000  C
  N40      1.0000 0.84930  0.57878  0.70760  Biso   1.000  N
  N41      1.0000 0.25670  0.53906  0.59260  Biso   1.000  N
  N42      1.0000 0.37690  0.53992  0.60470  Biso   1.000  N
  N43      1.0000 0.41760  0.56522  0.68600  Biso   1.000  N
  N44      1.0000 0.32200  0.58104  0.72840  Biso   1.000  N
  N45      1.0000 0.62710  0.84078  0.30210  Biso   1.000  N
  N46      1.0000 0.57330  0.63130  0.41910  Biso   1.000  N
  N47      1.0000 0.57770  0.59489  0.49110  Biso   1.000  N
  N48      1.0000 0.61670  0.62339  0.56910  Biso   1.000  N
  N49      1.0000 0.63950  0.67914  0.54890  Biso   1.000  N
  N50      1.0000 0.63610  0.48817  0.63190  Biso   1.000  N
  N51      1.0000 0.69780  0.44746  0.65220  Biso   1.000  N
  N52      1.0000 0.75720  0.40720  0.67310  Biso   1.000  N
  Cd5      1.0000 0.50000  0.00000  0.00000  Biso   1.000  Cd
  Cd6      1.0000 0.50000  0.50000  0.50000  Biso   1.000  Cd
