data_image0
_cell_length_a       11.054
_cell_length_b       22.723
_cell_length_c       14.666
_cell_angle_alpha    90
_cell_angle_beta     96.8
_cell_angle_gamma    90

_symmetry_space_group_name_H-M    "P 1"
_symmetry_int_tables_number       1

loop_
  _symmetry_equiv_pos_as_xyz
  'x, y, z'

loop_
  _atom_site_label
  _atom_site_occupancy
  _atom_site_fract_x
  _atom_site_fract_y
  _atom_site_fract_z
  _atom_site_thermal_displace_type
  _atom_site_B_iso_or_equiv
  _atom_site_type_symbol
  Cd1      1.0000 0.13925  0.92455  0.21106  Biso   1.000  Cd
  C1       1.0000 0.10570  0.71143  0.75730  Biso   1.000  C
  H1       1.0000 0.09080  0.71250  0.69360  Biso   1.000  H
  C2       1.0000 0.09670  0.76300  0.80530  Biso   1.000  C
  H2       1.0000 0.07670  0.79800  0.77430  Biso   1.000  H
  C3       1.0000 0.11760  0.76210  0.90013  Biso   1.000  C
  C4       1.0000 0.15000  0.70911  0.94210  Biso   1.000  C
  H3       1.0000 0.16660  0.70690  0.00560  Biso   1.000  H
  C5       1.0000 0.15740  0.65968  0.88900  Biso   1.000  C
  H4       1.0000 0.17920  0.62430  0.91820  Biso   1.000  H
  C6       1.0000 0.10720  0.81598  0.95316  Biso   1.000  C
  C7       1.0000 0.39030  0.93255  0.12040  Biso   1.000  C
  H5       1.0000 0.33190  0.94030  0.07090  Biso   1.000  H
  C8       1.0000 0.51010  0.93596  0.10720  Biso   1.000  C
  H6       1.0000 0.53170  0.94630  0.04990  Biso   1.000  H
  C9       1.0000 0.60020  0.92398  0.17960  Biso   1.000  C
  C10      1.0000 0.56200  0.90716  0.26170  Biso   1.000  C
  H7       1.0000 0.61870  0.89690  0.31110  Biso   1.000  H
  C11      1.0000 0.43850  0.90560  0.27040  Biso   1.000  C
  H8       1.0000 0.41460  0.89500  0.32680  Biso   1.000  H
  C12      1.0000 0.72840  0.93167  0.16536  Biso   1.000  C
  N1       1.0000 0.13480  0.65996  0.79792  Biso   1.000  N
  N2       1.0000 0.06960  0.86742  0.91689  Biso   1.000  N
  N3       1.0000 0.07340  0.90321  0.98799  Biso   1.000  N
  N4       1.0000 0.11290  0.87453  0.06417  Biso   1.000  N
  N5       1.0000 0.13420  0.81901  0.04378  Biso   1.000  N
  N6       1.0000 0.35210  0.91856  0.20182  Biso   1.000  N
  N7       1.0000 0.76120  0.95916  0.09230  Biso   1.000  N
  N8       1.0000 0.88120  0.95899  0.10483  Biso   1.000  N
  N9       1.0000 0.92020  0.93192  0.18243  Biso   1.000  N
  N10      1.0000 0.82460  0.91404  0.22294  Biso   1.000  N
  N11      1.0000 0.14270  0.00862  0.12526  Biso   1.000  N
  N12      1.0000 0.21900  0.04515  0.13470  Biso   1.000  N
  N13      1.0000 0.29310  0.08010  0.14340  Biso   1.000  N
  Cd2      1.0000 0.86075  0.42455  0.28894  Biso   1.000  Cd
  C13      1.0000 0.89430  0.21143  0.74270  Biso   1.000  C
  H9       1.0000 0.90920  0.21250  0.80640  Biso   1.000  H
  C14      1.0000 0.90330  0.26300  0.69470  Biso   1.000  C
  H10      1.0000 0.92330  0.29800  0.72570  Biso   1.000  H
  C15      1.0000 0.88240  0.26210  0.59987  Biso   1.000  C
  C16      1.0000 0.85000  0.20911  0.55790  Biso   1.000  C
  H11      1.0000 0.83340  0.20690  0.49440  Biso   1.000  H
  C17      1.0000 0.84260  0.15968  0.61100  Biso   1.000  C
  H12      1.0000 0.82080  0.12430  0.58180  Biso   1.000  H
  C18      1.0000 0.89280  0.31598  0.54684  Biso   1.000  C
  C19      1.0000 0.60970  0.43255  0.37960  Biso   1.000  C
  H13      1.0000 0.66810  0.44030  0.42910  Biso   1.000  H
  C20      1.0000 0.48990  0.43596  0.39280  Biso   1.000  C
  H14      1.0000 0.46830  0.44630  0.45010  Biso   1.000  H
  C21      1.0000 0.39980  0.42398  0.32040  Biso   1.000  C
  C22      1.0000 0.43800  0.40716  0.23830  Biso   1.000  C
  H15      1.0000 0.38130  0.39690  0.18890  Biso   1.000  H
  C23      1.0000 0.56150  0.40560  0.22960  Biso   1.000  C
  H16      1.0000 0.58540  0.39500  0.17320  Biso   1.000  H
  C24      1.0000 0.27160  0.43167  0.33464  Biso   1.000  C
  N14      1.0000 0.86520  0.15996  0.70208  Biso   1.000  N
  N15      1.0000 0.93040  0.36742  0.58311  Biso   1.000  N
  N16      1.0000 0.92660  0.40321  0.51201  Biso   1.000  N
  N17      1.0000 0.88710  0.37453  0.43583  Biso   1.000  N
  N18      1.0000 0.86580  0.31901  0.45622  Biso   1.000  N
  N19      1.0000 0.64790  0.41856  0.29818  Biso   1.000  N
  N20      1.0000 0.23880  0.45916  0.40770  Biso   1.000  N
  N21      1.0000 0.11880  0.45899  0.39517  Biso   1.000  N
  N22      1.0000 0.07980  0.43192  0.31757  Biso   1.000  N
  N23      1.0000 0.17540  0.41404  0.27706  Biso   1.000  N
  N24      1.0000 0.85730  0.50862  0.37474  Biso   1.000  N
  N25      1.0000 0.78100  0.54515  0.36530  Biso   1.000  N
  N26      1.0000 0.70690  0.58010  0.35660  Biso   1.000  N
  Cd3      1.0000 0.86075  0.07545  0.78894  Biso   1.000  Cd
  C25      1.0000 0.89430  0.28857  0.24270  Biso   1.000  C
  H17      1.0000 0.90920  0.28750  0.30640  Biso   1.000  H
  C26      1.0000 0.90330  0.23700  0.19470  Biso   1.000  C
  H18      1.0000 0.92330  0.20200  0.22570  Biso   1.000  H
  C27      1.0000 0.88240  0.23790  0.09987  Biso   1.000  C
  C28      1.0000 0.85000  0.29089  0.05790  Biso   1.000  C
  H19      1.0000 0.83340  0.29310  0.99440  Biso   1.000  H
  C29      1.0000 0.84260  0.34032  0.11100  Biso   1.000  C
  H20      1.0000 0.82080  0.37570  0.08180  Biso   1.000  H
  C30      1.0000 0.89280  0.18402  0.04684  Biso   1.000  C
  C31      1.0000 0.60970  0.06745  0.87960  Biso   1.000  C
  H21      1.0000 0.66810  0.05970  0.92910  Biso   1.000  H
  C32      1.0000 0.48990  0.06404  0.89280  Biso   1.000  C
  H22      1.0000 0.46830  0.05370  0.95010  Biso   1.000  H
  C33      1.0000 0.39980  0.07602  0.82040  Biso   1.000  C
  C34      1.0000 0.43800  0.09284  0.73830  Biso   1.000  C
  H23      1.0000 0.38130  0.10310  0.68890  Biso   1.000  H
  C35      1.0000 0.56150  0.09440  0.72960  Biso   1.000  C
  H24      1.0000 0.58540  0.10500  0.67320  Biso   1.000  H
  C36      1.0000 0.27160  0.06833  0.83464  Biso   1.000  C
  N27      1.0000 0.86520  0.34004  0.20208  Biso   1.000  N
  N28      1.0000 0.93040  0.13258  0.08311  Biso   1.000  N
  N29      1.0000 0.92660  0.09679  0.01201  Biso   1.000  N
  N30      1.0000 0.88710  0.12547  0.93583  Biso   1.000  N
  N31      1.0000 0.86580  0.18099  0.95622  Biso   1.000  N
  N32      1.0000 0.64790  0.08144  0.79818  Biso   1.000  N
  N33      1.0000 0.23880  0.04084  0.90770  Biso   1.000  N
  N34      1.0000 0.11880  0.04101  0.89517  Biso   1.000  N
  N35      1.0000 0.07980  0.06808  0.81757  Biso   1.000  N
  N36      1.0000 0.17540  0.08596  0.77706  Biso   1.000  N
  N37      1.0000 0.85730  0.99138  0.87474  Biso   1.000  N
  N38      1.0000 0.78100  0.95485  0.86530  Biso   1.000  N
  N39      1.0000 0.70690  0.91990  0.85660  Biso   1.000  N
  Cd4      1.0000 0.13925  0.57545  0.71106  Biso   1.000  Cd
  C37      1.0000 0.10570  0.78857  0.25730  Biso   1.000  C
  H25      1.0000 0.09080  0.78750  0.19360  Biso   1.000  H
  C38      1.0000 0.09670  0.73700  0.30530  Biso   1.000  C
  H26      1.0000 0.07670  0.70200  0.27430  Biso   1.000  H
  C39      1.0000 0.11760  0.73790  0.40013  Biso   1.000  C
  C40      1.0000 0.15000  0.79089  0.44210  Biso   1.000  C
  H27      1.0000 0.16660  0.79310  0.50560  Biso   1.000  H
  C41      1.0000 0.15740  0.84032  0.38900  Biso   1.000  C
  H28      1.0000 0.17920  0.87570  0.41820  Biso   1.000  H
  C42      1.0000 0.10720  0.68402  0.45316  Biso   1.000  C
  C43      1.0000 0.39030  0.56745  0.62040  Biso   1.000  C
  H29      1.0000 0.33190  0.55970  0.57090  Biso   1.000  H
  C44      1.0000 0.51010  0.56404  0.60720  Biso   1.000  C
  H30      1.0000 0.53170  0.55370  0.54990  Biso   1.000  H
  C45      1.0000 0.60020  0.57602  0.67960  Biso   1.000  C
  C46      1.0000 0.56200  0.59284  0.76170  Biso   1.000  C
  H31      1.0000 0.61870  0.60310  0.81110  Biso   1.000  H
  C47      1.0000 0.43850  0.59440  0.77040  Biso   1.000  C
  H32      1.0000 0.41460  0.60500  0.82680  Biso   1.000  H
  C48      1.0000 0.72840  0.56833  0.66536  Biso   1.000  C
  N40      1.0000 0.13480  0.84004  0.29792  Biso   1.000  N
  N41      1.0000 0.06960  0.63258  0.41689  Biso   1.000  N
  N42      1.0000 0.07340  0.59679  0.48799  Biso   1.000  N
  N43      1.0000 0.11290  0.62547  0.56417  Biso   1.000  N
  N44      1.0000 0.13420  0.68099  0.54378  Biso   1.000  N
  N45      1.0000 0.35210  0.58144  0.70182  Biso   1.000  N
  N46      1.0000 0.76120  0.54084  0.59230  Biso   1.000  N
  N47      1.0000 0.88120  0.54101  0.60483  Biso   1.000  N
  N48      1.0000 0.92020  0.56808  0.68243  Biso   1.000  N
  N49      1.0000 0.82460  0.58596  0.72294  Biso   1.000  N
  N50      1.0000 0.14270  0.49138  0.62526  Biso   1.000  N
  N51      1.0000 0.21900  0.45485  0.63470  Biso   1.000  N
  N52      1.0000 0.29310  0.41990  0.64340  Biso   1.000  N
  Cd5      1.0000 0.00000  0.00000  0.00000  Biso   1.000  Cd
  Cd6      1.0000 0.00000  0.50000  0.50000  Biso   1.000  Cd
