data_ROGLOP_clean
_audit_creation_date              2014-07-02
_audit_creation_method            'Materials Studio'
_symmetry_space_group_name_H-M    'P1'
_symmetry_Int_Tables_number       1
_symmetry_cell_setting            triclinic
loop_
_symmetry_equiv_pos_as_xyz
  x,y,z
_cell_length_a                    7.4933
_cell_length_b                    14.0605
_cell_length_c                    14.0605
_cell_angle_alpha                 97.7136
_cell_angle_beta                  101.3410
_cell_angle_gamma                 101.3410
loop_
_atom_site_label
_atom_site_type_symbol
_atom_site_fract_x
_atom_site_fract_y
_atom_site_fract_z
_atom_site_U_iso_or_equiv
_atom_site_adp_type
_atom_site_occupancy
Ni1    Ni    0.75000   0.41123   0.58877   0.01267  Uiso   1.00
Ni2    Ni    0.25000   0.58877   0.41123   0.01267  Uiso   1.00
Ni3    Ni    0.50000   0.00000   0.00000   0.01267  Uiso   1.00
Ni4    Ni    0.00000   0.00000   0.00000   0.01267  Uiso   1.00
H1     H     0.63100   0.13530   0.36830   0.01267  Uiso   1.00
H2     H     0.58230   0.01940   0.22860   0.01267  Uiso   1.00
H3     H     0.59930   0.33950   0.19710   0.01267  Uiso   1.00
H4     H     0.54520   0.21710   0.06210   0.01267  Uiso   1.00
H5     H     0.88400   0.23690   0.61910   0.01267  Uiso   1.00
H6     H     0.89760   0.12290   0.72870   0.01267  Uiso   1.00
H7     H     0.86900   0.63170   0.86470   0.01267  Uiso   1.00
H8     H     0.91770   0.77140   0.98060   0.01267  Uiso   1.00
H9     H     0.90070   0.80290   0.66050   0.01267  Uiso   1.00
H10    H     0.95480   0.93790   0.78290   0.01267  Uiso   1.00
H11    H     0.61600   0.38090   0.76310   0.01267  Uiso   1.00
H12    H     0.60240   0.27130   0.87710   0.01267  Uiso   1.00
H13    H     0.36900   0.86470   0.63170   0.01267  Uiso   1.00
H14    H     0.41770   0.98060   0.77140   0.01267  Uiso   1.00
H15    H     0.40070   0.66050   0.80290   0.01267  Uiso   1.00
H16    H     0.45480   0.78290   0.93790   0.01267  Uiso   1.00
H17    H     0.11600   0.76310   0.38090   0.01267  Uiso   1.00
H18    H     0.10240   0.87710   0.27130   0.01267  Uiso   1.00
H19    H     0.13100   0.36830   0.13530   0.01267  Uiso   1.00
H20    H     0.08230   0.22860   0.01940   0.01267  Uiso   1.00
H21    H     0.09930   0.19710   0.33950   0.01267  Uiso   1.00
H22    H     0.04520   0.06210   0.21710   0.01267  Uiso   1.00
H23    H     0.38400   0.61910   0.23690   0.01267  Uiso   1.00
H24    H     0.39760   0.72870   0.12290   0.01267  Uiso   1.00
C1     C     0.61520   0.15398   0.30674   0.01267  Uiso   1.00
C2     C     0.62180   0.25192   0.29858   0.01267  Uiso   1.00
C3     C     0.58470   0.08459   0.22205   0.01267  Uiso   1.00
C4     C     0.65870   0.33108   0.38818   0.01267  Uiso   1.00
C5     C     0.59570   0.27468   0.20562   0.01267  Uiso   1.00
C6     C     0.56380   0.20039   0.12447   0.01267  Uiso   1.00
C7     C     0.83210   0.24002   0.67398   0.01267  Uiso   1.00
C8     C     0.83680   0.17394   0.73786   0.01267  Uiso   1.00
C9     C     0.88480   0.69326   0.84602   0.01267  Uiso   1.00
C10    C     0.87820   0.70142   0.74808   0.01267  Uiso   1.00
C11    C     0.91530   0.77795   0.91541   0.01267  Uiso   1.00
C12    C     0.84130   0.61182   0.66892   0.01267  Uiso   1.00
C13    C     0.90430   0.79438   0.72532   0.01267  Uiso   1.00
C14    C     0.93620   0.87553   0.79961   0.01267  Uiso   1.00
C15    C     0.66790   0.32602   0.75998   0.01267  Uiso   1.00
C16    C     0.66320   0.26214   0.82606   0.01267  Uiso   1.00
C17    C     0.38480   0.84602   0.69326   0.01267  Uiso   1.00
C18    C     0.37820   0.74808   0.70142   0.01267  Uiso   1.00
C19    C     0.41530   0.91541   0.77795   0.01267  Uiso   1.00
C20    C     0.34130   0.66892   0.61182   0.01267  Uiso   1.00
C21    C     0.40430   0.72532   0.79438   0.01267  Uiso   1.00
C22    C     0.43620   0.79961   0.87553   0.01267  Uiso   1.00
C23    C     0.16790   0.75998   0.32602   0.01267  Uiso   1.00
C24    C     0.16320   0.82606   0.26214   0.01267  Uiso   1.00
C25    C     0.11520   0.30674   0.15398   0.01267  Uiso   1.00
C26    C     0.12180   0.29858   0.25192   0.01267  Uiso   1.00
C27    C     0.08470   0.22205   0.08459   0.01267  Uiso   1.00
C28    C     0.15870   0.38818   0.33108   0.01267  Uiso   1.00
C29    C     0.09570   0.20562   0.27468   0.01267  Uiso   1.00
C30    C     0.06380   0.12447   0.20039   0.01267  Uiso   1.00
C31    C     0.33210   0.67398   0.24002   0.01267  Uiso   1.00
C32    C     0.33680   0.73786   0.17394   0.01267  Uiso   1.00
C33    C     0.75000   0.11314   0.88686   0.01267  Uiso   1.00
C34    C     0.75000   0.18426   0.81574   0.01267  Uiso   1.00
C35    C     0.25000   0.88686   0.11314   0.01267  Uiso   1.00
C36    C     0.25000   0.81574   0.18426   0.01267  Uiso   1.00
N1     N     0.55870   0.10617   0.13145   0.01267  Uiso   1.00
N2     N     0.94130   0.86855   0.89383   0.01267  Uiso   1.00
N3     N     0.44130   0.89383   0.86855   0.01267  Uiso   1.00
N4     N     0.05870   0.13145   0.10617   0.01267  Uiso   1.00
N5     N     0.75000   0.31582   0.68418   0.01267  Uiso   1.00
N6     N     0.25000   0.68418   0.31582   0.01267  Uiso   1.00
N7     N     0.25000   0.04645   0.95355   0.01267  Uiso   1.00
N8     N     0.25000   0.10234   0.89766   0.01267  Uiso   1.00
N9     N     0.25000   0.15630   0.84370   0.01267  Uiso   1.00
N10    N     0.75000   0.95355   0.04645   0.01267  Uiso   1.00
N11    N     0.75000   0.89766   0.10234   0.01267  Uiso   1.00
N12    N     0.75000   0.84370   0.15630   0.01267  Uiso   1.00
O1     O     0.62640   0.10943   0.93573   0.01267  Uiso   1.00
O2     O     0.67070   0.41879   0.37653   0.01267  Uiso   1.00
O3     O     0.67610   0.30313   0.47075   0.01267  Uiso   1.00
O4     O     0.87360   0.06427   0.89057   0.01267  Uiso   1.00
O5     O     0.82930   0.62347   0.58121   0.01267  Uiso   1.00
O6     O     0.82390   0.52925   0.69687   0.01267  Uiso   1.00
O7     O     0.37360   0.89057   0.06427   0.01267  Uiso   1.00
O8     O     0.32930   0.58121   0.62347   0.01267  Uiso   1.00
O9     O     0.32390   0.69687   0.52925   0.01267  Uiso   1.00
O10    O     0.12640   0.93573   0.10943   0.01267  Uiso   1.00
O11    O     0.17070   0.37653   0.41879   0.01267  Uiso   1.00
O12    O     0.17610   0.47075   0.30313   0.01267  Uiso   1.00
