data_ROJNEJ_clean
_audit_creation_date              2014-07-02
_audit_creation_method            'Materials Studio'
_symmetry_space_group_name_H-M    'P1'
_symmetry_Int_Tables_number       1
_symmetry_cell_setting            triclinic
loop_
_symmetry_equiv_pos_as_xyz
  x,y,z
_cell_length_a                    7.1130
_cell_length_b                    9.9590
_cell_length_c                    9.9590
_cell_angle_alpha                 90.0000
_cell_angle_beta                  90.0000
_cell_angle_gamma                 90.0000
loop_
_atom_site_label
_atom_site_type_symbol
_atom_site_fract_x
_atom_site_fract_y
_atom_site_fract_z
_atom_site_U_iso_or_equiv
_atom_site_adp_type
_atom_site_occupancy
V1     V     0.50000   0.60910   0.89090   0.01267  Uiso   1.00
V2     V     0.50000   0.39090   0.10910   0.01267  Uiso   1.00
V3     V     0.50000   0.10910   0.60910   0.01267  Uiso   1.00
V4     V     0.50000   0.89090   0.39090   0.01267  Uiso   1.00
H1     H     0.50000   0.35630   0.85630   0.01267  Uiso   1.00
H2     H     0.50000   0.64370   0.14370   0.01267  Uiso   1.00
H3     H     0.50000   0.14370   0.35630   0.01267  Uiso   1.00
H4     H     0.50000   0.85630   0.64370   0.01267  Uiso   1.00
C1     C     0.50000   0.44220   0.41440   0.01267  Uiso   1.00
C2     C     0.50000   0.55780   0.58560   0.01267  Uiso   1.00
C3     C     0.50000   0.58560   0.44220   0.01267  Uiso   1.00
C4     C     0.50000   0.41440   0.55780   0.01267  Uiso   1.00
C5     C     0.50000   0.05780   0.91440   0.01267  Uiso   1.00
C6     C     0.50000   0.94220   0.08560   0.01267  Uiso   1.00
C7     C     0.50000   0.91440   0.94220   0.01267  Uiso   1.00
C8     C     0.50000   0.08560   0.05780   0.01267  Uiso   1.00
C9     C     0.10100   0.55160   0.94840   0.01267  Uiso   1.00
C10    C     0.10100   0.44840   0.05160   0.01267  Uiso   1.00
C11    C     0.10100   0.05160   0.55160   0.01267  Uiso   1.00
C12    C     0.10100   0.94840   0.44840   0.01267  Uiso   1.00
C13    C     0.89900   0.94840   0.44840   0.01267  Uiso   1.00
C14    C     0.89900   0.05160   0.55160   0.01267  Uiso   1.00
C15    C     0.89900   0.44840   0.05160   0.01267  Uiso   1.00
C16    C     0.89900   0.55160   0.94840   0.01267  Uiso   1.00
O1     O     0.50000   0.62990   0.68790   0.01267  Uiso   1.00
O2     O     0.50000   0.37010   0.31210   0.01267  Uiso   1.00
O3     O     0.50000   0.31210   0.62990   0.01267  Uiso   1.00
O4     O     0.50000   0.68790   0.37010   0.01267  Uiso   1.00
O5     O     0.50000   0.87010   0.18790   0.01267  Uiso   1.00
O6     O     0.50000   0.12990   0.81210   0.01267  Uiso   1.00
O7     O     0.50000   0.18790   0.12990   0.01267  Uiso   1.00
O8     O     0.50000   0.81210   0.87010   0.01267  Uiso   1.00
O9     O     0.22030   0.61750   0.88250   0.01267  Uiso   1.00
O10    O     0.22030   0.38250   0.11750   0.01267  Uiso   1.00
O11    O     0.22030   0.11750   0.61750   0.01267  Uiso   1.00
O12    O     0.22030   0.88250   0.38250   0.01267  Uiso   1.00
O13    O     0.77970   0.88250   0.38250   0.01267  Uiso   1.00
O14    O     0.77970   0.11750   0.61750   0.01267  Uiso   1.00
O15    O     0.77970   0.38250   0.11750   0.01267  Uiso   1.00
O16    O     0.77970   0.61750   0.88250   0.01267  Uiso   1.00
O17    O     0.50000   0.58620   0.08620   0.01267  Uiso   1.00
O18    O     0.50000   0.41380   0.91380   0.01267  Uiso   1.00
O19    O     0.50000   0.91380   0.58620   0.01267  Uiso   1.00
O20    O     0.50000   0.08620   0.41380   0.01267  Uiso   1.00
