data_image0
_cell_length_a       7.3338
_cell_length_b       7.3338
_cell_length_c       24.41
_cell_angle_alpha    90
_cell_angle_beta     90
_cell_angle_gamma    120

_symmetry_space_group_name_H-M    "P 1"
_symmetry_int_tables_number       1

loop_
  _symmetry_equiv_pos_as_xyz
  'x, y, z'

loop_
  _atom_site_label
  _atom_site_occupancy
  _atom_site_fract_x
  _atom_site_fract_y
  _atom_site_fract_z
  _atom_site_thermal_displace_type
  _atom_site_B_iso_or_equiv
  _atom_site_type_symbol
  O1       1.0000 0.33720  0.45100  0.13230  Biso   1.000  O
  O2       1.0000 0.92000  0.29950  0.96460  Biso   1.000  O
  O3       1.0000 0.14260  0.42010  0.03390  Biso   1.000  O
  C1       1.0000 0.03170  0.43350  0.99930  Biso   1.000  C
  H1       1.0000 0.02990  0.55930  0.99850  Biso   1.000  H
  O4       1.0000 0.54900  0.88620  0.46563  Biso   1.000  O
  O5       1.0000 0.70050  0.62050  0.29793  Biso   1.000  O
  O6       1.0000 0.57990  0.72250  0.36723  Biso   1.000  O
  C2       1.0000 0.56650  0.59820  0.33263  Biso   1.000  C
  H2       1.0000 0.44070  0.47060  0.33183  Biso   1.000  H
  O7       1.0000 0.11380  0.66280  0.79897  Biso   1.000  O
  O8       1.0000 0.37950  0.08000  0.63127  Biso   1.000  O
  O9       1.0000 0.27750  0.85740  0.70057  Biso   1.000  O
  C3       1.0000 0.40180  0.96830  0.66597  Biso   1.000  C
  H3       1.0000 0.52940  0.97010  0.66517  Biso   1.000  H
  O10      1.0000 0.66280  0.54900  0.63230  Biso   1.000  O
  O11      1.0000 0.08000  0.70050  0.46460  Biso   1.000  O
  O12      1.0000 0.85740  0.57990  0.53390  Biso   1.000  O
  C4       1.0000 0.96830  0.56650  0.49930  Biso   1.000  C
  H4       1.0000 0.97010  0.44070  0.49850  Biso   1.000  H
  O13      1.0000 0.45100  0.11380  0.96563  Biso   1.000  O
  O14      1.0000 0.29950  0.37950  0.79793  Biso   1.000  O
  O15      1.0000 0.42010  0.27750  0.86723  Biso   1.000  O
  C5       1.0000 0.43350  0.40180  0.83263  Biso   1.000  C
  H5       1.0000 0.55930  0.52940  0.83183  Biso   1.000  H
  O16      1.0000 0.88620  0.33720  0.29897  Biso   1.000  O
  O17      1.0000 0.62050  0.92000  0.13127  Biso   1.000  O
  O18      1.0000 0.72250  0.14260  0.20057  Biso   1.000  O
  C6       1.0000 0.59820  0.03170  0.16597  Biso   1.000  C
  H6       1.0000 0.47060  0.02990  0.16517  Biso   1.000  H
  O19      1.0000 0.45100  0.33720  0.20103  Biso   1.000  O
  O20      1.0000 0.29950  0.92000  0.36873  Biso   1.000  O
  O21      1.0000 0.42010  0.14260  0.29943  Biso   1.000  O
  C7       1.0000 0.43350  0.03170  0.33403  Biso   1.000  C
  H7       1.0000 0.55930  0.02990  0.33483  Biso   1.000  H
  O22      1.0000 0.88620  0.54900  0.86770  Biso   1.000  O
  O23      1.0000 0.62050  0.70050  0.03540  Biso   1.000  O
  O24      1.0000 0.72250  0.57990  0.96610  Biso   1.000  O
  C8       1.0000 0.59820  0.56650  0.00070  Biso   1.000  C
  H8       1.0000 0.47060  0.44070  0.00150  Biso   1.000  H
  O25      1.0000 0.66280  0.11380  0.53437  Biso   1.000  O
  O26      1.0000 0.08000  0.37950  0.70207  Biso   1.000  O
  O27      1.0000 0.85740  0.27750  0.63277  Biso   1.000  O
  C9       1.0000 0.96830  0.40180  0.66737  Biso   1.000  C
  H9       1.0000 0.97010  0.52940  0.66817  Biso   1.000  H
  O28      1.0000 0.54900  0.66280  0.70103  Biso   1.000  O
  O29      1.0000 0.70050  0.08000  0.86873  Biso   1.000  O
  O30      1.0000 0.57990  0.85740  0.79943  Biso   1.000  O
  C10      1.0000 0.56650  0.96830  0.83403  Biso   1.000  C
  H10      1.0000 0.44070  0.97010  0.83483  Biso   1.000  H
  O31      1.0000 0.11380  0.45100  0.36770  Biso   1.000  O
  O32      1.0000 0.37950  0.29950  0.53540  Biso   1.000  O
  O33      1.0000 0.27750  0.42010  0.46610  Biso   1.000  O
  C11      1.0000 0.40180  0.43350  0.50070  Biso   1.000  C
  H11      1.0000 0.52940  0.55930  0.50150  Biso   1.000  H
  O34      1.0000 0.33720  0.88620  0.03437  Biso   1.000  O
  O35      1.0000 0.92000  0.62050  0.20207  Biso   1.000  O
  O36      1.0000 0.14260  0.72250  0.13277  Biso   1.000  O
  C12      1.0000 0.03170  0.59820  0.16737  Biso   1.000  C
  H12      1.0000 0.02990  0.47060  0.16817  Biso   1.000  H
  Cu1      1.0000 0.36398  0.68199  0.08333  Biso   1.000  Cu
  Cu2      1.0000 0.31801  0.68199  0.41667  Biso   1.000  Cu
  Cu3      1.0000 0.31801  0.63602  0.75000  Biso   1.000  Cu
  Cu4      1.0000 0.63602  0.31801  0.58333  Biso   1.000  Cu
  Cu5      1.0000 0.68199  0.31801  0.91667  Biso   1.000  Cu
  Cu6      1.0000 0.68199  0.36398  0.25000  Biso   1.000  Cu
  C13      1.0000 0.47400  0.47400  0.16667  Biso   1.000  C
  H13      1.0000 0.60080  0.60080  0.16667  Biso   1.000  H
  C14      1.0000 0.52600  0.00000  0.50000  Biso   1.000  C
  H14      1.0000 0.39920  0.00000  0.50000  Biso   1.000  H
  C15      1.0000 0.00000  0.52600  0.83333  Biso   1.000  C
  H15      1.0000 0.00000  0.39920  0.83333  Biso   1.000  H
  C16      1.0000 0.52600  0.52600  0.66667  Biso   1.000  C
  H16      1.0000 0.39920  0.39920  0.66667  Biso   1.000  H
  C17      1.0000 0.47400  0.00000  0.00000  Biso   1.000  C
  H17      1.0000 0.60080  0.00000  0.00000  Biso   1.000  H
  C18      1.0000 0.00000  0.47400  0.33333  Biso   1.000  C
  H18      1.0000 0.00000  0.60080  0.33333  Biso   1.000  H
