data_image0
_cell_length_a       9.5782
_cell_length_b       12.778
_cell_length_c       18.945
_cell_angle_alpha    107.49
_cell_angle_beta     99.21
_cell_angle_gamma    97.89

_symmetry_space_group_name_H-M    "P 1"
_symmetry_int_tables_number       1

loop_
  _symmetry_equiv_pos_as_xyz
  'x, y, z'

loop_
  _atom_site_label
  _atom_site_occupancy
  _atom_site_fract_x
  _atom_site_fract_y
  _atom_site_fract_z
  _atom_site_thermal_displace_type
  _atom_site_B_iso_or_equiv
  _atom_site_type_symbol
  C1       1.0000 0.89490  0.40370  0.07520  Biso   1.000  C
  C2       1.0000 0.96920  0.33290  0.10360  Biso   1.000  C
  C3       1.0000 0.91270  0.21880  0.08000  Biso   1.000  C
  C4       1.0000 0.77980  0.17430  0.03050  Biso   1.000  C
  C5       1.0000 0.70210  0.24560  0.00320  Biso   1.000  C
  C6       1.0000 0.76090  0.35940  0.02390  Biso   1.000  C
  C7       1.0000 0.67740  0.43380  0.99020  Biso   1.000  C
  H1       1.0000 0.66620  0.40810  0.93620  Biso   1.000  H
  H2       1.0000 0.72960  0.50970  0.01070  Biso   1.000  H
  H3       1.0000 0.58400  0.43000  0.00280  Biso   1.000  H
  C8       1.0000 0.11330  0.38100  0.16150  Biso   1.000  C
  H4       1.0000 0.10190  0.37300  0.20920  Biso   1.000  H
  H5       1.0000 0.14250  0.45880  0.16790  Biso   1.000  H
  H6       1.0000 0.18550  0.34110  0.14350  Biso   1.000  H
  C9       1.0000 0.71960  0.05020  0.00660  Biso   1.000  C
  H7       1.0000 0.78630  0.01520  0.03060  Biso   1.000  H
  H8       1.0000 0.70530  0.01800  0.95260  Biso   1.000  H
  H9       1.0000 0.62910  0.03860  0.02160  Biso   1.000  H
  C10      1.0000 0.96380  0.52370  0.09640  Biso   1.000  C
  H10      1.0000 0.92030  0.55370  0.05880  Biso   1.000  H
  H11      1.0000 0.06530  0.52870  0.09510  Biso   1.000  H
  C11      1.0000 0.06920  0.66260  0.22340  Biso   1.000  C
  H12      1.0000 0.15900  0.65920  0.21110  Biso   1.000  H
  C12      1.0000 0.06050  0.73610  0.29180  Biso   1.000  C
  H13      1.0000 0.14310  0.78230  0.32550  Biso   1.000  H
  C13      1.0000 0.92570  0.73960  0.30950  Biso   1.000  C
  C14      1.0000 0.80640  0.66760  0.25940  Biso   1.000  C
  H14      1.0000 0.71600  0.66890  0.27120  Biso   1.000  H
  C15      1.0000 0.81920  0.59210  0.19060  Biso   1.000  C
  H15      1.0000 0.73930  0.54130  0.15770  Biso   1.000  H
  C16      1.0000 0.91180  0.82360  0.38080  Biso   1.000  C
  C17      1.0000 0.55560  0.20000  0.95040  Biso   1.000  C
  H16      1.0000 0.50700  0.13780  0.96230  Biso   1.000  H
  H17      1.0000 0.49820  0.25780  0.95900  Biso   1.000  H
  C18      1.0000 0.44010  0.14230  0.81650  Biso   1.000  C
  H18      1.0000 0.35490  0.15410  0.83240  Biso   1.000  H
  C19      1.0000 0.43940  0.10620  0.74120  Biso   1.000  C
  H19      1.0000 0.35390  0.09430  0.70620  Biso   1.000  H
  C20      1.0000 0.56480  0.08690  0.71610  Biso   1.000  C
  C21      1.0000 0.68780  0.10420  0.77000  Biso   1.000  C
  H20      1.0000 0.77300  0.09020  0.75480  Biso   1.000  H
  C22      1.0000 0.68730  0.14190  0.84570  Biso   1.000  C
  H21      1.0000 0.77180  0.15420  0.88150  Biso   1.000  H
  C23      1.0000 0.56890  0.04770  0.63300  Biso   1.000  C
  C24      1.0000 0.00120  0.14470  0.10530  Biso   1.000  C
  H22      1.0000 0.10070  0.16950  0.10390  Biso   1.000  H
  H23      1.0000 0.96890  0.06930  0.06960  Biso   1.000  H
  C25      1.0000 0.86980  0.13850  0.20710  Biso   1.000  C
  H24      1.0000 0.78880  0.14670  0.17640  Biso   1.000  H
  C26      1.0000 0.85890  0.12420  0.27460  Biso   1.000  C
  H25      1.0000 0.77100  0.12160  0.28960  Biso   1.000  H
  C27      1.0000 0.98010  0.11350  0.32070  Biso   1.000  C
  C28      1.0000 0.10870  0.11960  0.29650  Biso   1.000  C
  H26      1.0000 0.19260  0.11650  0.32750  Biso   1.000  H
  C29      1.0000 0.11310  0.13010  0.22680  Biso   1.000  C
  H27      1.0000 0.19870  0.12960  0.20960  Biso   1.000  H
  C30      1.0000 0.97750  0.09570  0.39590  Biso   1.000  C
  Eu1      1.0000 0.23569  0.01276  0.50249  Biso   1.000  Eu
  N1       1.0000 0.95060  0.59560  0.17390  Biso   1.000  N
  N2       1.0000 0.56310  0.16110  0.86810  Biso   1.000  N
  N3       1.0000 0.99560  0.14110  0.18400  Biso   1.000  N
  O1       1.0000 0.78900  0.82990  0.39240  Biso   1.000  O
  O2       1.0000 0.02640  0.88530  0.42380  Biso   1.000  O
  O3       1.0000 0.45320  0.03450  0.58700  Biso   1.000  O
  O4       1.0000 0.68560  0.03070  0.61570  Biso   1.000  O
  O5       1.0000 0.85580  0.06460  0.40690  Biso   1.000  O
  O6       1.0000 0.09640  0.10970  0.43800  Biso   1.000  O
  O7       1.0000 0.40020  0.18390  0.50670  Biso   1.000  O
  H28      1.0000 0.46200  0.24780  0.50840  Biso   1.000  H
  O8       1.0000 0.29460  0.82680  0.47990  Biso   1.000  O
  H29      1.0000 0.31700  0.75610  0.47130  Biso   1.000  H
  C31      1.0000 0.10510  0.59630  0.92480  Biso   1.000  C
  C32      1.0000 0.03080  0.66710  0.89640  Biso   1.000  C
  C33      1.0000 0.08730  0.78120  0.92000  Biso   1.000  C
  C34      1.0000 0.22020  0.82570  0.96950  Biso   1.000  C
  C35      1.0000 0.29790  0.75440  0.99680  Biso   1.000  C
  C36      1.0000 0.23910  0.64060  0.97610  Biso   1.000  C
  C37      1.0000 0.32260  0.56620  0.00980  Biso   1.000  C
  H30      1.0000 0.33380  0.59190  0.06380  Biso   1.000  H
  H31      1.0000 0.27040  0.49030  0.98930  Biso   1.000  H
  H32      1.0000 0.41600  0.57000  0.99720  Biso   1.000  H
  C38      1.0000 0.88670  0.61900  0.83850  Biso   1.000  C
  H33      1.0000 0.89810  0.62700  0.79080  Biso   1.000  H
  H34      1.0000 0.85750  0.54120  0.83210  Biso   1.000  H
  H35      1.0000 0.81450  0.65890  0.85650  Biso   1.000  H
  C39      1.0000 0.28040  0.94980  0.99340  Biso   1.000  C
  H36      1.0000 0.21370  0.98480  0.96940  Biso   1.000  H
  H37      1.0000 0.29470  0.98200  0.04740  Biso   1.000  H
  H38      1.0000 0.37090  0.96140  0.97840  Biso   1.000  H
  C40      1.0000 0.03620  0.47630  0.90360  Biso   1.000  C
  H39      1.0000 0.07970  0.44630  0.94120  Biso   1.000  H
  H40      1.0000 0.93470  0.47130  0.90490  Biso   1.000  H
  C41      1.0000 0.93080  0.33740  0.77660  Biso   1.000  C
  H41      1.0000 0.84100  0.34080  0.78890  Biso   1.000  H
  C42      1.0000 0.93950  0.26390  0.70820  Biso   1.000  C
  H42      1.0000 0.85690  0.21770  0.67450  Biso   1.000  H
  C43      1.0000 0.07430  0.26040  0.69050  Biso   1.000  C
  C44      1.0000 0.19360  0.33240  0.74060  Biso   1.000  C
  H43      1.0000 0.28400  0.33110  0.72880  Biso   1.000  H
  C45      1.0000 0.18080  0.40790  0.80940  Biso   1.000  C
  H44      1.0000 0.26070  0.45870  0.84230  Biso   1.000  H
  C46      1.0000 0.08820  0.17640  0.61920  Biso   1.000  C
  C47      1.0000 0.44440  0.80000  0.04960  Biso   1.000  C
  H45      1.0000 0.49300  0.86220  0.03770  Biso   1.000  H
  H46      1.0000 0.50180  0.74220  0.04100  Biso   1.000  H
  C48      1.0000 0.55990  0.85770  0.18350  Biso   1.000  C
  H47      1.0000 0.64510  0.84590  0.16760  Biso   1.000  H
  C49      1.0000 0.56060  0.89380  0.25880  Biso   1.000  C
  H48      1.0000 0.64610  0.90570  0.29380  Biso   1.000  H
  C50      1.0000 0.43520  0.91310  0.28390  Biso   1.000  C
  C51      1.0000 0.31220  0.89580  0.23000  Biso   1.000  C
  H49      1.0000 0.22700  0.90980  0.24520  Biso   1.000  H
  C52      1.0000 0.31270  0.85810  0.15430  Biso   1.000  C
  H50      1.0000 0.22820  0.84580  0.11850  Biso   1.000  H
  C53      1.0000 0.43110  0.95230  0.36700  Biso   1.000  C
  C54      1.0000 0.99880  0.85530  0.89470  Biso   1.000  C
  H51      1.0000 0.89930  0.83050  0.89610  Biso   1.000  H
  H52      1.0000 0.03110  0.93070  0.93040  Biso   1.000  H
  C55      1.0000 0.13020  0.86150  0.79290  Biso   1.000  C
  H53      1.0000 0.21120  0.85330  0.82360  Biso   1.000  H
  C56      1.0000 0.14110  0.87580  0.72540  Biso   1.000  C
  H54      1.0000 0.22900  0.87840  0.71040  Biso   1.000  H
  C57      1.0000 0.01990  0.88650  0.67930  Biso   1.000  C
  C58      1.0000 0.89130  0.88040  0.70350  Biso   1.000  C
  H55      1.0000 0.80740  0.88350  0.67250  Biso   1.000  H
  C59      1.0000 0.88690  0.86990  0.77320  Biso   1.000  C
  H56      1.0000 0.80130  0.87040  0.79040  Biso   1.000  H
  C60      1.0000 0.02250  0.90430  0.60410  Biso   1.000  C
  Eu2      1.0000 0.76431  0.98724  0.49751  Biso   1.000  Eu
  N4       1.0000 0.04940  0.40440  0.82610  Biso   1.000  N
  N5       1.0000 0.43690  0.83890  0.13190  Biso   1.000  N
  N6       1.0000 0.00440  0.85890  0.81600  Biso   1.000  N
  O9       1.0000 0.21100  0.17010  0.60760  Biso   1.000  O
  O10      1.0000 0.97360  0.11470  0.57620  Biso   1.000  O
  O11      1.0000 0.54680  0.96550  0.41300  Biso   1.000  O
  O12      1.0000 0.31440  0.96930  0.38430  Biso   1.000  O
  O13      1.0000 0.14420  0.93540  0.59310  Biso   1.000  O
  O14      1.0000 0.90360  0.89030  0.56200  Biso   1.000  O
  O15      1.0000 0.59980  0.81610  0.49330  Biso   1.000  O
  H57      1.0000 0.53800  0.75220  0.49160  Biso   1.000  H
  O16      1.0000 0.70540  0.17320  0.52010  Biso   1.000  O
  H58      1.0000 0.68300  0.24390  0.52870  Biso   1.000  H
