data_RONZUP_clean_h
_audit_creation_date              2014-07-02
_audit_creation_method            'Materials Studio'
_symmetry_space_group_name_H-M    'P1'
_symmetry_Int_Tables_number       1
_symmetry_cell_setting            triclinic
loop_
_symmetry_equiv_pos_as_xyz
  x,y,z
_cell_length_a                    11.0888
_cell_length_b                    11.0888
_cell_length_c                    11.0888
_cell_angle_alpha                 107.5570
_cell_angle_beta                  109.1120
_cell_angle_gamma                 111.7730
loop_
_atom_site_label
_atom_site_type_symbol
_atom_site_fract_x
_atom_site_fract_y
_atom_site_fract_z
_atom_site_U_iso_or_equiv
_atom_site_adp_type
_atom_site_occupancy
Cd1    Cd    0.25000   0.12772   0.87772   0.01267  Uiso   1.00
Ag1    Ag    0.28025   0.64157   0.88548   0.01267  Uiso   1.00
Ag2    Ag    0.21975   0.10523   0.36132   0.01267  Uiso   1.00
C1     C     0.28130   0.82020   0.85970   0.01267  Uiso   1.00
C2     C     0.27920   0.46840   0.92200   0.01267  Uiso   1.00
C3     C     0.91260   0.01740   0.65420   0.01267  Uiso   1.00
C4     C     0.75720   0.93220   0.57540   0.01267  Uiso   1.00
C5     C     0.68300   0.82200   0.60700   0.01267  Uiso   1.00
C6     C     0.76880   0.80280   0.71600   0.01267  Uiso   1.00
C7     C     0.92070   0.88890   0.78360   0.01267  Uiso   1.00
C8     C     0.21870   0.07840   0.53890   0.01267  Uiso   1.00
C9     C     0.22080   0.14280   0.18920   0.01267  Uiso   1.00
C10    C     0.58740   0.24160   0.10480   0.01267  Uiso   1.00
C11    C     0.74280   0.31820   0.17500   0.01267  Uiso   1.00
C12    C     0.81700   0.42400   0.13900   0.01267  Uiso   1.00
C13    C     0.73120   0.44720   0.03400   0.01267  Uiso   1.00
C14    C     0.57930   0.36290   0.96820   0.01267  Uiso   1.00
N1     N     0.26870   0.91690   0.85220   0.01267  Uiso   1.00
N2     N     0.26720   0.36340   0.92260   0.01267  Uiso   1.00
N3     N     0.99280   0.99620   0.75540   0.01267  Uiso   1.00
N4     N     0.23130   0.08350   0.64820   0.01267  Uiso   1.00
N5     N     0.23280   0.15540   0.09620   0.01267  Uiso   1.00
N6     N     0.50720   0.26260   0.00340   0.01267  Uiso   1.00
Cd2    Cd    0.75000   0.37228   0.62228   0.01267  Uiso   1.00
Ag3    Ag    0.25609   0.39477   0.61452   0.01267  Uiso   1.00
Ag4    Ag    0.24391   0.85843   0.13868   0.01267  Uiso   1.00
C15    C     0.46050   0.42160   0.64030   0.01267  Uiso   1.00
C16    C     0.04640   0.35720   0.57800   0.01267  Uiso   1.00
C17    C     0.86320   0.25840   0.84580   0.01267  Uiso   1.00
C18    C     0.85680   0.18180   0.92460   0.01267  Uiso   1.00
C19    C     0.71500   0.07600   0.89300   0.01267  Uiso   1.00
C20    C     0.58680   0.05280   0.78400   0.01267  Uiso   1.00
C21    C     0.60530   0.13710   0.71640   0.01267  Uiso   1.00
C22    C     0.03950   0.67980   0.96110   0.01267  Uiso   1.00
C23    C     0.45360   0.03160   0.31080   0.01267  Uiso   1.00
C24    C     0.63680   0.48260   0.39520   0.01267  Uiso   1.00
C25    C     0.64320   0.56780   0.32500   0.01267  Uiso   1.00
C26    C     0.78500   0.67800   0.36100   0.01267  Uiso   1.00
C27    C     0.91320   0.69720   0.46600   0.01267  Uiso   1.00
C28    C     0.89470   0.61110   0.53180   0.01267  Uiso   1.00
N7     N     0.56470   0.41650   0.64780   0.01267  Uiso   1.00
N8     N     0.94080   0.34460   0.57740   0.01267  Uiso   1.00
N9     N     0.74080   0.23740   0.74460   0.01267  Uiso   1.00
N10    N     0.93530   0.58310   0.85180   0.01267  Uiso   1.00
N11    N     0.55920   0.13660   0.40380   0.01267  Uiso   1.00
N12    N     0.75920   0.50380   0.49660   0.01267  Uiso   1.00
H1     H     0.97532   0.10899   0.63288   0.01267  Uiso   1.00
H2     H     0.69264   0.95210   0.48760   0.01267  Uiso   1.00
H3     H     0.55566   0.75069   0.54429   0.01267  Uiso   1.00
H4     H     0.71129   0.71705   0.74590   0.01267  Uiso   1.00
H5     H     0.99395   0.87237   0.86888   0.01267  Uiso   1.00
H6     H     0.52468   0.15756   0.13366   0.01267  Uiso   1.00
H7     H     0.80736   0.29496   0.25946   0.01267  Uiso   1.00
H8     H     0.94434   0.48863   0.19503   0.01267  Uiso   1.00
H9     H     0.78871   0.53461   0.00575   0.01267  Uiso   1.00
H10    H     0.50605   0.37492   0.87842   0.01267  Uiso   1.00
H11    H     0.97611   0.34244   0.86712   0.01267  Uiso   1.00
H12    H     0.96451   0.20504   0.01240   0.01267  Uiso   1.00
H13    H     0.70640   0.01137   0.95571   0.01267  Uiso   1.00
H14    H     0.47115   0.96539   0.75410   0.01267  Uiso   1.00
H15    H     0.50350   0.12508   0.63112   0.01267  Uiso   1.00
H16    H     0.52389   0.39101   0.36634   0.01267  Uiso   1.00
H17    H     0.53549   0.54790   0.24054   0.01267  Uiso   1.00
H18    H     0.79360   0.74931   0.30497   0.01267  Uiso   1.00
H19    H     0.02885   0.78295   0.49425   0.01267  Uiso   1.00
H20    H     0.99650   0.62763   0.62158   0.01267  Uiso   1.00
