data_image0
_cell_length_a       12.535
_cell_length_b       29.517
_cell_length_c       14.704
_cell_angle_alpha    90
_cell_angle_beta     93.95
_cell_angle_gamma    90

_symmetry_space_group_name_H-M    "P 1"
_symmetry_int_tables_number       1

loop_
  _symmetry_equiv_pos_as_xyz
  'x, y, z'

loop_
  _atom_site_label
  _atom_site_occupancy
  _atom_site_fract_x
  _atom_site_fract_y
  _atom_site_fract_z
  _atom_site_thermal_displace_type
  _atom_site_B_iso_or_equiv
  _atom_site_type_symbol
  Ag1      1.0000 0.45200  0.77237  0.62330  Biso   1.000  Ag
  Ag2      1.0000 0.95800  0.75394  0.68280  Biso   1.000  Ag
  Ag3      1.0000 0.73540  0.90557  0.43230  Biso   1.000  Ag
  Ag4      1.0000 0.70900  0.60371  0.45040  Biso   1.000  Ag
  Ag5      1.0000 0.26140  0.91356  0.26634  Biso   1.000  Ag
  Ag6      1.0000 0.21000  0.92768  0.82445  Biso   1.000  Ag
  N1       1.0000 0.45570  0.82860  0.51230  Biso   1.000  N
  C1       1.0000 0.54530  0.85280  0.51260  Biso   1.000  C
  H1       1.0000 0.59350  0.85070  0.56330  Biso   1.000  H
  N2       1.0000 0.56960  0.87940  0.44610  Biso   1.000  N
  C2       1.0000 0.49670  0.88570  0.37820  Biso   1.000  C
  H2       1.0000 0.51320  0.90490  0.33100  Biso   1.000  H
  N3       1.0000 0.40170  0.86640  0.37360  Biso   1.000  N
  C3       1.0000 0.39010  0.83630  0.43760  Biso   1.000  C
  H3       1.0000 0.32950  0.81810  0.43050  Biso   1.000  H
  N4       1.0000 0.31060  0.72980  0.66310  Biso   1.000  N
  C4       1.0000 0.21150  0.74600  0.65850  Biso   1.000  C
  H4       1.0000 0.20050  0.77550  0.63740  Biso   1.000  H
  N5       1.0000 0.12870  0.72320  0.68160  Biso   1.000  N
  C5       1.0000 0.14620  0.68050  0.70860  Biso   1.000  C
  H5       1.0000 0.08720  0.66380  0.72410  Biso   1.000  H
  N6       1.0000 0.24030  0.84010  0.21520  Biso   1.000  N
  C6       1.0000 0.32090  0.68780  0.69180  Biso   1.000  C
  H6       1.0000 0.38970  0.67590  0.69660  Biso   1.000  H
  N7       1.0000 0.60650  0.72940  0.60360  Biso   1.000  N
  C7       1.0000 0.61010  0.69290  0.55650  Biso   1.000  C
  H7       1.0000 0.54560  0.68210  0.52990  Biso   1.000  H
  N8       1.0000 0.69910  0.66860  0.54200  Biso   1.000  N
  C8       1.0000 0.79010  0.68840  0.57670  Biso   1.000  C
  H8       1.0000 0.85430  0.67460  0.56470  Biso   1.000  H
  N9       1.0000 0.79610  0.72550  0.62580  Biso   1.000  N
  C9       1.0000 0.70230  0.74620  0.63530  Biso   1.000  C
  H9       1.0000 0.70330  0.77380  0.66570  Biso   1.000  H
  N10      1.0000 0.96390  0.81690  0.77820  Biso   1.000  N
  C10      1.0000 0.89560  0.82550  0.84400  Biso   1.000  C
  H10      1.0000 0.84120  0.80450  0.85050  Biso   1.000  H
  N11      1.0000 0.89900  0.85990  0.89850  Biso   1.000  N
  C11      1.0000 0.97960  0.88700  0.88790  Biso   1.000  C
  H11      1.0000 0.98520  0.91200  0.92660  Biso   1.000  H
  N12      1.0000 0.05540  0.88320  0.82810  Biso   1.000  N
  C12      1.0000 0.04070  0.84920  0.77340  Biso   1.000  C
  H12      1.0000 0.08670  0.84660  0.72660  Biso   1.000  H
  N13      1.0000 0.87810  0.85170  0.44200  Biso   1.000  N
  C13      1.0000 0.90800  0.82960  0.51670  Biso   1.000  C
  H13      1.0000 0.88520  0.84090  0.57120  Biso   1.000  H
  N14      1.0000 0.96720  0.79300  0.52120  Biso   1.000  N
  C14      1.0000 0.99900  0.77770  0.43750  Biso   1.000  C
  H14      1.0000 0.04500  0.75300  0.43780  Biso   1.000  H
  N15      1.0000 0.96930  0.79520  0.36090  Biso   1.000  N
  C15      1.0000 0.91110  0.83420  0.36290  Biso   1.000  C
  H15      1.0000 0.89340  0.84930  0.30840  Biso   1.000  H
  N16      1.0000 0.74750  0.52770  0.44560  Biso   1.000  N
  C16      1.0000 0.75870  0.50570  0.52510  Biso   1.000  C
  H16      1.0000 0.76090  0.52240  0.57870  Biso   1.000  H
  N17      1.0000 0.23280  0.96030  0.96940  Biso   1.000  N
  C17      1.0000 0.23310  0.93870  0.04910  Biso   1.000  C
  H17      1.0000 0.22240  0.90760  0.04740  Biso   1.000  H
  N18      1.0000 0.24690  0.95760  0.12950  Biso   1.000  N
  C18      1.0000 0.74260  0.50230  0.37010  Biso   1.000  C
  H18      1.0000 0.73120  0.51680  0.31420  Biso   1.000  H
  N19      1.0000 0.13740  0.97850  0.72000  Biso   1.000  N
  C19      1.0000 0.19540  0.00930  0.67980  Biso   1.000  C
  H19      1.0000 0.26790  0.01000  0.69770  Biso   1.000  H
  N20      1.0000 0.83860  0.96140  0.38240  Biso   1.000  N
  C20      1.0000 0.93700  0.96520  0.40850  Biso   1.000  C
  H20      1.0000 0.96260  0.94580  0.45490  Biso   1.000  H
  N21      1.0000 0.00730  0.99390  0.37640  Biso   1.000  N
  C21      1.0000 0.03660  0.97900  0.68720  Biso   1.000  C
  H21      1.0000 0.99150  0.95780  0.71160  Biso   1.000  H
  N22      1.0000 0.37550  0.89810  0.80030  Biso   1.000  N
  C22      1.0000 0.38540  0.86450  0.73870  Biso   1.000  C
  H22      1.0000 0.32970  0.86060  0.69420  Biso   1.000  H
  N23      1.0000 0.46700  0.83720  0.73720  Biso   1.000  N
  C23      1.0000 0.54430  0.84550  0.79900  Biso   1.000  C
  H23      1.0000 0.60330  0.82630  0.80060  Biso   1.000  H
  N24      1.0000 0.54640  0.62180  0.35860  Biso   1.000  N
  C24      1.0000 0.45820  0.90370  0.85730  Biso   1.000  C
  H24      1.0000 0.45600  0.92690  0.89990  Biso   1.000  H
  Ag7      1.0000 0.54800  0.27237  0.87670  Biso   1.000  Ag
  Ag8      1.0000 0.04200  0.25394  0.81720  Biso   1.000  Ag
  Ag9      1.0000 0.26460  0.40557  0.06770  Biso   1.000  Ag
  Ag10     1.0000 0.29100  0.10371  0.04960  Biso   1.000  Ag
  Ag11     1.0000 0.73860  0.41356  0.23366  Biso   1.000  Ag
  Ag12     1.0000 0.79000  0.42768  0.67555  Biso   1.000  Ag
  N25      1.0000 0.54430  0.32860  0.98770  Biso   1.000  N
  C25      1.0000 0.45470  0.35280  0.98740  Biso   1.000  C
  H25      1.0000 0.40650  0.35070  0.93670  Biso   1.000  H
  N26      1.0000 0.43040  0.37940  0.05390  Biso   1.000  N
  C26      1.0000 0.50330  0.38570  0.12180  Biso   1.000  C
  H26      1.0000 0.48680  0.40490  0.16900  Biso   1.000  H
  N27      1.0000 0.59830  0.36640  0.12640  Biso   1.000  N
  C27      1.0000 0.60990  0.33630  0.06240  Biso   1.000  C
  H27      1.0000 0.67050  0.31810  0.06950  Biso   1.000  H
  N28      1.0000 0.68940  0.22980  0.83690  Biso   1.000  N
  C28      1.0000 0.78850  0.24600  0.84150  Biso   1.000  C
  H28      1.0000 0.79950  0.27550  0.86260  Biso   1.000  H
  N29      1.0000 0.87130  0.22320  0.81840  Biso   1.000  N
  C29      1.0000 0.85380  0.18050  0.79140  Biso   1.000  C
  H29      1.0000 0.91280  0.16380  0.77590  Biso   1.000  H
  N30      1.0000 0.75970  0.34010  0.28480  Biso   1.000  N
  C30      1.0000 0.67910  0.18780  0.80820  Biso   1.000  C
  H30      1.0000 0.61030  0.17590  0.80340  Biso   1.000  H
  N31      1.0000 0.39350  0.22940  0.89640  Biso   1.000  N
  C31      1.0000 0.38990  0.19290  0.94350  Biso   1.000  C
  H31      1.0000 0.45440  0.18210  0.97010  Biso   1.000  H
  N32      1.0000 0.30090  0.16860  0.95800  Biso   1.000  N
  C32      1.0000 0.20990  0.18840  0.92330  Biso   1.000  C
  H32      1.0000 0.14570  0.17460  0.93530  Biso   1.000  H
  N33      1.0000 0.20390  0.22550  0.87420  Biso   1.000  N
  C33      1.0000 0.29770  0.24620  0.86470  Biso   1.000  C
  H33      1.0000 0.29670  0.27380  0.83430  Biso   1.000  H
  N34      1.0000 0.03610  0.31690  0.72180  Biso   1.000  N
  C34      1.0000 0.10440  0.32550  0.65600  Biso   1.000  C
  H34      1.0000 0.15880  0.30450  0.64950  Biso   1.000  H
  N35      1.0000 0.10100  0.35990  0.60150  Biso   1.000  N
  C35      1.0000 0.02040  0.38700  0.61210  Biso   1.000  C
  H35      1.0000 0.01480  0.41200  0.57340  Biso   1.000  H
  N36      1.0000 0.94460  0.38320  0.67190  Biso   1.000  N
  C36      1.0000 0.95930  0.34920  0.72660  Biso   1.000  C
  H36      1.0000 0.91330  0.34660  0.77340  Biso   1.000  H
  N37      1.0000 0.12190  0.35170  0.05800  Biso   1.000  N
  C37      1.0000 0.09200  0.32960  0.98330  Biso   1.000  C
  H37      1.0000 0.11480  0.34090  0.92880  Biso   1.000  H
  N38      1.0000 0.03280  0.29300  0.97880  Biso   1.000  N
  C38      1.0000 0.00100  0.27770  0.06250  Biso   1.000  C
  H38      1.0000 0.95500  0.25300  0.06220  Biso   1.000  H
  N39      1.0000 0.03070  0.29520  0.13910  Biso   1.000  N
  C39      1.0000 0.08890  0.33420  0.13710  Biso   1.000  C
  H39      1.0000 0.10660  0.34930  0.19160  Biso   1.000  H
  N40      1.0000 0.25250  0.02770  0.05440  Biso   1.000  N
  C40      1.0000 0.24130  0.00570  0.97490  Biso   1.000  C
  H40      1.0000 0.23910  0.02240  0.92130  Biso   1.000  H
  N41      1.0000 0.76720  0.46030  0.53060  Biso   1.000  N
  C41      1.0000 0.76690  0.43870  0.45090  Biso   1.000  C
  H41      1.0000 0.77760  0.40760  0.45260  Biso   1.000  H
  N42      1.0000 0.75310  0.45760  0.37050  Biso   1.000  N
  C42      1.0000 0.25740  0.00230  0.12990  Biso   1.000  C
  H42      1.0000 0.26880  0.01680  0.18580  Biso   1.000  H
  N43      1.0000 0.86260  0.47850  0.78000  Biso   1.000  N
  C43      1.0000 0.80460  0.50930  0.82020  Biso   1.000  C
  H43      1.0000 0.73210  0.51000  0.80230  Biso   1.000  H
  N44      1.0000 0.16140  0.46140  0.11760  Biso   1.000  N
  C44      1.0000 0.06300  0.46520  0.09150  Biso   1.000  C
  H44      1.0000 0.03740  0.44580  0.04510  Biso   1.000  H
  N45      1.0000 0.99270  0.49390  0.12360  Biso   1.000  N
  C45      1.0000 0.96340  0.47900  0.81280  Biso   1.000  C
  H45      1.0000 0.00850  0.45780  0.78840  Biso   1.000  H
  N46      1.0000 0.62450  0.39810  0.69970  Biso   1.000  N
  C46      1.0000 0.61460  0.36450  0.76130  Biso   1.000  C
  H46      1.0000 0.67030  0.36060  0.80580  Biso   1.000  H
  N47      1.0000 0.53300  0.33720  0.76280  Biso   1.000  N
  C47      1.0000 0.45570  0.34550  0.70100  Biso   1.000  C
  H47      1.0000 0.39670  0.32630  0.69940  Biso   1.000  H
  N48      1.0000 0.45360  0.12180  0.14140  Biso   1.000  N
  C48      1.0000 0.54180  0.40370  0.64270  Biso   1.000  C
  H48      1.0000 0.54400  0.42690  0.60010  Biso   1.000  H
  Ag13     1.0000 0.54800  0.22763  0.37670  Biso   1.000  Ag
  Ag14     1.0000 0.04200  0.24606  0.31720  Biso   1.000  Ag
  Ag15     1.0000 0.26460  0.09443  0.56770  Biso   1.000  Ag
  Ag16     1.0000 0.29100  0.39629  0.54960  Biso   1.000  Ag
  Ag17     1.0000 0.73860  0.08644  0.73366  Biso   1.000  Ag
  Ag18     1.0000 0.79000  0.07232  0.17555  Biso   1.000  Ag
  N49      1.0000 0.54430  0.17140  0.48770  Biso   1.000  N
  C49      1.0000 0.45470  0.14720  0.48740  Biso   1.000  C
  H49      1.0000 0.40650  0.14930  0.43670  Biso   1.000  H
  N50      1.0000 0.43040  0.12060  0.55390  Biso   1.000  N
  C50      1.0000 0.50330  0.11430  0.62180  Biso   1.000  C
  H50      1.0000 0.48680  0.09510  0.66900  Biso   1.000  H
  N51      1.0000 0.59830  0.13360  0.62640  Biso   1.000  N
  C51      1.0000 0.60990  0.16370  0.56240  Biso   1.000  C
  H51      1.0000 0.67050  0.18190  0.56950  Biso   1.000  H
  N52      1.0000 0.68940  0.27020  0.33690  Biso   1.000  N
  C52      1.0000 0.78850  0.25400  0.34150  Biso   1.000  C
  H52      1.0000 0.79950  0.22450  0.36260  Biso   1.000  H
  N53      1.0000 0.87130  0.27680  0.31840  Biso   1.000  N
  C53      1.0000 0.85380  0.31950  0.29140  Biso   1.000  C
  H53      1.0000 0.91280  0.33620  0.27590  Biso   1.000  H
  N54      1.0000 0.75970  0.15990  0.78480  Biso   1.000  N
  C54      1.0000 0.67910  0.31220  0.30820  Biso   1.000  C
  H54      1.0000 0.61030  0.32410  0.30340  Biso   1.000  H
  N55      1.0000 0.39350  0.27060  0.39640  Biso   1.000  N
  C55      1.0000 0.38990  0.30710  0.44350  Biso   1.000  C
  H55      1.0000 0.45440  0.31790  0.47010  Biso   1.000  H
  N56      1.0000 0.30090  0.33140  0.45800  Biso   1.000  N
  C56      1.0000 0.20990  0.31160  0.42330  Biso   1.000  C
  H56      1.0000 0.14570  0.32540  0.43530  Biso   1.000  H
  N57      1.0000 0.20390  0.27450  0.37420  Biso   1.000  N
  C57      1.0000 0.29770  0.25380  0.36470  Biso   1.000  C
  H57      1.0000 0.29670  0.22620  0.33430  Biso   1.000  H
  N58      1.0000 0.03610  0.18310  0.22180  Biso   1.000  N
  C58      1.0000 0.10440  0.17450  0.15600  Biso   1.000  C
  H58      1.0000 0.15880  0.19550  0.14950  Biso   1.000  H
  N59      1.0000 0.10100  0.14010  0.10150  Biso   1.000  N
  C59      1.0000 0.02040  0.11300  0.11210  Biso   1.000  C
  H59      1.0000 0.01480  0.08800  0.07340  Biso   1.000  H
  N60      1.0000 0.94460  0.11680  0.17190  Biso   1.000  N
  C60      1.0000 0.95930  0.15080  0.22660  Biso   1.000  C
  H60      1.0000 0.91330  0.15340  0.27340  Biso   1.000  H
  N61      1.0000 0.12190  0.14830  0.55800  Biso   1.000  N
  C61      1.0000 0.09200  0.17040  0.48330  Biso   1.000  C
  H61      1.0000 0.11480  0.15910  0.42880  Biso   1.000  H
  N62      1.0000 0.03280  0.20700  0.47880  Biso   1.000  N
  C62      1.0000 0.00100  0.22230  0.56250  Biso   1.000  C
  H62      1.0000 0.95500  0.24700  0.56220  Biso   1.000  H
  N63      1.0000 0.03070  0.20480  0.63910  Biso   1.000  N
  C63      1.0000 0.08890  0.16580  0.63710  Biso   1.000  C
  H63      1.0000 0.10660  0.15070  0.69160  Biso   1.000  H
  N64      1.0000 0.25250  0.47230  0.55440  Biso   1.000  N
  C64      1.0000 0.24130  0.49430  0.47490  Biso   1.000  C
  H64      1.0000 0.23910  0.47760  0.42130  Biso   1.000  H
  N65      1.0000 0.76720  0.03970  0.03060  Biso   1.000  N
  C65      1.0000 0.76690  0.06130  0.95090  Biso   1.000  C
  H65      1.0000 0.77760  0.09240  0.95260  Biso   1.000  H
  N66      1.0000 0.75310  0.04240  0.87050  Biso   1.000  N
  C66      1.0000 0.25740  0.49770  0.62990  Biso   1.000  C
  H66      1.0000 0.26880  0.48320  0.68580  Biso   1.000  H
  N67      1.0000 0.86260  0.02150  0.28000  Biso   1.000  N
  C67      1.0000 0.80460  0.99070  0.32020  Biso   1.000  C
  H67      1.0000 0.73210  0.99000  0.30230  Biso   1.000  H
  N68      1.0000 0.16140  0.03860  0.61760  Biso   1.000  N
  C68      1.0000 0.06300  0.03480  0.59150  Biso   1.000  C
  H68      1.0000 0.03740  0.05420  0.54510  Biso   1.000  H
  N69      1.0000 0.99270  0.00610  0.62360  Biso   1.000  N
  C69      1.0000 0.96340  0.02100  0.31280  Biso   1.000  C
  H69      1.0000 0.00850  0.04220  0.28840  Biso   1.000  H
  N70      1.0000 0.62450  0.10190  0.19970  Biso   1.000  N
  C70      1.0000 0.61460  0.13550  0.26130  Biso   1.000  C
  H70      1.0000 0.67030  0.13940  0.30580  Biso   1.000  H
  N71      1.0000 0.53300  0.16280  0.26280  Biso   1.000  N
  C71      1.0000 0.45570  0.15450  0.20100  Biso   1.000  C
  H71      1.0000 0.39670  0.17370  0.19940  Biso   1.000  H
  N72      1.0000 0.45360  0.37820  0.64140  Biso   1.000  N
  C72      1.0000 0.54180  0.09630  0.14270  Biso   1.000  C
  H72      1.0000 0.54400  0.07310  0.10010  Biso   1.000  H
  Ag19     1.0000 0.45200  0.72763  0.12330  Biso   1.000  Ag
  Ag20     1.0000 0.95800  0.74606  0.18280  Biso   1.000  Ag
  Ag21     1.0000 0.73540  0.59443  0.93230  Biso   1.000  Ag
  Ag22     1.0000 0.70900  0.89629  0.95040  Biso   1.000  Ag
  Ag23     1.0000 0.26140  0.58644  0.76634  Biso   1.000  Ag
  Ag24     1.0000 0.21000  0.57232  0.32445  Biso   1.000  Ag
  N73      1.0000 0.45570  0.67140  0.01230  Biso   1.000  N
  C73      1.0000 0.54530  0.64720  0.01260  Biso   1.000  C
  H73      1.0000 0.59350  0.64930  0.06330  Biso   1.000  H
  N74      1.0000 0.56960  0.62060  0.94610  Biso   1.000  N
  C74      1.0000 0.49670  0.61430  0.87820  Biso   1.000  C
  H74      1.0000 0.51320  0.59510  0.83100  Biso   1.000  H
  N75      1.0000 0.40170  0.63360  0.87360  Biso   1.000  N
  C75      1.0000 0.39010  0.66370  0.93760  Biso   1.000  C
  H75      1.0000 0.32950  0.68190  0.93050  Biso   1.000  H
  N76      1.0000 0.31060  0.77020  0.16310  Biso   1.000  N
  C76      1.0000 0.21150  0.75400  0.15850  Biso   1.000  C
  H76      1.0000 0.20050  0.72450  0.13740  Biso   1.000  H
  N77      1.0000 0.12870  0.77680  0.18160  Biso   1.000  N
  C77      1.0000 0.14620  0.81950  0.20860  Biso   1.000  C
  H77      1.0000 0.08720  0.83620  0.22410  Biso   1.000  H
  N78      1.0000 0.24030  0.65990  0.71520  Biso   1.000  N
  C78      1.0000 0.32090  0.81220  0.19180  Biso   1.000  C
  H78      1.0000 0.38970  0.82410  0.19660  Biso   1.000  H
  N79      1.0000 0.60650  0.77060  0.10360  Biso   1.000  N
  C79      1.0000 0.61010  0.80710  0.05650  Biso   1.000  C
  H79      1.0000 0.54560  0.81790  0.02990  Biso   1.000  H
  N80      1.0000 0.69910  0.83140  0.04200  Biso   1.000  N
  C80      1.0000 0.79010  0.81160  0.07670  Biso   1.000  C
  H80      1.0000 0.85430  0.82540  0.06470  Biso   1.000  H
  N81      1.0000 0.79610  0.77450  0.12580  Biso   1.000  N
  C81      1.0000 0.70230  0.75380  0.13530  Biso   1.000  C
  H81      1.0000 0.70330  0.72620  0.16570  Biso   1.000  H
  N82      1.0000 0.96390  0.68310  0.27820  Biso   1.000  N
  C82      1.0000 0.89560  0.67450  0.34400  Biso   1.000  C
  H82      1.0000 0.84120  0.69550  0.35050  Biso   1.000  H
  N83      1.0000 0.89900  0.64010  0.39850  Biso   1.000  N
  C83      1.0000 0.97960  0.61300  0.38790  Biso   1.000  C
  H83      1.0000 0.98520  0.58800  0.42660  Biso   1.000  H
  N84      1.0000 0.05540  0.61680  0.32810  Biso   1.000  N
  C84      1.0000 0.04070  0.65080  0.27340  Biso   1.000  C
  H84      1.0000 0.08670  0.65340  0.22660  Biso   1.000  H
  N85      1.0000 0.87810  0.64830  0.94200  Biso   1.000  N
  C85      1.0000 0.90800  0.67040  0.01670  Biso   1.000  C
  H85      1.0000 0.88520  0.65910  0.07120  Biso   1.000  H
  N86      1.0000 0.96720  0.70700  0.02120  Biso   1.000  N
  C86      1.0000 0.99900  0.72230  0.93750  Biso   1.000  C
  H86      1.0000 0.04500  0.74700  0.93780  Biso   1.000  H
  N87      1.0000 0.96930  0.70480  0.86090  Biso   1.000  N
  C87      1.0000 0.91110  0.66580  0.86290  Biso   1.000  C
  H87      1.0000 0.89340  0.65070  0.80840  Biso   1.000  H
  N88      1.0000 0.74750  0.97230  0.94560  Biso   1.000  N
  C88      1.0000 0.75870  0.99430  0.02510  Biso   1.000  C
  H88      1.0000 0.76090  0.97760  0.07870  Biso   1.000  H
  N89      1.0000 0.23280  0.53970  0.46940  Biso   1.000  N
  C89      1.0000 0.23310  0.56130  0.54910  Biso   1.000  C
  H89      1.0000 0.22240  0.59240  0.54740  Biso   1.000  H
  N90      1.0000 0.24690  0.54240  0.62950  Biso   1.000  N
  C90      1.0000 0.74260  0.99770  0.87010  Biso   1.000  C
  H90      1.0000 0.73120  0.98320  0.81420  Biso   1.000  H
  N91      1.0000 0.13740  0.52150  0.22000  Biso   1.000  N
  C91      1.0000 0.19540  0.49070  0.17980  Biso   1.000  C
  H91      1.0000 0.26790  0.49000  0.19770  Biso   1.000  H
  N92      1.0000 0.83860  0.53860  0.88240  Biso   1.000  N
  C92      1.0000 0.93700  0.53480  0.90850  Biso   1.000  C
  H92      1.0000 0.96260  0.55420  0.95490  Biso   1.000  H
  N93      1.0000 0.00730  0.50610  0.87640  Biso   1.000  N
  C93      1.0000 0.03660  0.52100  0.18720  Biso   1.000  C
  H93      1.0000 0.99150  0.54220  0.21160  Biso   1.000  H
  N94      1.0000 0.37550  0.60190  0.30030  Biso   1.000  N
  C94      1.0000 0.38540  0.63550  0.23870  Biso   1.000  C
  H94      1.0000 0.32970  0.63940  0.19420  Biso   1.000  H
  N95      1.0000 0.46700  0.66280  0.23720  Biso   1.000  N
  C95      1.0000 0.54430  0.65450  0.29900  Biso   1.000  C
  H95      1.0000 0.60330  0.67370  0.30060  Biso   1.000  H
  N96      1.0000 0.54640  0.87820  0.85860  Biso   1.000  N
  C96      1.0000 0.45820  0.59630  0.35730  Biso   1.000  C
  H96      1.0000 0.45600  0.57310  0.39990  Biso   1.000  H
