data_image0
_cell_length_a       12.9147
_cell_length_b       12.9147
_cell_length_c       12.9147
_cell_angle_alpha    90
_cell_angle_beta     90
_cell_angle_gamma    90

_symmetry_space_group_name_H-M    "P 1"
_symmetry_int_tables_number       1

loop_
  _symmetry_equiv_pos_as_xyz
  'x, y, z'

loop_
  _atom_site_label
  _atom_site_occupancy
  _atom_site_fract_x
  _atom_site_fract_y
  _atom_site_fract_z
  _atom_site_thermal_displace_type
  _atom_site_B_iso_or_equiv
  _atom_site_type_symbol
  N1       1.0000 0.64311  0.94068  0.95666  Biso   1.000  N
  N2       1.0000 0.72550  0.98155  0.96628  Biso   1.000  N
  N3       1.0000 0.80685  0.01692  0.97285  Biso   1.000  N
  N4       1.0000 0.85689  0.05932  0.45666  Biso   1.000  N
  N5       1.0000 0.77450  0.01845  0.46628  Biso   1.000  N
  N6       1.0000 0.69315  0.98308  0.47285  Biso   1.000  N
  N7       1.0000 0.35689  0.44068  0.54334  Biso   1.000  N
  N8       1.0000 0.27450  0.48155  0.53372  Biso   1.000  N
  N9       1.0000 0.19315  0.51692  0.52715  Biso   1.000  N
  N10      1.0000 0.14311  0.55932  0.04334  Biso   1.000  N
  N11      1.0000 0.22550  0.51845  0.03372  Biso   1.000  N
  N12      1.0000 0.30685  0.48308  0.02715  Biso   1.000  N
  N13      1.0000 0.95666  0.64311  0.94068  Biso   1.000  N
  N14      1.0000 0.96628  0.72550  0.98155  Biso   1.000  N
  N15      1.0000 0.97285  0.80685  0.01692  Biso   1.000  N
  N16      1.0000 0.45666  0.85689  0.05932  Biso   1.000  N
  N17      1.0000 0.46628  0.77450  0.01845  Biso   1.000  N
  N18      1.0000 0.47285  0.69315  0.98308  Biso   1.000  N
  N19      1.0000 0.54334  0.35689  0.44068  Biso   1.000  N
  N20      1.0000 0.53372  0.27450  0.48155  Biso   1.000  N
  N21      1.0000 0.52715  0.19315  0.51692  Biso   1.000  N
  N22      1.0000 0.04334  0.14311  0.55932  Biso   1.000  N
  N23      1.0000 0.03372  0.22550  0.51845  Biso   1.000  N
  N24      1.0000 0.02715  0.30685  0.48308  Biso   1.000  N
  N25      1.0000 0.94068  0.95666  0.64311  Biso   1.000  N
  N26      1.0000 0.98155  0.96628  0.72550  Biso   1.000  N
  N27      1.0000 0.01692  0.97285  0.80685  Biso   1.000  N
  N28      1.0000 0.05932  0.45666  0.85689  Biso   1.000  N
  N29      1.0000 0.01845  0.46628  0.77450  Biso   1.000  N
  N30      1.0000 0.98308  0.47285  0.69315  Biso   1.000  N
  N31      1.0000 0.44068  0.54334  0.35689  Biso   1.000  N
  N32      1.0000 0.48155  0.53372  0.27450  Biso   1.000  N
  N33      1.0000 0.51692  0.52715  0.19315  Biso   1.000  N
  N34      1.0000 0.55932  0.04334  0.14311  Biso   1.000  N
  N35      1.0000 0.51845  0.03372  0.22550  Biso   1.000  N
  N36      1.0000 0.48308  0.02715  0.30685  Biso   1.000  N
  N37      1.0000 0.35689  0.05932  0.04334  Biso   1.000  N
  N38      1.0000 0.27450  0.01845  0.03372  Biso   1.000  N
  N39      1.0000 0.19315  0.98308  0.02715  Biso   1.000  N
  N40      1.0000 0.14311  0.94068  0.54334  Biso   1.000  N
  N41      1.0000 0.22550  0.98155  0.53372  Biso   1.000  N
  N42      1.0000 0.30685  0.01692  0.52715  Biso   1.000  N
  N43      1.0000 0.64311  0.55932  0.45666  Biso   1.000  N
  N44      1.0000 0.72550  0.51845  0.46628  Biso   1.000  N
  N45      1.0000 0.80685  0.48308  0.47285  Biso   1.000  N
  N46      1.0000 0.85689  0.44068  0.95666  Biso   1.000  N
  N47      1.0000 0.77450  0.48155  0.96628  Biso   1.000  N
  N48      1.0000 0.69315  0.51692  0.97285  Biso   1.000  N
  N49      1.0000 0.04334  0.35689  0.05932  Biso   1.000  N
  N50      1.0000 0.03372  0.27450  0.01845  Biso   1.000  N
  N51      1.0000 0.02715  0.19315  0.98308  Biso   1.000  N
  N52      1.0000 0.54334  0.14311  0.94068  Biso   1.000  N
  N53      1.0000 0.53372  0.22550  0.98155  Biso   1.000  N
  N54      1.0000 0.52715  0.30685  0.01692  Biso   1.000  N
  N55      1.0000 0.45666  0.64311  0.55932  Biso   1.000  N
  N56      1.0000 0.46628  0.72550  0.51845  Biso   1.000  N
  N57      1.0000 0.47285  0.80685  0.48308  Biso   1.000  N
  N58      1.0000 0.95666  0.85689  0.44068  Biso   1.000  N
  N59      1.0000 0.96628  0.77450  0.48155  Biso   1.000  N
  N60      1.0000 0.97285  0.69315  0.51692  Biso   1.000  N
  N61      1.0000 0.05932  0.04334  0.35689  Biso   1.000  N
  N62      1.0000 0.01845  0.03372  0.27450  Biso   1.000  N
  N63      1.0000 0.98308  0.02715  0.19315  Biso   1.000  N
  N64      1.0000 0.94068  0.54334  0.14311  Biso   1.000  N
  N65      1.0000 0.98155  0.53372  0.22550  Biso   1.000  N
  N66      1.0000 0.01692  0.52715  0.30685  Biso   1.000  N
  N67      1.0000 0.55932  0.45666  0.64311  Biso   1.000  N
  N68      1.0000 0.51845  0.46628  0.72550  Biso   1.000  N
  N69      1.0000 0.48308  0.47285  0.80685  Biso   1.000  N
  N70      1.0000 0.44068  0.95666  0.85689  Biso   1.000  N
  N71      1.0000 0.48155  0.96628  0.77450  Biso   1.000  N
  N72      1.0000 0.51692  0.97285  0.69315  Biso   1.000  N
  Fe1      1.0000 0.50000  0.00000  0.00000  Biso   1.000  Fe
  Fe2      1.0000 0.00000  0.00000  0.50000  Biso   1.000  Fe
  Fe3      1.0000 0.50000  0.50000  0.50000  Biso   1.000  Fe
  Fe4      1.0000 0.00000  0.50000  0.00000  Biso   1.000  Fe
  Na1      1.0000 0.00000  0.00000  0.00000  Biso   1.000  Na
  Na2      1.0000 0.50000  0.00000  0.50000  Biso   1.000  Na
  Na3      1.0000 0.00000  0.50000  0.50000  Biso   1.000  Na
  Na4      1.0000 0.50000  0.50000  0.00000  Biso   1.000  Na
