data_image0
_cell_length_a       12.8987
_cell_length_b       12.8987
_cell_length_c       12.8987
_cell_angle_alpha    90
_cell_angle_beta     90
_cell_angle_gamma    90

_symmetry_space_group_name_H-M    "P 1"
_symmetry_int_tables_number       1

loop_
  _symmetry_equiv_pos_as_xyz
  'x, y, z'

loop_
  _atom_site_label
  _atom_site_occupancy
  _atom_site_fract_x
  _atom_site_fract_y
  _atom_site_fract_z
  _atom_site_thermal_displace_type
  _atom_site_B_iso_or_equiv
  _atom_site_type_symbol
  N1       1.0000 0.64301  0.93989  0.95619  Biso   1.000  N
  N2       1.0000 0.72548  0.98096  0.96543  Biso   1.000  N
  N3       1.0000 0.80704  0.01736  0.97196  Biso   1.000  N
  N4       1.0000 0.85699  0.06011  0.45619  Biso   1.000  N
  N5       1.0000 0.77452  0.01904  0.46543  Biso   1.000  N
  N6       1.0000 0.69296  0.98264  0.47196  Biso   1.000  N
  N7       1.0000 0.35699  0.43989  0.54381  Biso   1.000  N
  N8       1.0000 0.27452  0.48096  0.53457  Biso   1.000  N
  N9       1.0000 0.19296  0.51736  0.52804  Biso   1.000  N
  N10      1.0000 0.14301  0.56011  0.04381  Biso   1.000  N
  N11      1.0000 0.22548  0.51904  0.03457  Biso   1.000  N
  N12      1.0000 0.30704  0.48264  0.02804  Biso   1.000  N
  N13      1.0000 0.95619  0.64301  0.93989  Biso   1.000  N
  N14      1.0000 0.96543  0.72548  0.98096  Biso   1.000  N
  N15      1.0000 0.97196  0.80704  0.01736  Biso   1.000  N
  N16      1.0000 0.45619  0.85699  0.06011  Biso   1.000  N
  N17      1.0000 0.46543  0.77452  0.01904  Biso   1.000  N
  N18      1.0000 0.47196  0.69296  0.98264  Biso   1.000  N
  N19      1.0000 0.54381  0.35699  0.43989  Biso   1.000  N
  N20      1.0000 0.53457  0.27452  0.48096  Biso   1.000  N
  N21      1.0000 0.52804  0.19296  0.51736  Biso   1.000  N
  N22      1.0000 0.04381  0.14301  0.56011  Biso   1.000  N
  N23      1.0000 0.03457  0.22548  0.51904  Biso   1.000  N
  N24      1.0000 0.02804  0.30704  0.48264  Biso   1.000  N
  N25      1.0000 0.93989  0.95619  0.64301  Biso   1.000  N
  N26      1.0000 0.98096  0.96543  0.72548  Biso   1.000  N
  N27      1.0000 0.01736  0.97196  0.80704  Biso   1.000  N
  N28      1.0000 0.06011  0.45619  0.85699  Biso   1.000  N
  N29      1.0000 0.01904  0.46543  0.77452  Biso   1.000  N
  N30      1.0000 0.98264  0.47196  0.69296  Biso   1.000  N
  N31      1.0000 0.43989  0.54381  0.35699  Biso   1.000  N
  N32      1.0000 0.48096  0.53457  0.27452  Biso   1.000  N
  N33      1.0000 0.51736  0.52804  0.19296  Biso   1.000  N
  N34      1.0000 0.56011  0.04381  0.14301  Biso   1.000  N
  N35      1.0000 0.51904  0.03457  0.22548  Biso   1.000  N
  N36      1.0000 0.48264  0.02804  0.30704  Biso   1.000  N
  N37      1.0000 0.35699  0.06011  0.04381  Biso   1.000  N
  N38      1.0000 0.27452  0.01904  0.03457  Biso   1.000  N
  N39      1.0000 0.19296  0.98264  0.02804  Biso   1.000  N
  N40      1.0000 0.14301  0.93989  0.54381  Biso   1.000  N
  N41      1.0000 0.22548  0.98096  0.53457  Biso   1.000  N
  N42      1.0000 0.30704  0.01736  0.52804  Biso   1.000  N
  N43      1.0000 0.64301  0.56011  0.45619  Biso   1.000  N
  N44      1.0000 0.72548  0.51904  0.46543  Biso   1.000  N
  N45      1.0000 0.80704  0.48264  0.47196  Biso   1.000  N
  N46      1.0000 0.85699  0.43989  0.95619  Biso   1.000  N
  N47      1.0000 0.77452  0.48096  0.96543  Biso   1.000  N
  N48      1.0000 0.69296  0.51736  0.97196  Biso   1.000  N
  N49      1.0000 0.04381  0.35699  0.06011  Biso   1.000  N
  N50      1.0000 0.03457  0.27452  0.01904  Biso   1.000  N
  N51      1.0000 0.02804  0.19296  0.98264  Biso   1.000  N
  N52      1.0000 0.54381  0.14301  0.93989  Biso   1.000  N
  N53      1.0000 0.53457  0.22548  0.98096  Biso   1.000  N
  N54      1.0000 0.52804  0.30704  0.01736  Biso   1.000  N
  N55      1.0000 0.45619  0.64301  0.56011  Biso   1.000  N
  N56      1.0000 0.46543  0.72548  0.51904  Biso   1.000  N
  N57      1.0000 0.47196  0.80704  0.48264  Biso   1.000  N
  N58      1.0000 0.95619  0.85699  0.43989  Biso   1.000  N
  N59      1.0000 0.96543  0.77452  0.48096  Biso   1.000  N
  N60      1.0000 0.97196  0.69296  0.51736  Biso   1.000  N
  N61      1.0000 0.06011  0.04381  0.35699  Biso   1.000  N
  N62      1.0000 0.01904  0.03457  0.27452  Biso   1.000  N
  N63      1.0000 0.98264  0.02804  0.19296  Biso   1.000  N
  N64      1.0000 0.93989  0.54381  0.14301  Biso   1.000  N
  N65      1.0000 0.98096  0.53457  0.22548  Biso   1.000  N
  N66      1.0000 0.01736  0.52804  0.30704  Biso   1.000  N
  N67      1.0000 0.56011  0.45619  0.64301  Biso   1.000  N
  N68      1.0000 0.51904  0.46543  0.72548  Biso   1.000  N
  N69      1.0000 0.48264  0.47196  0.80704  Biso   1.000  N
  N70      1.0000 0.43989  0.95619  0.85699  Biso   1.000  N
  N71      1.0000 0.48096  0.96543  0.77452  Biso   1.000  N
  N72      1.0000 0.51736  0.97196  0.69296  Biso   1.000  N
  Fe1      1.0000 0.50000  0.00000  0.00000  Biso   1.000  Fe
  Fe2      1.0000 0.00000  0.00000  0.50000  Biso   1.000  Fe
  Fe3      1.0000 0.50000  0.50000  0.50000  Biso   1.000  Fe
  Fe4      1.0000 0.00000  0.50000  0.00000  Biso   1.000  Fe
  Na1      1.0000 0.00000  0.00000  0.00000  Biso   1.000  Na
  Na2      1.0000 0.50000  0.00000  0.50000  Biso   1.000  Na
  Na3      1.0000 0.00000  0.50000  0.50000  Biso   1.000  Na
  Na4      1.0000 0.50000  0.50000  0.00000  Biso   1.000  Na
