data_image0
_cell_length_a       13.1676
_cell_length_b       13.1676
_cell_length_c       13.1676
_cell_angle_alpha    90
_cell_angle_beta     90
_cell_angle_gamma    90

_symmetry_space_group_name_H-M    "P 1"
_symmetry_int_tables_number       1

loop_
  _symmetry_equiv_pos_as_xyz
  'x, y, z'

loop_
  _atom_site_label
  _atom_site_occupancy
  _atom_site_fract_x
  _atom_site_fract_y
  _atom_site_fract_z
  _atom_site_thermal_displace_type
  _atom_site_B_iso_or_equiv
  _atom_site_type_symbol
  N1       1.0000 0.63696  0.93517  0.95472  Biso   1.000  N
  N2       1.0000 0.71536  0.97992  0.96006  Biso   1.000  N
  N3       1.0000 0.79265  0.02143  0.96375  Biso   1.000  N
  N4       1.0000 0.86304  0.06483  0.45472  Biso   1.000  N
  N5       1.0000 0.78464  0.02008  0.46006  Biso   1.000  N
  N6       1.0000 0.70735  0.97857  0.46375  Biso   1.000  N
  N7       1.0000 0.36304  0.43517  0.54528  Biso   1.000  N
  N8       1.0000 0.28464  0.47992  0.53994  Biso   1.000  N
  N9       1.0000 0.20735  0.52143  0.53625  Biso   1.000  N
  N10      1.0000 0.13696  0.56483  0.04528  Biso   1.000  N
  N11      1.0000 0.21536  0.52008  0.03994  Biso   1.000  N
  N12      1.0000 0.29265  0.47857  0.03625  Biso   1.000  N
  N13      1.0000 0.95472  0.63696  0.93517  Biso   1.000  N
  N14      1.0000 0.96006  0.71536  0.97992  Biso   1.000  N
  N15      1.0000 0.96375  0.79265  0.02143  Biso   1.000  N
  N16      1.0000 0.45472  0.86304  0.06483  Biso   1.000  N
  N17      1.0000 0.46006  0.78464  0.02008  Biso   1.000  N
  N18      1.0000 0.46375  0.70735  0.97857  Biso   1.000  N
  N19      1.0000 0.54528  0.36304  0.43517  Biso   1.000  N
  N20      1.0000 0.53994  0.28464  0.47992  Biso   1.000  N
  N21      1.0000 0.53625  0.20735  0.52143  Biso   1.000  N
  N22      1.0000 0.04528  0.13696  0.56483  Biso   1.000  N
  N23      1.0000 0.03994  0.21536  0.52008  Biso   1.000  N
  N24      1.0000 0.03625  0.29265  0.47857  Biso   1.000  N
  N25      1.0000 0.93517  0.95472  0.63696  Biso   1.000  N
  N26      1.0000 0.97992  0.96006  0.71536  Biso   1.000  N
  N27      1.0000 0.02143  0.96375  0.79265  Biso   1.000  N
  N28      1.0000 0.06483  0.45472  0.86304  Biso   1.000  N
  N29      1.0000 0.02008  0.46006  0.78464  Biso   1.000  N
  N30      1.0000 0.97857  0.46375  0.70735  Biso   1.000  N
  N31      1.0000 0.43517  0.54528  0.36304  Biso   1.000  N
  N32      1.0000 0.47992  0.53994  0.28464  Biso   1.000  N
  N33      1.0000 0.52143  0.53625  0.20735  Biso   1.000  N
  N34      1.0000 0.56483  0.04528  0.13696  Biso   1.000  N
  N35      1.0000 0.52008  0.03994  0.21536  Biso   1.000  N
  N36      1.0000 0.47857  0.03625  0.29265  Biso   1.000  N
  N37      1.0000 0.36304  0.06483  0.04528  Biso   1.000  N
  N38      1.0000 0.28464  0.02008  0.03994  Biso   1.000  N
  N39      1.0000 0.20735  0.97857  0.03625  Biso   1.000  N
  N40      1.0000 0.13696  0.93517  0.54528  Biso   1.000  N
  N41      1.0000 0.21536  0.97992  0.53994  Biso   1.000  N
  N42      1.0000 0.29265  0.02143  0.53625  Biso   1.000  N
  N43      1.0000 0.63696  0.56483  0.45472  Biso   1.000  N
  N44      1.0000 0.71536  0.52008  0.46006  Biso   1.000  N
  N45      1.0000 0.79265  0.47857  0.46375  Biso   1.000  N
  N46      1.0000 0.86304  0.43517  0.95472  Biso   1.000  N
  N47      1.0000 0.78464  0.47992  0.96006  Biso   1.000  N
  N48      1.0000 0.70735  0.52143  0.96375  Biso   1.000  N
  N49      1.0000 0.04528  0.36304  0.06483  Biso   1.000  N
  N50      1.0000 0.03994  0.28464  0.02008  Biso   1.000  N
  N51      1.0000 0.03625  0.20735  0.97857  Biso   1.000  N
  N52      1.0000 0.54528  0.13696  0.93517  Biso   1.000  N
  N53      1.0000 0.53994  0.21536  0.97992  Biso   1.000  N
  N54      1.0000 0.53625  0.29265  0.02143  Biso   1.000  N
  N55      1.0000 0.45472  0.63696  0.56483  Biso   1.000  N
  N56      1.0000 0.46006  0.71536  0.52008  Biso   1.000  N
  N57      1.0000 0.46375  0.79265  0.47857  Biso   1.000  N
  N58      1.0000 0.95472  0.86304  0.43517  Biso   1.000  N
  N59      1.0000 0.96006  0.78464  0.47992  Biso   1.000  N
  N60      1.0000 0.96375  0.70735  0.52143  Biso   1.000  N
  N61      1.0000 0.06483  0.04528  0.36304  Biso   1.000  N
  N62      1.0000 0.02008  0.03994  0.28464  Biso   1.000  N
  N63      1.0000 0.97857  0.03625  0.20735  Biso   1.000  N
  N64      1.0000 0.93517  0.54528  0.13696  Biso   1.000  N
  N65      1.0000 0.97992  0.53994  0.21536  Biso   1.000  N
  N66      1.0000 0.02143  0.53625  0.29265  Biso   1.000  N
  N67      1.0000 0.56483  0.45472  0.63696  Biso   1.000  N
  N68      1.0000 0.52008  0.46006  0.71536  Biso   1.000  N
  N69      1.0000 0.47857  0.46375  0.79265  Biso   1.000  N
  N70      1.0000 0.43517  0.95472  0.86304  Biso   1.000  N
  N71      1.0000 0.47992  0.96006  0.78464  Biso   1.000  N
  N72      1.0000 0.52143  0.96375  0.70735  Biso   1.000  N
  Fe1      1.0000 0.50000  0.00000  0.00000  Biso   1.000  Fe
  Fe2      1.0000 0.00000  0.00000  0.50000  Biso   1.000  Fe
  Fe3      1.0000 0.50000  0.50000  0.50000  Biso   1.000  Fe
  Fe4      1.0000 0.00000  0.50000  0.00000  Biso   1.000  Fe
  K1       1.0000 0.00000  0.00000  0.00000  Biso   1.000  K
  K2       1.0000 0.50000  0.00000  0.50000  Biso   1.000  K
  K3       1.0000 0.00000  0.50000  0.50000  Biso   1.000  K
  K4       1.0000 0.50000  0.50000  0.00000  Biso   1.000  K
