data_image0
_cell_length_a       13.253
_cell_length_b       13.253
_cell_length_c       13.253
_cell_angle_alpha    90
_cell_angle_beta     90
_cell_angle_gamma    90

_symmetry_space_group_name_H-M    "P 1"
_symmetry_int_tables_number       1

loop_
  _symmetry_equiv_pos_as_xyz
  'x, y, z'

loop_
  _atom_site_label
  _atom_site_occupancy
  _atom_site_fract_x
  _atom_site_fract_y
  _atom_site_fract_z
  _atom_site_thermal_displace_type
  _atom_site_B_iso_or_equiv
  _atom_site_type_symbol
  N1       1.0000 0.63679  0.93712  0.95602  Biso   1.000  N
  N2       1.0000 0.71590  0.98130  0.96310  Biso   1.000  N
  N3       1.0000 0.79240  0.02060  0.96790  Biso   1.000  N
  N4       1.0000 0.86321  0.06288  0.45602  Biso   1.000  N
  N5       1.0000 0.78410  0.01870  0.46310  Biso   1.000  N
  N6       1.0000 0.70760  0.97940  0.46790  Biso   1.000  N
  N7       1.0000 0.36321  0.43712  0.54398  Biso   1.000  N
  N8       1.0000 0.28410  0.48130  0.53690  Biso   1.000  N
  N9       1.0000 0.20760  0.52060  0.53210  Biso   1.000  N
  N10      1.0000 0.13679  0.56288  0.04398  Biso   1.000  N
  N11      1.0000 0.21590  0.51870  0.03690  Biso   1.000  N
  N12      1.0000 0.29240  0.47940  0.03210  Biso   1.000  N
  N13      1.0000 0.95602  0.63679  0.93712  Biso   1.000  N
  N14      1.0000 0.96310  0.71590  0.98130  Biso   1.000  N
  N15      1.0000 0.96790  0.79240  0.02060  Biso   1.000  N
  N16      1.0000 0.45602  0.86321  0.06288  Biso   1.000  N
  N17      1.0000 0.46310  0.78410  0.01870  Biso   1.000  N
  N18      1.0000 0.46790  0.70760  0.97940  Biso   1.000  N
  N19      1.0000 0.54398  0.36321  0.43712  Biso   1.000  N
  N20      1.0000 0.53690  0.28410  0.48130  Biso   1.000  N
  N21      1.0000 0.53210  0.20760  0.52060  Biso   1.000  N
  N22      1.0000 0.04398  0.13679  0.56288  Biso   1.000  N
  N23      1.0000 0.03690  0.21590  0.51870  Biso   1.000  N
  N24      1.0000 0.03210  0.29240  0.47940  Biso   1.000  N
  N25      1.0000 0.93712  0.95602  0.63679  Biso   1.000  N
  N26      1.0000 0.98130  0.96310  0.71590  Biso   1.000  N
  N27      1.0000 0.02060  0.96790  0.79240  Biso   1.000  N
  N28      1.0000 0.06288  0.45602  0.86321  Biso   1.000  N
  N29      1.0000 0.01870  0.46310  0.78410  Biso   1.000  N
  N30      1.0000 0.97940  0.46790  0.70760  Biso   1.000  N
  N31      1.0000 0.43712  0.54398  0.36321  Biso   1.000  N
  N32      1.0000 0.48130  0.53690  0.28410  Biso   1.000  N
  N33      1.0000 0.52060  0.53210  0.20760  Biso   1.000  N
  N34      1.0000 0.56288  0.04398  0.13679  Biso   1.000  N
  N35      1.0000 0.51870  0.03690  0.21590  Biso   1.000  N
  N36      1.0000 0.47940  0.03210  0.29240  Biso   1.000  N
  N37      1.0000 0.36321  0.06288  0.04398  Biso   1.000  N
  N38      1.0000 0.28410  0.01870  0.03690  Biso   1.000  N
  N39      1.0000 0.20760  0.97940  0.03210  Biso   1.000  N
  N40      1.0000 0.13679  0.93712  0.54398  Biso   1.000  N
  N41      1.0000 0.21590  0.98130  0.53690  Biso   1.000  N
  N42      1.0000 0.29240  0.02060  0.53210  Biso   1.000  N
  N43      1.0000 0.63679  0.56288  0.45602  Biso   1.000  N
  N44      1.0000 0.71590  0.51870  0.46310  Biso   1.000  N
  N45      1.0000 0.79240  0.47940  0.46790  Biso   1.000  N
  N46      1.0000 0.86321  0.43712  0.95602  Biso   1.000  N
  N47      1.0000 0.78410  0.48130  0.96310  Biso   1.000  N
  N48      1.0000 0.70760  0.52060  0.96790  Biso   1.000  N
  N49      1.0000 0.04398  0.36321  0.06288  Biso   1.000  N
  N50      1.0000 0.03690  0.28410  0.01870  Biso   1.000  N
  N51      1.0000 0.03210  0.20760  0.97940  Biso   1.000  N
  N52      1.0000 0.54398  0.13679  0.93712  Biso   1.000  N
  N53      1.0000 0.53690  0.21590  0.98130  Biso   1.000  N
  N54      1.0000 0.53210  0.29240  0.02060  Biso   1.000  N
  N55      1.0000 0.45602  0.63679  0.56288  Biso   1.000  N
  N56      1.0000 0.46310  0.71590  0.51870  Biso   1.000  N
  N57      1.0000 0.46790  0.79240  0.47940  Biso   1.000  N
  N58      1.0000 0.95602  0.86321  0.43712  Biso   1.000  N
  N59      1.0000 0.96310  0.78410  0.48130  Biso   1.000  N
  N60      1.0000 0.96790  0.70760  0.52060  Biso   1.000  N
  N61      1.0000 0.06288  0.04398  0.36321  Biso   1.000  N
  N62      1.0000 0.01870  0.03690  0.28410  Biso   1.000  N
  N63      1.0000 0.97940  0.03210  0.20760  Biso   1.000  N
  N64      1.0000 0.93712  0.54398  0.13679  Biso   1.000  N
  N65      1.0000 0.98130  0.53690  0.21590  Biso   1.000  N
  N66      1.0000 0.02060  0.53210  0.29240  Biso   1.000  N
  N67      1.0000 0.56288  0.45602  0.63679  Biso   1.000  N
  N68      1.0000 0.51870  0.46310  0.71590  Biso   1.000  N
  N69      1.0000 0.47940  0.46790  0.79240  Biso   1.000  N
  N70      1.0000 0.43712  0.95602  0.86321  Biso   1.000  N
  N71      1.0000 0.48130  0.96310  0.78410  Biso   1.000  N
  N72      1.0000 0.52060  0.96790  0.70760  Biso   1.000  N
  Fe1      1.0000 0.50000  0.00000  0.00000  Biso   1.000  Fe
  Fe2      1.0000 0.00000  0.00000  0.50000  Biso   1.000  Fe
  Fe3      1.0000 0.50000  0.50000  0.50000  Biso   1.000  Fe
  Fe4      1.0000 0.00000  0.50000  0.00000  Biso   1.000  Fe
  K1       1.0000 0.00000  0.00000  0.00000  Biso   1.000  K
  K2       1.0000 0.50000  0.00000  0.50000  Biso   1.000  K
  K3       1.0000 0.00000  0.50000  0.50000  Biso   1.000  K
  K4       1.0000 0.50000  0.50000  0.00000  Biso   1.000  K
