data_image0
_cell_length_a       12.8434
_cell_length_b       12.8434
_cell_length_c       12.8434
_cell_angle_alpha    90
_cell_angle_beta     90
_cell_angle_gamma    90

_symmetry_space_group_name_H-M    "P 1"
_symmetry_int_tables_number       1

loop_
  _symmetry_equiv_pos_as_xyz
  'x, y, z'

loop_
  _atom_site_label
  _atom_site_occupancy
  _atom_site_fract_x
  _atom_site_fract_y
  _atom_site_fract_z
  _atom_site_thermal_displace_type
  _atom_site_B_iso_or_equiv
  _atom_site_type_symbol
  N1       1.0000 0.05915  0.04250  0.35886  Biso   1.000  N
  N2       1.0000 0.01850  0.03290  0.27594  Biso   1.000  N
  N3       1.0000 0.98380  0.02720  0.19383  Biso   1.000  N
  N4       1.0000 0.44085  0.95750  0.85886  Biso   1.000  N
  N5       1.0000 0.48150  0.96710  0.77594  Biso   1.000  N
  N6       1.0000 0.51620  0.97280  0.69383  Biso   1.000  N
  N7       1.0000 0.94085  0.54250  0.14114  Biso   1.000  N
  N8       1.0000 0.98150  0.53290  0.22406  Biso   1.000  N
  N9       1.0000 0.01620  0.52720  0.30617  Biso   1.000  N
  N10      1.0000 0.55915  0.45750  0.64114  Biso   1.000  N
  N11      1.0000 0.51850  0.46710  0.72406  Biso   1.000  N
  N12      1.0000 0.48380  0.47280  0.80617  Biso   1.000  N
  N13      1.0000 0.35886  0.05915  0.04250  Biso   1.000  N
  N14      1.0000 0.27594  0.01850  0.03290  Biso   1.000  N
  N15      1.0000 0.19383  0.98380  0.02720  Biso   1.000  N
  N16      1.0000 0.85886  0.44085  0.95750  Biso   1.000  N
  N17      1.0000 0.77594  0.48150  0.96710  Biso   1.000  N
  N18      1.0000 0.69383  0.51620  0.97280  Biso   1.000  N
  N19      1.0000 0.14114  0.94085  0.54250  Biso   1.000  N
  N20      1.0000 0.22406  0.98150  0.53290  Biso   1.000  N
  N21      1.0000 0.30617  0.01620  0.52720  Biso   1.000  N
  N22      1.0000 0.64114  0.55915  0.45750  Biso   1.000  N
  N23      1.0000 0.72406  0.51850  0.46710  Biso   1.000  N
  N24      1.0000 0.80617  0.48380  0.47280  Biso   1.000  N
  N25      1.0000 0.04250  0.35886  0.05915  Biso   1.000  N
  N26      1.0000 0.03290  0.27594  0.01850  Biso   1.000  N
  N27      1.0000 0.02720  0.19383  0.98380  Biso   1.000  N
  N28      1.0000 0.95750  0.85886  0.44085  Biso   1.000  N
  N29      1.0000 0.96710  0.77594  0.48150  Biso   1.000  N
  N30      1.0000 0.97280  0.69383  0.51620  Biso   1.000  N
  N31      1.0000 0.54250  0.14114  0.94085  Biso   1.000  N
  N32      1.0000 0.53290  0.22406  0.98150  Biso   1.000  N
  N33      1.0000 0.52720  0.30617  0.01620  Biso   1.000  N
  N34      1.0000 0.45750  0.64114  0.55915  Biso   1.000  N
  N35      1.0000 0.46710  0.72406  0.51850  Biso   1.000  N
  N36      1.0000 0.47280  0.80617  0.48380  Biso   1.000  N
  N37      1.0000 0.94085  0.95750  0.64114  Biso   1.000  N
  N38      1.0000 0.98150  0.96710  0.72406  Biso   1.000  N
  N39      1.0000 0.01620  0.97280  0.80617  Biso   1.000  N
  N40      1.0000 0.55915  0.04250  0.14114  Biso   1.000  N
  N41      1.0000 0.51850  0.03290  0.22406  Biso   1.000  N
  N42      1.0000 0.48380  0.02720  0.30617  Biso   1.000  N
  N43      1.0000 0.05915  0.45750  0.85886  Biso   1.000  N
  N44      1.0000 0.01850  0.46710  0.77594  Biso   1.000  N
  N45      1.0000 0.98380  0.47280  0.69383  Biso   1.000  N
  N46      1.0000 0.44085  0.54250  0.35886  Biso   1.000  N
  N47      1.0000 0.48150  0.53290  0.27594  Biso   1.000  N
  N48      1.0000 0.51620  0.52720  0.19383  Biso   1.000  N
  N49      1.0000 0.64114  0.94085  0.95750  Biso   1.000  N
  N50      1.0000 0.72406  0.98150  0.96710  Biso   1.000  N
  N51      1.0000 0.80617  0.01620  0.97280  Biso   1.000  N
  N52      1.0000 0.14114  0.55915  0.04250  Biso   1.000  N
  N53      1.0000 0.22406  0.51850  0.03290  Biso   1.000  N
  N54      1.0000 0.30617  0.48380  0.02720  Biso   1.000  N
  N55      1.0000 0.85886  0.05915  0.45750  Biso   1.000  N
  N56      1.0000 0.77594  0.01850  0.46710  Biso   1.000  N
  N57      1.0000 0.69383  0.98380  0.47280  Biso   1.000  N
  N58      1.0000 0.35886  0.44085  0.54250  Biso   1.000  N
  N59      1.0000 0.27594  0.48150  0.53290  Biso   1.000  N
  N60      1.0000 0.19383  0.51620  0.52720  Biso   1.000  N
  N61      1.0000 0.95750  0.64114  0.94085  Biso   1.000  N
  N62      1.0000 0.96710  0.72406  0.98150  Biso   1.000  N
  N63      1.0000 0.97280  0.80617  0.01620  Biso   1.000  N
  N64      1.0000 0.04250  0.14114  0.55915  Biso   1.000  N
  N65      1.0000 0.03290  0.22406  0.51850  Biso   1.000  N
  N66      1.0000 0.02720  0.30617  0.48380  Biso   1.000  N
  N67      1.0000 0.45750  0.85886  0.05915  Biso   1.000  N
  N68      1.0000 0.46710  0.77594  0.01850  Biso   1.000  N
  N69      1.0000 0.47280  0.69383  0.98380  Biso   1.000  N
  N70      1.0000 0.54250  0.35886  0.44085  Biso   1.000  N
  N71      1.0000 0.53290  0.27594  0.48150  Biso   1.000  N
  N72      1.0000 0.52720  0.19383  0.51620  Biso   1.000  N
  Cr1      1.0000 0.00000  0.00000  0.50000  Biso   1.000  Cr
  Cr2      1.0000 0.50000  0.00000  0.00000  Biso   1.000  Cr
  Cr3      1.0000 0.00000  0.50000  0.00000  Biso   1.000  Cr
  Cr4      1.0000 0.50000  0.50000  0.50000  Biso   1.000  Cr
  Na1      1.0000 0.00000  0.00000  0.00000  Biso   1.000  Na
  Na2      1.0000 0.50000  0.00000  0.50000  Biso   1.000  Na
  Na3      1.0000 0.00000  0.50000  0.50000  Biso   1.000  Na
  Na4      1.0000 0.50000  0.50000  0.00000  Biso   1.000  Na
