data_image0
_cell_length_a       12.7981
_cell_length_b       12.7981
_cell_length_c       12.7981
_cell_angle_alpha    90
_cell_angle_beta     90
_cell_angle_gamma    90

_symmetry_space_group_name_H-M    "P 1"
_symmetry_int_tables_number       1

loop_
  _symmetry_equiv_pos_as_xyz
  'x, y, z'

loop_
  _atom_site_label
  _atom_site_occupancy
  _atom_site_fract_x
  _atom_site_fract_y
  _atom_site_fract_z
  _atom_site_thermal_displace_type
  _atom_site_B_iso_or_equiv
  _atom_site_type_symbol
  N1       1.0000 0.06006  0.04328  0.35892  Biso   1.000  N
  N2       1.0000 0.01940  0.03400  0.27600  Biso   1.000  N
  N3       1.0000 0.98340  0.02840  0.19332  Biso   1.000  N
  N4       1.0000 0.43994  0.95672  0.85892  Biso   1.000  N
  N5       1.0000 0.48060  0.96600  0.77600  Biso   1.000  N
  N6       1.0000 0.51660  0.97160  0.69332  Biso   1.000  N
  N7       1.0000 0.93994  0.54328  0.14108  Biso   1.000  N
  N8       1.0000 0.98060  0.53400  0.22400  Biso   1.000  N
  N9       1.0000 0.01660  0.52840  0.30668  Biso   1.000  N
  N10      1.0000 0.56006  0.45672  0.64108  Biso   1.000  N
  N11      1.0000 0.51940  0.46600  0.72400  Biso   1.000  N
  N12      1.0000 0.48340  0.47160  0.80668  Biso   1.000  N
  N13      1.0000 0.35892  0.06006  0.04328  Biso   1.000  N
  N14      1.0000 0.27600  0.01940  0.03400  Biso   1.000  N
  N15      1.0000 0.19332  0.98340  0.02840  Biso   1.000  N
  N16      1.0000 0.85892  0.43994  0.95672  Biso   1.000  N
  N17      1.0000 0.77600  0.48060  0.96600  Biso   1.000  N
  N18      1.0000 0.69332  0.51660  0.97160  Biso   1.000  N
  N19      1.0000 0.14108  0.93994  0.54328  Biso   1.000  N
  N20      1.0000 0.22400  0.98060  0.53400  Biso   1.000  N
  N21      1.0000 0.30668  0.01660  0.52840  Biso   1.000  N
  N22      1.0000 0.64108  0.56006  0.45672  Biso   1.000  N
  N23      1.0000 0.72400  0.51940  0.46600  Biso   1.000  N
  N24      1.0000 0.80668  0.48340  0.47160  Biso   1.000  N
  N25      1.0000 0.04328  0.35892  0.06006  Biso   1.000  N
  N26      1.0000 0.03400  0.27600  0.01940  Biso   1.000  N
  N27      1.0000 0.02840  0.19332  0.98340  Biso   1.000  N
  N28      1.0000 0.95672  0.85892  0.43994  Biso   1.000  N
  N29      1.0000 0.96600  0.77600  0.48060  Biso   1.000  N
  N30      1.0000 0.97160  0.69332  0.51660  Biso   1.000  N
  N31      1.0000 0.54328  0.14108  0.93994  Biso   1.000  N
  N32      1.0000 0.53400  0.22400  0.98060  Biso   1.000  N
  N33      1.0000 0.52840  0.30668  0.01660  Biso   1.000  N
  N34      1.0000 0.45672  0.64108  0.56006  Biso   1.000  N
  N35      1.0000 0.46600  0.72400  0.51940  Biso   1.000  N
  N36      1.0000 0.47160  0.80668  0.48340  Biso   1.000  N
  N37      1.0000 0.93994  0.95672  0.64108  Biso   1.000  N
  N38      1.0000 0.98060  0.96600  0.72400  Biso   1.000  N
  N39      1.0000 0.01660  0.97160  0.80668  Biso   1.000  N
  N40      1.0000 0.56006  0.04328  0.14108  Biso   1.000  N
  N41      1.0000 0.51940  0.03400  0.22400  Biso   1.000  N
  N42      1.0000 0.48340  0.02840  0.30668  Biso   1.000  N
  N43      1.0000 0.06006  0.45672  0.85892  Biso   1.000  N
  N44      1.0000 0.01940  0.46600  0.77600  Biso   1.000  N
  N45      1.0000 0.98340  0.47160  0.69332  Biso   1.000  N
  N46      1.0000 0.43994  0.54328  0.35892  Biso   1.000  N
  N47      1.0000 0.48060  0.53400  0.27600  Biso   1.000  N
  N48      1.0000 0.51660  0.52840  0.19332  Biso   1.000  N
  N49      1.0000 0.64108  0.93994  0.95672  Biso   1.000  N
  N50      1.0000 0.72400  0.98060  0.96600  Biso   1.000  N
  N51      1.0000 0.80668  0.01660  0.97160  Biso   1.000  N
  N52      1.0000 0.14108  0.56006  0.04328  Biso   1.000  N
  N53      1.0000 0.22400  0.51940  0.03400  Biso   1.000  N
  N54      1.0000 0.30668  0.48340  0.02840  Biso   1.000  N
  N55      1.0000 0.85892  0.06006  0.45672  Biso   1.000  N
  N56      1.0000 0.77600  0.01940  0.46600  Biso   1.000  N
  N57      1.0000 0.69332  0.98340  0.47160  Biso   1.000  N
  N58      1.0000 0.35892  0.43994  0.54328  Biso   1.000  N
  N59      1.0000 0.27600  0.48060  0.53400  Biso   1.000  N
  N60      1.0000 0.19332  0.51660  0.52840  Biso   1.000  N
  N61      1.0000 0.95672  0.64108  0.93994  Biso   1.000  N
  N62      1.0000 0.96600  0.72400  0.98060  Biso   1.000  N
  N63      1.0000 0.97160  0.80668  0.01660  Biso   1.000  N
  N64      1.0000 0.04328  0.14108  0.56006  Biso   1.000  N
  N65      1.0000 0.03400  0.22400  0.51940  Biso   1.000  N
  N66      1.0000 0.02840  0.30668  0.48340  Biso   1.000  N
  N67      1.0000 0.45672  0.85892  0.06006  Biso   1.000  N
  N68      1.0000 0.46600  0.77600  0.01940  Biso   1.000  N
  N69      1.0000 0.47160  0.69332  0.98340  Biso   1.000  N
  N70      1.0000 0.54328  0.35892  0.43994  Biso   1.000  N
  N71      1.0000 0.53400  0.27600  0.48060  Biso   1.000  N
  N72      1.0000 0.52840  0.19332  0.51660  Biso   1.000  N
  Cr1      1.0000 0.00000  0.00000  0.50000  Biso   1.000  Cr
  Cr2      1.0000 0.50000  0.00000  0.00000  Biso   1.000  Cr
  Cr3      1.0000 0.00000  0.50000  0.00000  Biso   1.000  Cr
  Cr4      1.0000 0.50000  0.50000  0.50000  Biso   1.000  Cr
  Na1      1.0000 0.00000  0.00000  0.00000  Biso   1.000  Na
  Na2      1.0000 0.50000  0.00000  0.50000  Biso   1.000  Na
  Na3      1.0000 0.00000  0.50000  0.50000  Biso   1.000  Na
  Na4      1.0000 0.50000  0.50000  0.00000  Biso   1.000  Na
