data_image0
_cell_length_a       13.1497
_cell_length_b       13.1497
_cell_length_c       13.1497
_cell_angle_alpha    90
_cell_angle_beta     90
_cell_angle_gamma    90

_symmetry_space_group_name_H-M    "P 1"
_symmetry_int_tables_number       1

loop_
  _symmetry_equiv_pos_as_xyz
  'x, y, z'

loop_
  _atom_site_label
  _atom_site_occupancy
  _atom_site_fract_x
  _atom_site_fract_y
  _atom_site_fract_z
  _atom_site_thermal_displace_type
  _atom_site_B_iso_or_equiv
  _atom_site_type_symbol
  N1       1.0000 0.43760  0.45670  0.13536  Biso   1.000  N
  N2       1.0000 0.48130  0.46280  0.21406  Biso   1.000  N
  N3       1.0000 0.51920  0.46620  0.29220  Biso   1.000  N
  N4       1.0000 0.06240  0.54330  0.63536  Biso   1.000  N
  N5       1.0000 0.01870  0.53720  0.71406  Biso   1.000  N
  N6       1.0000 0.98080  0.53380  0.79220  Biso   1.000  N
  N7       1.0000 0.56240  0.95670  0.36464  Biso   1.000  N
  N8       1.0000 0.51870  0.96280  0.28594  Biso   1.000  N
  N9       1.0000 0.48080  0.96620  0.20780  Biso   1.000  N
  N10      1.0000 0.93760  0.04330  0.86464  Biso   1.000  N
  N11      1.0000 0.98130  0.03720  0.78594  Biso   1.000  N
  N12      1.0000 0.01920  0.03380  0.70780  Biso   1.000  N
  N13      1.0000 0.13536  0.43760  0.45670  Biso   1.000  N
  N14      1.0000 0.21406  0.48130  0.46280  Biso   1.000  N
  N15      1.0000 0.29220  0.51920  0.46620  Biso   1.000  N
  N16      1.0000 0.63536  0.06240  0.54330  Biso   1.000  N
  N17      1.0000 0.71406  0.01870  0.53720  Biso   1.000  N
  N18      1.0000 0.79220  0.98080  0.53380  Biso   1.000  N
  N19      1.0000 0.36464  0.56240  0.95670  Biso   1.000  N
  N20      1.0000 0.28594  0.51870  0.96280  Biso   1.000  N
  N21      1.0000 0.20780  0.48080  0.96620  Biso   1.000  N
  N22      1.0000 0.86464  0.93760  0.04330  Biso   1.000  N
  N23      1.0000 0.78594  0.98130  0.03720  Biso   1.000  N
  N24      1.0000 0.70780  0.01920  0.03380  Biso   1.000  N
  N25      1.0000 0.45670  0.13536  0.43760  Biso   1.000  N
  N26      1.0000 0.46280  0.21406  0.48130  Biso   1.000  N
  N27      1.0000 0.46620  0.29220  0.51920  Biso   1.000  N
  N28      1.0000 0.54330  0.63536  0.06240  Biso   1.000  N
  N29      1.0000 0.53720  0.71406  0.01870  Biso   1.000  N
  N30      1.0000 0.53380  0.79220  0.98080  Biso   1.000  N
  N31      1.0000 0.95670  0.36464  0.56240  Biso   1.000  N
  N32      1.0000 0.96280  0.28594  0.51870  Biso   1.000  N
  N33      1.0000 0.96620  0.20780  0.48080  Biso   1.000  N
  N34      1.0000 0.04330  0.86464  0.93760  Biso   1.000  N
  N35      1.0000 0.03720  0.78594  0.98130  Biso   1.000  N
  N36      1.0000 0.03380  0.70780  0.01920  Biso   1.000  N
  N37      1.0000 0.56240  0.54330  0.86464  Biso   1.000  N
  N38      1.0000 0.51870  0.53720  0.78594  Biso   1.000  N
  N39      1.0000 0.48080  0.53380  0.70780  Biso   1.000  N
  N40      1.0000 0.93760  0.45670  0.36464  Biso   1.000  N
  N41      1.0000 0.98130  0.46280  0.28594  Biso   1.000  N
  N42      1.0000 0.01920  0.46620  0.20780  Biso   1.000  N
  N43      1.0000 0.43760  0.04330  0.63536  Biso   1.000  N
  N44      1.0000 0.48130  0.03720  0.71406  Biso   1.000  N
  N45      1.0000 0.51920  0.03380  0.79220  Biso   1.000  N
  N46      1.0000 0.06240  0.95670  0.13536  Biso   1.000  N
  N47      1.0000 0.01870  0.96280  0.21406  Biso   1.000  N
  N48      1.0000 0.98080  0.96620  0.29220  Biso   1.000  N
  N49      1.0000 0.86464  0.56240  0.54330  Biso   1.000  N
  N50      1.0000 0.78594  0.51870  0.53720  Biso   1.000  N
  N51      1.0000 0.70780  0.48080  0.53380  Biso   1.000  N
  N52      1.0000 0.36464  0.93760  0.45670  Biso   1.000  N
  N53      1.0000 0.28594  0.98130  0.46280  Biso   1.000  N
  N54      1.0000 0.20780  0.01920  0.46620  Biso   1.000  N
  N55      1.0000 0.63536  0.43760  0.04330  Biso   1.000  N
  N56      1.0000 0.71406  0.48130  0.03720  Biso   1.000  N
  N57      1.0000 0.79220  0.51920  0.03380  Biso   1.000  N
  N58      1.0000 0.13536  0.06240  0.95670  Biso   1.000  N
  N59      1.0000 0.21406  0.01870  0.96280  Biso   1.000  N
  N60      1.0000 0.29220  0.98080  0.96620  Biso   1.000  N
  N61      1.0000 0.54330  0.86464  0.56240  Biso   1.000  N
  N62      1.0000 0.53720  0.78594  0.51870  Biso   1.000  N
  N63      1.0000 0.53380  0.70780  0.48080  Biso   1.000  N
  N64      1.0000 0.45670  0.36464  0.93760  Biso   1.000  N
  N65      1.0000 0.46280  0.28594  0.98130  Biso   1.000  N
  N66      1.0000 0.46620  0.20780  0.01920  Biso   1.000  N
  N67      1.0000 0.04330  0.63536  0.43760  Biso   1.000  N
  N68      1.0000 0.03720  0.71406  0.48130  Biso   1.000  N
  N69      1.0000 0.03380  0.79220  0.51920  Biso   1.000  N
  N70      1.0000 0.95670  0.13536  0.06240  Biso   1.000  N
  N71      1.0000 0.96280  0.21406  0.01870  Biso   1.000  N
  N72      1.0000 0.96620  0.29220  0.98080  Biso   1.000  N
  Cr1      1.0000 0.50000  0.50000  0.00000  Biso   1.000  Cr
  Cr2      1.0000 0.00000  0.50000  0.50000  Biso   1.000  Cr
  Cr3      1.0000 0.50000  0.00000  0.50000  Biso   1.000  Cr
  Cr4      1.0000 0.00000  0.00000  0.00000  Biso   1.000  Cr
  K1       1.0000 0.50000  0.50000  0.50000  Biso   1.000  K
  K2       1.0000 0.00000  0.50000  0.00000  Biso   1.000  K
  K3       1.0000 0.50000  0.00000  0.00000  Biso   1.000  K
  K4       1.0000 0.00000  0.00000  0.50000  Biso   1.000  K
