data_image0
_cell_length_a       13.0676
_cell_length_b       13.0676
_cell_length_c       13.0676
_cell_angle_alpha    90
_cell_angle_beta     90
_cell_angle_gamma    90

_symmetry_space_group_name_H-M    "P 1"
_symmetry_int_tables_number       1

loop_
  _symmetry_equiv_pos_as_xyz
  'x, y, z'

loop_
  _atom_site_label
  _atom_site_occupancy
  _atom_site_fract_x
  _atom_site_fract_y
  _atom_site_fract_z
  _atom_site_thermal_displace_type
  _atom_site_B_iso_or_equiv
  _atom_site_type_symbol
  N1       1.0000 0.43504  0.45523  0.13499  Biso   1.000  N
  N2       1.0000 0.48005  0.46026  0.21418  Biso   1.000  N
  N3       1.0000 0.52070  0.46320  0.29254  Biso   1.000  N
  N4       1.0000 0.06496  0.54477  0.63499  Biso   1.000  N
  N5       1.0000 0.01995  0.53974  0.71418  Biso   1.000  N
  N6       1.0000 0.97930  0.53680  0.79254  Biso   1.000  N
  N7       1.0000 0.56496  0.95523  0.36501  Biso   1.000  N
  N8       1.0000 0.51995  0.96026  0.28582  Biso   1.000  N
  N9       1.0000 0.47930  0.96320  0.20746  Biso   1.000  N
  N10      1.0000 0.93504  0.04477  0.86501  Biso   1.000  N
  N11      1.0000 0.98005  0.03974  0.78582  Biso   1.000  N
  N12      1.0000 0.02070  0.03680  0.70746  Biso   1.000  N
  N13      1.0000 0.13499  0.43504  0.45523  Biso   1.000  N
  N14      1.0000 0.21418  0.48005  0.46026  Biso   1.000  N
  N15      1.0000 0.29254  0.52070  0.46320  Biso   1.000  N
  N16      1.0000 0.63499  0.06496  0.54477  Biso   1.000  N
  N17      1.0000 0.71418  0.01995  0.53974  Biso   1.000  N
  N18      1.0000 0.79254  0.97930  0.53680  Biso   1.000  N
  N19      1.0000 0.36501  0.56496  0.95523  Biso   1.000  N
  N20      1.0000 0.28582  0.51995  0.96026  Biso   1.000  N
  N21      1.0000 0.20746  0.47930  0.96320  Biso   1.000  N
  N22      1.0000 0.86501  0.93504  0.04477  Biso   1.000  N
  N23      1.0000 0.78582  0.98005  0.03974  Biso   1.000  N
  N24      1.0000 0.70746  0.02070  0.03680  Biso   1.000  N
  N25      1.0000 0.45523  0.13499  0.43504  Biso   1.000  N
  N26      1.0000 0.46026  0.21418  0.48005  Biso   1.000  N
  N27      1.0000 0.46320  0.29254  0.52070  Biso   1.000  N
  N28      1.0000 0.54477  0.63499  0.06496  Biso   1.000  N
  N29      1.0000 0.53974  0.71418  0.01995  Biso   1.000  N
  N30      1.0000 0.53680  0.79254  0.97930  Biso   1.000  N
  N31      1.0000 0.95523  0.36501  0.56496  Biso   1.000  N
  N32      1.0000 0.96026  0.28582  0.51995  Biso   1.000  N
  N33      1.0000 0.96320  0.20746  0.47930  Biso   1.000  N
  N34      1.0000 0.04477  0.86501  0.93504  Biso   1.000  N
  N35      1.0000 0.03974  0.78582  0.98005  Biso   1.000  N
  N36      1.0000 0.03680  0.70746  0.02070  Biso   1.000  N
  N37      1.0000 0.56496  0.54477  0.86501  Biso   1.000  N
  N38      1.0000 0.51995  0.53974  0.78582  Biso   1.000  N
  N39      1.0000 0.47930  0.53680  0.70746  Biso   1.000  N
  N40      1.0000 0.93504  0.45523  0.36501  Biso   1.000  N
  N41      1.0000 0.98005  0.46026  0.28582  Biso   1.000  N
  N42      1.0000 0.02070  0.46320  0.20746  Biso   1.000  N
  N43      1.0000 0.43504  0.04477  0.63499  Biso   1.000  N
  N44      1.0000 0.48005  0.03974  0.71418  Biso   1.000  N
  N45      1.0000 0.52070  0.03680  0.79254  Biso   1.000  N
  N46      1.0000 0.06496  0.95523  0.13499  Biso   1.000  N
  N47      1.0000 0.01995  0.96026  0.21418  Biso   1.000  N
  N48      1.0000 0.97930  0.96320  0.29254  Biso   1.000  N
  N49      1.0000 0.86501  0.56496  0.54477  Biso   1.000  N
  N50      1.0000 0.78582  0.51995  0.53974  Biso   1.000  N
  N51      1.0000 0.70746  0.47930  0.53680  Biso   1.000  N
  N52      1.0000 0.36501  0.93504  0.45523  Biso   1.000  N
  N53      1.0000 0.28582  0.98005  0.46026  Biso   1.000  N
  N54      1.0000 0.20746  0.02070  0.46320  Biso   1.000  N
  N55      1.0000 0.63499  0.43504  0.04477  Biso   1.000  N
  N56      1.0000 0.71418  0.48005  0.03974  Biso   1.000  N
  N57      1.0000 0.79254  0.52070  0.03680  Biso   1.000  N
  N58      1.0000 0.13499  0.06496  0.95523  Biso   1.000  N
  N59      1.0000 0.21418  0.01995  0.96026  Biso   1.000  N
  N60      1.0000 0.29254  0.97930  0.96320  Biso   1.000  N
  N61      1.0000 0.54477  0.86501  0.56496  Biso   1.000  N
  N62      1.0000 0.53974  0.78582  0.51995  Biso   1.000  N
  N63      1.0000 0.53680  0.70746  0.47930  Biso   1.000  N
  N64      1.0000 0.45523  0.36501  0.93504  Biso   1.000  N
  N65      1.0000 0.46026  0.28582  0.98005  Biso   1.000  N
  N66      1.0000 0.46320  0.20746  0.02070  Biso   1.000  N
  N67      1.0000 0.04477  0.63499  0.43504  Biso   1.000  N
  N68      1.0000 0.03974  0.71418  0.48005  Biso   1.000  N
  N69      1.0000 0.03680  0.79254  0.52070  Biso   1.000  N
  N70      1.0000 0.95523  0.13499  0.06496  Biso   1.000  N
  N71      1.0000 0.96026  0.21418  0.01995  Biso   1.000  N
  N72      1.0000 0.96320  0.29254  0.97930  Biso   1.000  N
  Cr1      1.0000 0.50000  0.50000  0.00000  Biso   1.000  Cr
  Cr2      1.0000 0.00000  0.50000  0.50000  Biso   1.000  Cr
  Cr3      1.0000 0.50000  0.00000  0.50000  Biso   1.000  Cr
  Cr4      1.0000 0.00000  0.00000  0.00000  Biso   1.000  Cr
  K1       1.0000 0.50000  0.50000  0.50000  Biso   1.000  K
  K2       1.0000 0.00000  0.50000  0.00000  Biso   1.000  K
  K3       1.0000 0.50000  0.00000  0.00000  Biso   1.000  K
  K4       1.0000 0.00000  0.00000  0.50000  Biso   1.000  K
