data_image0
_cell_length_a       8.4363
_cell_length_b       13.1485
_cell_length_c       17.833
_cell_angle_alpha    90
_cell_angle_beta     90
_cell_angle_gamma    90

_symmetry_space_group_name_H-M    "P 1"
_symmetry_int_tables_number       1

loop_
  _symmetry_equiv_pos_as_xyz
  'x, y, z'

loop_
  _atom_site_label
  _atom_site_occupancy
  _atom_site_fract_x
  _atom_site_fract_y
  _atom_site_fract_z
  _atom_site_thermal_displace_type
  _atom_site_B_iso_or_equiv
  _atom_site_type_symbol
  C1       1.0000 0.61930  0.06010  0.36990  Biso   1.000  C
  C2       1.0000 0.68200  0.99490  0.43310  Biso   1.000  C
  C3       1.0000 0.76500  0.03920  0.49120  Biso   1.000  C
  H1       1.0000 0.77440  0.10970  0.49250  Biso   1.000  H
  C4       1.0000 0.83430  0.98140  0.54810  Biso   1.000  C
  H2       1.0000 0.90030  0.01120  0.58360  Biso   1.000  H
  C5       1.0000 0.80240  0.88050  0.54980  Biso   1.000  C
  H3       1.0000 0.84440  0.84130  0.58840  Biso   1.000  H
  C6       1.0000 0.65550  0.89100  0.43930  Biso   1.000  C
  C7       1.0000 0.55580  0.83000  0.38650  Biso   1.000  C
  C8       1.0000 0.77960  0.31390  0.57310  Biso   1.000  C
  C9       1.0000 0.69540  0.38340  0.51820  Biso   1.000  C
  C10      1.0000 0.61400  0.33910  0.45840  Biso   1.000  C
  H4       1.0000 0.61180  0.26870  0.45360  Biso   1.000  H
  C11      1.0000 0.53700  0.39780  0.40710  Biso   1.000  C
  H5       1.0000 0.48100  0.36820  0.36790  Biso   1.000  H
  C12      1.0000 0.54460  0.50230  0.41450  Biso   1.000  C
  H6       1.0000 0.49350  0.54320  0.37950  Biso   1.000  H
  C13      1.0000 0.69840  0.48880  0.52200  Biso   1.000  C
  C14      1.0000 0.78450  0.54910  0.58210  Biso   1.000  C
  N1       1.0000 0.71200  0.83520  0.49760  Biso   1.000  N
  N2       1.0000 0.62390  0.54580  0.47110  Biso   1.000  N
  O1       1.0000 0.68790  0.05360  0.30610  Biso   1.000  O
  O2       1.0000 0.51090  0.11970  0.38590  Biso   1.000  O
  O3       1.0000 0.48960  0.87400  0.33310  Biso   1.000  O
  O4       1.0000 0.54440  0.73580  0.40050  Biso   1.000  O
  O5       1.0000 0.77300  0.64490  0.57700  Biso   1.000  O
  O6       1.0000 0.85610  0.50560  0.63230  Biso   1.000  O
  O7       1.0000 0.91540  0.28520  0.56080  Biso   1.000  O
  O8       1.0000 0.69120  0.28320  0.62590  Biso   1.000  O
  Cu1      1.0000 0.64650  0.69147  0.49257  Biso   1.000  Cu
  U1       1.0000 0.81798  0.17818  0.23286  Biso   1.000  U
  C15      1.0000 0.38070  0.93990  0.86990  Biso   1.000  C
  C16      1.0000 0.31800  0.00510  0.93310  Biso   1.000  C
  C17      1.0000 0.23500  0.96080  0.99120  Biso   1.000  C
  H7       1.0000 0.22560  0.89030  0.99250  Biso   1.000  H
  C18      1.0000 0.16570  0.01860  0.04810  Biso   1.000  C
  H8       1.0000 0.09970  0.98880  0.08360  Biso   1.000  H
  C19      1.0000 0.19760  0.11950  0.04980  Biso   1.000  C
  H9       1.0000 0.15560  0.15870  0.08840  Biso   1.000  H
  C20      1.0000 0.34450  0.10900  0.93930  Biso   1.000  C
  C21      1.0000 0.44420  0.17000  0.88650  Biso   1.000  C
  C22      1.0000 0.22040  0.68610  0.07310  Biso   1.000  C
  C23      1.0000 0.30460  0.61660  0.01820  Biso   1.000  C
  C24      1.0000 0.38600  0.66090  0.95840  Biso   1.000  C
  H10      1.0000 0.38820  0.73130  0.95360  Biso   1.000  H
  C25      1.0000 0.46300  0.60220  0.90710  Biso   1.000  C
  H11      1.0000 0.51900  0.63180  0.86790  Biso   1.000  H
  C26      1.0000 0.45540  0.49770  0.91450  Biso   1.000  C
  H12      1.0000 0.50650  0.45680  0.87950  Biso   1.000  H
  C27      1.0000 0.30160  0.51120  0.02200  Biso   1.000  C
  C28      1.0000 0.21550  0.45090  0.08210  Biso   1.000  C
  N3       1.0000 0.28800  0.16480  0.99760  Biso   1.000  N
  N4       1.0000 0.37610  0.45420  0.97110  Biso   1.000  N
  O9       1.0000 0.31210  0.94640  0.80610  Biso   1.000  O
  O10      1.0000 0.48910  0.88030  0.88590  Biso   1.000  O
  O11      1.0000 0.51040  0.12600  0.83310  Biso   1.000  O
  O12      1.0000 0.45560  0.26420  0.90050  Biso   1.000  O
  O13      1.0000 0.22700  0.35510  0.07700  Biso   1.000  O
  O14      1.0000 0.14390  0.49440  0.13230  Biso   1.000  O
  O15      1.0000 0.08460  0.71480  0.06080  Biso   1.000  O
  O16      1.0000 0.30880  0.71680  0.12590  Biso   1.000  O
  Cu2      1.0000 0.35350  0.30853  0.99257  Biso   1.000  Cu
  U2       1.0000 0.18202  0.82182  0.73286  Biso   1.000  U
  C29      1.0000 0.11930  0.93990  0.36990  Biso   1.000  C
  C30      1.0000 0.18200  0.00510  0.43310  Biso   1.000  C
  C31      1.0000 0.26500  0.96080  0.49120  Biso   1.000  C
  H13      1.0000 0.27440  0.89030  0.49250  Biso   1.000  H
  C32      1.0000 0.33430  0.01860  0.54810  Biso   1.000  C
  H14      1.0000 0.40030  0.98880  0.58360  Biso   1.000  H
  C33      1.0000 0.30240  0.11950  0.54980  Biso   1.000  C
  H15      1.0000 0.34440  0.15870  0.58840  Biso   1.000  H
  C34      1.0000 0.15550  0.10900  0.43930  Biso   1.000  C
  C35      1.0000 0.05580  0.17000  0.38650  Biso   1.000  C
  C36      1.0000 0.27960  0.68610  0.57310  Biso   1.000  C
  C37      1.0000 0.19540  0.61660  0.51820  Biso   1.000  C
  C38      1.0000 0.11400  0.66090  0.45840  Biso   1.000  C
  H16      1.0000 0.11180  0.73130  0.45360  Biso   1.000  H
  C39      1.0000 0.03700  0.60220  0.40710  Biso   1.000  C
  H17      1.0000 0.98100  0.63180  0.36790  Biso   1.000  H
  C40      1.0000 0.04460  0.49770  0.41450  Biso   1.000  C
  H18      1.0000 0.99350  0.45680  0.37950  Biso   1.000  H
  C41      1.0000 0.19840  0.51120  0.52200  Biso   1.000  C
  C42      1.0000 0.28450  0.45090  0.58210  Biso   1.000  C
  N5       1.0000 0.21200  0.16480  0.49760  Biso   1.000  N
  N6       1.0000 0.12390  0.45420  0.47110  Biso   1.000  N
  O17      1.0000 0.18790  0.94640  0.30610  Biso   1.000  O
  O18      1.0000 0.01090  0.88030  0.38590  Biso   1.000  O
  O19      1.0000 0.98960  0.12600  0.33310  Biso   1.000  O
  O20      1.0000 0.04440  0.26420  0.40050  Biso   1.000  O
  O21      1.0000 0.27300  0.35510  0.57700  Biso   1.000  O
  O22      1.0000 0.35610  0.49440  0.63230  Biso   1.000  O
  O23      1.0000 0.41540  0.71480  0.56080  Biso   1.000  O
  O24      1.0000 0.19120  0.71680  0.62590  Biso   1.000  O
  Cu3      1.0000 0.14650  0.30853  0.49257  Biso   1.000  Cu
  U3       1.0000 0.31798  0.82182  0.23286  Biso   1.000  U
  C43      1.0000 0.88070  0.06010  0.86990  Biso   1.000  C
  C44      1.0000 0.81800  0.99490  0.93310  Biso   1.000  C
  C45      1.0000 0.73500  0.03920  0.99120  Biso   1.000  C
  H19      1.0000 0.72560  0.10970  0.99250  Biso   1.000  H
  C46      1.0000 0.66570  0.98140  0.04810  Biso   1.000  C
  H20      1.0000 0.59970  0.01120  0.08360  Biso   1.000  H
  C47      1.0000 0.69760  0.88050  0.04980  Biso   1.000  C
  H21      1.0000 0.65560  0.84130  0.08840  Biso   1.000  H
  C48      1.0000 0.84450  0.89100  0.93930  Biso   1.000  C
  C49      1.0000 0.94420  0.83000  0.88650  Biso   1.000  C
  C50      1.0000 0.72040  0.31390  0.07310  Biso   1.000  C
  C51      1.0000 0.80460  0.38340  0.01820  Biso   1.000  C
  C52      1.0000 0.88600  0.33910  0.95840  Biso   1.000  C
  H22      1.0000 0.88820  0.26870  0.95360  Biso   1.000  H
  C53      1.0000 0.96300  0.39780  0.90710  Biso   1.000  C
  H23      1.0000 0.01900  0.36820  0.86790  Biso   1.000  H
  C54      1.0000 0.95540  0.50230  0.91450  Biso   1.000  C
  H24      1.0000 0.00650  0.54320  0.87950  Biso   1.000  H
  C55      1.0000 0.80160  0.48880  0.02200  Biso   1.000  C
  C56      1.0000 0.71550  0.54910  0.08210  Biso   1.000  C
  N7       1.0000 0.78800  0.83520  0.99760  Biso   1.000  N
  N8       1.0000 0.87610  0.54580  0.97110  Biso   1.000  N
  O25      1.0000 0.81210  0.05360  0.80610  Biso   1.000  O
  O26      1.0000 0.98910  0.11970  0.88590  Biso   1.000  O
  O27      1.0000 0.01040  0.87400  0.83310  Biso   1.000  O
  O28      1.0000 0.95560  0.73580  0.90050  Biso   1.000  O
  O29      1.0000 0.72700  0.64490  0.07700  Biso   1.000  O
  O30      1.0000 0.64390  0.50560  0.13230  Biso   1.000  O
  O31      1.0000 0.58460  0.28520  0.06080  Biso   1.000  O
  O32      1.0000 0.80880  0.28320  0.12590  Biso   1.000  O
  Cu4      1.0000 0.85350  0.69147  0.99257  Biso   1.000  Cu
  U4       1.0000 0.68202  0.17818  0.73286  Biso   1.000  U
