data_ROQVIE_clean
_audit_creation_date              2015-10-16
_audit_creation_method            'Materials Studio'
_symmetry_space_group_name_H-M    'P1'
_symmetry_Int_Tables_number       1
_symmetry_cell_setting            triclinic
loop_
_symmetry_equiv_pos_as_xyz
  x,y,z
_cell_length_a                    7.2259
_cell_length_b                    15.1420
_cell_length_c                    18.6983
_cell_angle_alpha                 90.0000
_cell_angle_beta                  90.0000
_cell_angle_gamma                 93.1440
loop_
_atom_site_label
_atom_site_type_symbol
_atom_site_fract_x
_atom_site_fract_y
_atom_site_fract_z
_atom_site_U_iso_or_equiv
_atom_site_adp_type
_atom_site_occupancy
Zn1    Zn    0.36247   0.98077   0.92033   0.01267  Uiso   1.00
Zn2    Zn    0.36247   0.48077   0.57967   0.01267  Uiso   1.00
Zn3    Zn    0.63753   0.51923   0.42033   0.01267  Uiso   1.00
Zn4    Zn    0.63753   0.01923   0.07967   0.01267  Uiso   1.00
H1     H     0.30310   0.59500   0.33470   0.01267  Uiso   1.00
H2     H     0.94030   0.96950   0.17440   0.01267  Uiso   1.00
H3     H     0.30310   0.09500   0.16530   0.01267  Uiso   1.00
H4     H     0.98740   0.13540   0.74390   0.01267  Uiso   1.00
H5     H     0.98740   0.63540   0.75610   0.01267  Uiso   1.00
H6     H     0.05970   0.03050   0.82560   0.01267  Uiso   1.00
H7     H     0.69690   0.40500   0.66530   0.01267  Uiso   1.00
H8     H     0.03380   0.59090   0.51870   0.01267  Uiso   1.00
H9     H     0.96620   0.40910   0.48130   0.01267  Uiso   1.00
H10    H     0.01260   0.36460   0.24390   0.01267  Uiso   1.00
H11    H     0.05970   0.53050   0.67440   0.01267  Uiso   1.00
H12    H     0.56890   0.62460   0.66580   0.01267  Uiso   1.00
H13    H     0.43110   0.87540   0.16580   0.01267  Uiso   1.00
H14    H     0.56890   0.12460   0.83420   0.01267  Uiso   1.00
H15    H     0.96620   0.90910   0.01870   0.01267  Uiso   1.00
H16    H     0.48930   0.27060   0.25100   0.01267  Uiso   1.00
H17    H     0.94030   0.46950   0.32560   0.01267  Uiso   1.00
H18    H     0.69690   0.90500   0.83470   0.01267  Uiso   1.00
H19    H     0.01260   0.86460   0.25610   0.01267  Uiso   1.00
H20    H     0.48930   0.77060   0.24900   0.01267  Uiso   1.00
H21    H     0.43110   0.37540   0.33420   0.01267  Uiso   1.00
H22    H     0.51070   0.22940   0.75100   0.01267  Uiso   1.00
H23    H     0.51070   0.72940   0.74900   0.01267  Uiso   1.00
H24    H     0.03380   0.09090   0.98130   0.01267  Uiso   1.00
C1     C     0.58460   0.31000   0.26600   0.01267  Uiso   1.00
C2     C     0.24000   0.19530   0.73830   0.01267  Uiso   1.00
C3     C     0.87790   0.41710   0.51654   0.01267  Uiso   1.00
C4     C     0.80370   0.23600   0.18622   0.01267  Uiso   1.00
C5     C     0.15210   0.57190   0.68900   0.01267  Uiso   1.00
C6     C     0.80370   0.73600   0.31378   0.01267  Uiso   1.00
C7     C     0.04390   0.84590   0.87808   0.01267  Uiso   1.00
C8     C     0.84790   0.92810   0.18900   0.01267  Uiso   1.00
C9     C     0.27020   0.08500   0.11780   0.01267  Uiso   1.00
C10    C     0.87790   0.91710   0.98346   0.01267  Uiso   1.00
C11    C     0.89190   0.88970   0.91325   0.01267  Uiso   1.00
C12    C     0.19630   0.76400   0.81378   0.01267  Uiso   1.00
C13    C     0.41540   0.69000   0.73400   0.01267  Uiso   1.00
C14    C     0.76000   0.80470   0.26170   0.01267  Uiso   1.00
C15    C     0.44960   0.12650   0.81580   0.01267  Uiso   1.00
C16    C     0.19630   0.26400   0.68622   0.01267  Uiso   1.00
C17    C     0.10810   0.11030   0.08675   0.01267  Uiso   1.00
C18    C     0.72980   0.41500   0.61780   0.01267  Uiso   1.00
C19    C     0.15210   0.07190   0.81100   0.01267  Uiso   1.00
C20    C     0.12210   0.08290   0.01654   0.01267  Uiso   1.00
C21    C     0.89240   0.36540   0.26150   0.01267  Uiso   1.00
C22    C     0.72980   0.91500   0.88220   0.01267  Uiso   1.00
C23    C     0.41540   0.19000   0.76600   0.01267  Uiso   1.00
C24    C     0.24000   0.69530   0.76170   0.01267  Uiso   1.00
C25    C     0.95610   0.15410   0.12192   0.01267  Uiso   1.00
C26    C     0.95610   0.65410   0.37808   0.01267  Uiso   1.00
C27    C     0.89240   0.86540   0.23850   0.01267  Uiso   1.00
C28    C     0.84790   0.42810   0.31100   0.01267  Uiso   1.00
C29    C     0.89190   0.38970   0.58675   0.01267  Uiso   1.00
C30    C     0.76000   0.30470   0.23830   0.01267  Uiso   1.00
C31    C     0.55040   0.87350   0.18420   0.01267  Uiso   1.00
C32    C     0.10810   0.61030   0.41325   0.01267  Uiso   1.00
C33    C     0.58460   0.81000   0.23400   0.01267  Uiso   1.00
C34    C     0.04390   0.34590   0.62192   0.01267  Uiso   1.00
C35    C     0.27020   0.58500   0.38220   0.01267  Uiso   1.00
C36    C     0.44960   0.62650   0.68420   0.01267  Uiso   1.00
C37    C     0.10760   0.13460   0.76150   0.01267  Uiso   1.00
C38    C     0.12210   0.58290   0.48346   0.01267  Uiso   1.00
C39    C     0.55040   0.37350   0.31580   0.01267  Uiso   1.00
C40    C     0.10760   0.63460   0.73850   0.01267  Uiso   1.00
N1     N     0.62750   0.95580   0.92961   0.01267  Uiso   1.00
N2     N     0.67740   0.18180   0.15661   0.01267  Uiso   1.00
N3     N     0.77680   0.62789   0.38536   0.01267  Uiso   1.00
N4     N     0.77680   0.12789   0.11464   0.01267  Uiso   1.00
N5     N     0.98140   0.72180   0.33319   0.01267  Uiso   1.00
N6     N     0.32260   0.81820   0.84339   0.01267  Uiso   1.00
N7     N     0.71970   0.95656   0.99328   0.01267  Uiso   1.00
N8     N     0.28030   0.54344   0.49328   0.01267  Uiso   1.00
N9     N     0.22320   0.87211   0.88536   0.01267  Uiso   1.00
N10    N     0.67960   0.93250   0.16093   0.01267  Uiso   1.00
N11    N     0.32260   0.31820   0.65661   0.01267  Uiso   1.00
N12    N     0.32040   0.56750   0.66093   0.01267  Uiso   1.00
N13    N     0.37250   0.54420   0.42961   0.01267  Uiso   1.00
N14    N     0.22320   0.37211   0.61464   0.01267  Uiso   1.00
N15    N     0.37250   0.04420   0.07039   0.01267  Uiso   1.00
N16    N     0.01860   0.77820   0.83319   0.01267  Uiso   1.00
N17    N     0.67740   0.68180   0.34339   0.01267  Uiso   1.00
N18    N     0.32040   0.06750   0.83907   0.01267  Uiso   1.00
N19    N     0.62750   0.45580   0.57039   0.01267  Uiso   1.00
N20    N     0.67960   0.43250   0.33907   0.01267  Uiso   1.00
N21    N     0.28030   0.04344   0.00672   0.01267  Uiso   1.00
N22    N     0.71970   0.45656   0.50672   0.01267  Uiso   1.00
N23    N     0.98140   0.22180   0.16681   0.01267  Uiso   1.00
N24    N     0.01860   0.27820   0.66681   0.01267  Uiso   1.00
