data_image0
_cell_length_a       8.8694
_cell_length_b       17.827
_cell_length_c       9.4062
_cell_angle_alpha    90
_cell_angle_beta     107.25
_cell_angle_gamma    90

_symmetry_space_group_name_H-M    "P 1"
_symmetry_int_tables_number       1

loop_
  _symmetry_equiv_pos_as_xyz
  'x, y, z'

loop_
  _atom_site_label
  _atom_site_occupancy
  _atom_site_fract_x
  _atom_site_fract_y
  _atom_site_fract_z
  _atom_site_thermal_displace_type
  _atom_site_B_iso_or_equiv
  _atom_site_type_symbol
  Cd1      1.0000 0.42282  0.57294  0.84954  Biso   1.000  Cd
  Cl1      1.0000 0.69792  0.51416  0.98770  Biso   1.000  Cl
  N1       1.0000 0.45630  0.66832  0.02290  Biso   1.000  N
  N2       1.0000 0.49360  0.77058  0.20070  Biso   1.000  N
  N3       1.0000 0.67780  0.87420  0.22800  Biso   1.000  N
  N4       1.0000 0.37740  0.48435  0.66080  Biso   1.000  N
  N5       1.0000 0.33520  0.38170  0.48780  Biso   1.000  N
  N6       1.0000 0.45820  0.35308  0.29670  Biso   1.000  N
  C1       1.0000 0.47900  0.71707  0.10380  Biso   1.000  C
  C2       1.0000 0.59370  0.82407  0.21030  Biso   1.000  C
  C3       1.0000 0.36720  0.43761  0.57880  Biso   1.000  C
  C4       1.0000 0.40490  0.36966  0.38780  Biso   1.000  C
  Cd2      1.0000 0.07718  0.07294  0.65046  Biso   1.000  Cd
  Cl2      1.0000 0.80208  0.01416  0.51230  Biso   1.000  Cl
  N7       1.0000 0.04370  0.16832  0.47710  Biso   1.000  N
  N8       1.0000 0.00640  0.27058  0.29930  Biso   1.000  N
  N9       1.0000 0.82220  0.37420  0.27200  Biso   1.000  N
  N10      1.0000 0.12260  0.98435  0.83920  Biso   1.000  N
  N11      1.0000 0.16480  0.88170  0.01220  Biso   1.000  N
  N12      1.0000 0.04180  0.85308  0.20330  Biso   1.000  N
  C5       1.0000 0.02100  0.21707  0.39620  Biso   1.000  C
  C6       1.0000 0.90630  0.32407  0.28970  Biso   1.000  C
  C7       1.0000 0.13280  0.93761  0.92120  Biso   1.000  C
  C8       1.0000 0.09510  0.86966  0.11220  Biso   1.000  C
  Cd3      1.0000 0.57718  0.42706  0.15046  Biso   1.000  Cd
  Cl3      1.0000 0.30208  0.48584  0.01230  Biso   1.000  Cl
  N13      1.0000 0.54370  0.33168  0.97710  Biso   1.000  N
  N14      1.0000 0.50640  0.22942  0.79930  Biso   1.000  N
  N15      1.0000 0.32220  0.12580  0.77200  Biso   1.000  N
  N16      1.0000 0.62260  0.51565  0.33920  Biso   1.000  N
  N17      1.0000 0.66480  0.61830  0.51220  Biso   1.000  N
  N18      1.0000 0.54180  0.64692  0.70330  Biso   1.000  N
  C9       1.0000 0.52100  0.28293  0.89620  Biso   1.000  C
  C10      1.0000 0.40630  0.17593  0.78970  Biso   1.000  C
  C11      1.0000 0.63280  0.56239  0.42120  Biso   1.000  C
  C12      1.0000 0.59510  0.63034  0.61220  Biso   1.000  C
  Cd4      1.0000 0.92282  0.92706  0.34954  Biso   1.000  Cd
  Cl4      1.0000 0.19792  0.98584  0.48770  Biso   1.000  Cl
  N19      1.0000 0.95630  0.83168  0.52290  Biso   1.000  N
  N20      1.0000 0.99360  0.72942  0.70070  Biso   1.000  N
  N21      1.0000 0.17780  0.62580  0.72800  Biso   1.000  N
  N22      1.0000 0.87740  0.01565  0.16080  Biso   1.000  N
  N23      1.0000 0.83520  0.11830  0.98780  Biso   1.000  N
  N24      1.0000 0.95820  0.14692  0.79670  Biso   1.000  N
  C13      1.0000 0.97900  0.78293  0.60380  Biso   1.000  C
  C14      1.0000 0.09370  0.67593  0.71030  Biso   1.000  C
  C15      1.0000 0.86720  0.06239  0.07880  Biso   1.000  C
  C16      1.0000 0.90490  0.13034  0.88780  Biso   1.000  C
