data_image0
_cell_length_a       23.1885
_cell_length_b       23.1885
_cell_length_c       23.1885
_cell_angle_alpha    90
_cell_angle_beta     90
_cell_angle_gamma    90

_symmetry_space_group_name_H-M    "P 1"
_symmetry_int_tables_number       1

loop_
  _symmetry_equiv_pos_as_xyz
  'x, y, z'

loop_
  _atom_site_label
  _atom_site_occupancy
  _atom_site_fract_x
  _atom_site_fract_y
  _atom_site_fract_z
  _atom_site_thermal_displace_type
  _atom_site_B_iso_or_equiv
  _atom_site_type_symbol
  O1       1.0000 0.32400  0.22320  0.29190  Biso   1.000  O
  N1       1.0000 0.32400  0.22100  0.34920  Biso   1.000  N
  C1       1.0000 0.36200  0.25280  0.37810  Biso   1.000  C
  H1       1.0000 0.38760  0.27610  0.35780  Biso   1.000  H
  C2       1.0000 0.36410  0.25200  0.43590  Biso   1.000  C
  H2       1.0000 0.39070  0.27510  0.45490  Biso   1.000  H
  C3       1.0000 0.32670  0.21660  0.46840  Biso   1.000  C
  C4       1.0000 0.28980  0.18280  0.43690  Biso   1.000  C
  H3       1.0000 0.26490  0.15820  0.45640  Biso   1.000  H
  C5       1.0000 0.28810  0.18390  0.37600  Biso   1.000  C
  H4       1.0000 0.26330  0.16010  0.35540  Biso   1.000  H
  O2       1.0000 0.82400  0.72320  0.79190  Biso   1.000  O
  N2       1.0000 0.82400  0.72100  0.84920  Biso   1.000  N
  C6       1.0000 0.86200  0.75280  0.87810  Biso   1.000  C
  H5       1.0000 0.88760  0.77610  0.85780  Biso   1.000  H
  C7       1.0000 0.86410  0.75200  0.93590  Biso   1.000  C
  H6       1.0000 0.89070  0.77510  0.95490  Biso   1.000  H
  C8       1.0000 0.82670  0.71660  0.96840  Biso   1.000  C
  C9       1.0000 0.78980  0.68280  0.93690  Biso   1.000  C
  H7       1.0000 0.76490  0.65820  0.95640  Biso   1.000  H
  C10      1.0000 0.78810  0.68390  0.87600  Biso   1.000  C
  H8       1.0000 0.76330  0.66010  0.85540  Biso   1.000  H
  O3       1.0000 0.67600  0.77680  0.29190  Biso   1.000  O
  N3       1.0000 0.67600  0.77900  0.34920  Biso   1.000  N
  C11      1.0000 0.63800  0.74720  0.37810  Biso   1.000  C
  H9       1.0000 0.61240  0.72390  0.35780  Biso   1.000  H
  C12      1.0000 0.63590  0.74800  0.43590  Biso   1.000  C
  H10      1.0000 0.60930  0.72490  0.45490  Biso   1.000  H
  C13      1.0000 0.67330  0.78340  0.46840  Biso   1.000  C
  C14      1.0000 0.71020  0.81720  0.43690  Biso   1.000  C
  H11      1.0000 0.73510  0.84180  0.45640  Biso   1.000  H
  C15      1.0000 0.71190  0.81610  0.37600  Biso   1.000  C
  H12      1.0000 0.73670  0.83990  0.35540  Biso   1.000  H
  O4       1.0000 0.17600  0.27680  0.79190  Biso   1.000  O
  N4       1.0000 0.17600  0.27900  0.84920  Biso   1.000  N
  C16      1.0000 0.13800  0.24720  0.87810  Biso   1.000  C
  H13      1.0000 0.11240  0.22390  0.85780  Biso   1.000  H
  C17      1.0000 0.13590  0.24800  0.93590  Biso   1.000  C
  H14      1.0000 0.10930  0.22490  0.95490  Biso   1.000  H
  C18      1.0000 0.17330  0.28340  0.96840  Biso   1.000  C
  C19      1.0000 0.21020  0.31720  0.93690  Biso   1.000  C
  H15      1.0000 0.23510  0.34180  0.95640  Biso   1.000  H
  C20      1.0000 0.21190  0.31610  0.87600  Biso   1.000  C
  H16      1.0000 0.23670  0.33990  0.85540  Biso   1.000  H
  O5       1.0000 0.67600  0.22320  0.70810  Biso   1.000  O
  N5       1.0000 0.67600  0.22100  0.65080  Biso   1.000  N
  C21      1.0000 0.63800  0.25280  0.62190  Biso   1.000  C
  H17      1.0000 0.61240  0.27610  0.64220  Biso   1.000  H
  C22      1.0000 0.63590  0.25200  0.56410  Biso   1.000  C
  H18      1.0000 0.60930  0.27510  0.54510  Biso   1.000  H
  C23      1.0000 0.67330  0.21660  0.53160  Biso   1.000  C
  C24      1.0000 0.71020  0.18280  0.56310  Biso   1.000  C
  H19      1.0000 0.73510  0.15820  0.54360  Biso   1.000  H
  C25      1.0000 0.71190  0.18390  0.62400  Biso   1.000  C
  H20      1.0000 0.73670  0.16010  0.64460  Biso   1.000  H
  O6       1.0000 0.17600  0.72320  0.20810  Biso   1.000  O
  N6       1.0000 0.17600  0.72100  0.15080  Biso   1.000  N
  C26      1.0000 0.13800  0.75280  0.12190  Biso   1.000  C
  H21      1.0000 0.11240  0.77610  0.14220  Biso   1.000  H
  C27      1.0000 0.13590  0.75200  0.06410  Biso   1.000  C
  H22      1.0000 0.10930  0.77510  0.04510  Biso   1.000  H
  C28      1.0000 0.17330  0.71660  0.03160  Biso   1.000  C
  C29      1.0000 0.21020  0.68280  0.06310  Biso   1.000  C
  H23      1.0000 0.23510  0.65820  0.04360  Biso   1.000  H
  C30      1.0000 0.21190  0.68390  0.12400  Biso   1.000  C
  H24      1.0000 0.23670  0.66010  0.14460  Biso   1.000  H
  O7       1.0000 0.32400  0.77680  0.70810  Biso   1.000  O
  N7       1.0000 0.32400  0.77900  0.65080  Biso   1.000  N
  C31      1.0000 0.36200  0.74720  0.62190  Biso   1.000  C
  H25      1.0000 0.38760  0.72390  0.64220  Biso   1.000  H
  C32      1.0000 0.36410  0.74800  0.56410  Biso   1.000  C
  H26      1.0000 0.39070  0.72490  0.54510  Biso   1.000  H
  C33      1.0000 0.32670  0.78340  0.53160  Biso   1.000  C
  C34      1.0000 0.28980  0.81720  0.56310  Biso   1.000  C
  H27      1.0000 0.26490  0.84180  0.54360  Biso   1.000  H
  C35      1.0000 0.28810  0.81610  0.62400  Biso   1.000  C
  H28      1.0000 0.26330  0.83990  0.64460  Biso   1.000  H
  O8       1.0000 0.82400  0.27680  0.20810  Biso   1.000  O
  N8       1.0000 0.82400  0.27900  0.15080  Biso   1.000  N
  C36      1.0000 0.86200  0.24720  0.12190  Biso   1.000  C
  H29      1.0000 0.88760  0.22390  0.14220  Biso   1.000  H
  C37      1.0000 0.86410  0.24800  0.06410  Biso   1.000  C
  H30      1.0000 0.89070  0.22490  0.04510  Biso   1.000  H
  C38      1.0000 0.82670  0.28340  0.03160  Biso   1.000  C
  C39      1.0000 0.78980  0.31720  0.06310  Biso   1.000  C
  H31      1.0000 0.76490  0.34180  0.04360  Biso   1.000  H
  C40      1.0000 0.78810  0.31610  0.12400  Biso   1.000  C
  H32      1.0000 0.76330  0.33990  0.14460  Biso   1.000  H
  O9       1.0000 0.29190  0.32400  0.22320  Biso   1.000  O
  N9       1.0000 0.34920  0.32400  0.22100  Biso   1.000  N
  C41      1.0000 0.37810  0.36200  0.25280  Biso   1.000  C
  H33      1.0000 0.35780  0.38760  0.27610  Biso   1.000  H
  C42      1.0000 0.43590  0.36410  0.25200  Biso   1.000  C
  H34      1.0000 0.45490  0.39070  0.27510  Biso   1.000  H
  C43      1.0000 0.46840  0.32670  0.21660  Biso   1.000  C
  C44      1.0000 0.43690  0.28980  0.18280  Biso   1.000  C
  H35      1.0000 0.45640  0.26490  0.15820  Biso   1.000  H
  C45      1.0000 0.37600  0.28810  0.18390  Biso   1.000  C
  H36      1.0000 0.35540  0.26330  0.16010  Biso   1.000  H
  O10      1.0000 0.79190  0.82400  0.72320  Biso   1.000  O
  N10      1.0000 0.84920  0.82400  0.72100  Biso   1.000  N
  C46      1.0000 0.87810  0.86200  0.75280  Biso   1.000  C
  H37      1.0000 0.85780  0.88760  0.77610  Biso   1.000  H
  C47      1.0000 0.93590  0.86410  0.75200  Biso   1.000  C
  H38      1.0000 0.95490  0.89070  0.77510  Biso   1.000  H
  C48      1.0000 0.96840  0.82670  0.71660  Biso   1.000  C
  C49      1.0000 0.93690  0.78980  0.68280  Biso   1.000  C
  H39      1.0000 0.95640  0.76490  0.65820  Biso   1.000  H
  C50      1.0000 0.87600  0.78810  0.68390  Biso   1.000  C
  H40      1.0000 0.85540  0.76330  0.66010  Biso   1.000  H
  O11      1.0000 0.29190  0.67600  0.77680  Biso   1.000  O
  N11      1.0000 0.34920  0.67600  0.77900  Biso   1.000  N
  C51      1.0000 0.37810  0.63800  0.74720  Biso   1.000  C
  H41      1.0000 0.35780  0.61240  0.72390  Biso   1.000  H
  C52      1.0000 0.43590  0.63590  0.74800  Biso   1.000  C
  H42      1.0000 0.45490  0.60930  0.72490  Biso   1.000  H
  C53      1.0000 0.46840  0.67330  0.78340  Biso   1.000  C
  C54      1.0000 0.43690  0.71020  0.81720  Biso   1.000  C
  H43      1.0000 0.45640  0.73510  0.84180  Biso   1.000  H
  C55      1.0000 0.37600  0.71190  0.81610  Biso   1.000  C
  H44      1.0000 0.35540  0.73670  0.83990  Biso   1.000  H
  O12      1.0000 0.79190  0.17600  0.27680  Biso   1.000  O
  N12      1.0000 0.84920  0.17600  0.27900  Biso   1.000  N
  C56      1.0000 0.87810  0.13800  0.24720  Biso   1.000  C
  H45      1.0000 0.85780  0.11240  0.22390  Biso   1.000  H
  C57      1.0000 0.93590  0.13590  0.24800  Biso   1.000  C
  H46      1.0000 0.95490  0.10930  0.22490  Biso   1.000  H
  C58      1.0000 0.96840  0.17330  0.28340  Biso   1.000  C
  C59      1.0000 0.93690  0.21020  0.31720  Biso   1.000  C
  H47      1.0000 0.95640  0.23510  0.34180  Biso   1.000  H
  C60      1.0000 0.87600  0.21190  0.31610  Biso   1.000  C
  H48      1.0000 0.85540  0.23670  0.33990  Biso   1.000  H
  O13      1.0000 0.70810  0.67600  0.22320  Biso   1.000  O
  N13      1.0000 0.65080  0.67600  0.22100  Biso   1.000  N
  C61      1.0000 0.62190  0.63800  0.25280  Biso   1.000  C
  H49      1.0000 0.64220  0.61240  0.27610  Biso   1.000  H
  C62      1.0000 0.56410  0.63590  0.25200  Biso   1.000  C
  H50      1.0000 0.54510  0.60930  0.27510  Biso   1.000  H
  C63      1.0000 0.53160  0.67330  0.21660  Biso   1.000  C
  C64      1.0000 0.56310  0.71020  0.18280  Biso   1.000  C
  H51      1.0000 0.54360  0.73510  0.15820  Biso   1.000  H
  C65      1.0000 0.62400  0.71190  0.18390  Biso   1.000  C
  H52      1.0000 0.64460  0.73670  0.16010  Biso   1.000  H
  O14      1.0000 0.20810  0.17600  0.72320  Biso   1.000  O
  N14      1.0000 0.15080  0.17600  0.72100  Biso   1.000  N
  C66      1.0000 0.12190  0.13800  0.75280  Biso   1.000  C
  H53      1.0000 0.14220  0.11240  0.77610  Biso   1.000  H
  C67      1.0000 0.06410  0.13590  0.75200  Biso   1.000  C
  H54      1.0000 0.04510  0.10930  0.77510  Biso   1.000  H
  C68      1.0000 0.03160  0.17330  0.71660  Biso   1.000  C
  C69      1.0000 0.06310  0.21020  0.68280  Biso   1.000  C
  H55      1.0000 0.04360  0.23510  0.65820  Biso   1.000  H
  C70      1.0000 0.12400  0.21190  0.68390  Biso   1.000  C
  H56      1.0000 0.14460  0.23670  0.66010  Biso   1.000  H
  O15      1.0000 0.70810  0.32400  0.77680  Biso   1.000  O
  N15      1.0000 0.65080  0.32400  0.77900  Biso   1.000  N
  C71      1.0000 0.62190  0.36200  0.74720  Biso   1.000  C
  H57      1.0000 0.64220  0.38760  0.72390  Biso   1.000  H
  C72      1.0000 0.56410  0.36410  0.74800  Biso   1.000  C
  H58      1.0000 0.54510  0.39070  0.72490  Biso   1.000  H
  C73      1.0000 0.53160  0.32670  0.78340  Biso   1.000  C
  C74      1.0000 0.56310  0.28980  0.81720  Biso   1.000  C
  H59      1.0000 0.54360  0.26490  0.84180  Biso   1.000  H
  C75      1.0000 0.62400  0.28810  0.81610  Biso   1.000  C
  H60      1.0000 0.64460  0.26330  0.83990  Biso   1.000  H
  O16      1.0000 0.20810  0.82400  0.27680  Biso   1.000  O
  N16      1.0000 0.15080  0.82400  0.27900  Biso   1.000  N
  C76      1.0000 0.12190  0.86200  0.24720  Biso   1.000  C
  H61      1.0000 0.14220  0.88760  0.22390  Biso   1.000  H
  C77      1.0000 0.06410  0.86410  0.24800  Biso   1.000  C
  H62      1.0000 0.04510  0.89070  0.22490  Biso   1.000  H
  C78      1.0000 0.03160  0.82670  0.28340  Biso   1.000  C
  C79      1.0000 0.06310  0.78980  0.31720  Biso   1.000  C
  H63      1.0000 0.04360  0.76490  0.34180  Biso   1.000  H
  C80      1.0000 0.12400  0.78810  0.31610  Biso   1.000  C
  H64      1.0000 0.14460  0.76330  0.33990  Biso   1.000  H
  O17      1.0000 0.22320  0.29190  0.32400  Biso   1.000  O
  N17      1.0000 0.22100  0.34920  0.32400  Biso   1.000  N
  C81      1.0000 0.25280  0.37810  0.36200  Biso   1.000  C
  H65      1.0000 0.27610  0.35780  0.38760  Biso   1.000  H
  C82      1.0000 0.25200  0.43590  0.36410  Biso   1.000  C
  H66      1.0000 0.27510  0.45490  0.39070  Biso   1.000  H
  C83      1.0000 0.21660  0.46840  0.32670  Biso   1.000  C
  C84      1.0000 0.18280  0.43690  0.28980  Biso   1.000  C
  H67      1.0000 0.15820  0.45640  0.26490  Biso   1.000  H
  C85      1.0000 0.18390  0.37600  0.28810  Biso   1.000  C
  H68      1.0000 0.16010  0.35540  0.26330  Biso   1.000  H
  O18      1.0000 0.72320  0.79190  0.82400  Biso   1.000  O
  N18      1.0000 0.72100  0.84920  0.82400  Biso   1.000  N
  C86      1.0000 0.75280  0.87810  0.86200  Biso   1.000  C
  H69      1.0000 0.77610  0.85780  0.88760  Biso   1.000  H
  C87      1.0000 0.75200  0.93590  0.86410  Biso   1.000  C
  H70      1.0000 0.77510  0.95490  0.89070  Biso   1.000  H
  C88      1.0000 0.71660  0.96840  0.82670  Biso   1.000  C
  C89      1.0000 0.68280  0.93690  0.78980  Biso   1.000  C
  H71      1.0000 0.65820  0.95640  0.76490  Biso   1.000  H
  C90      1.0000 0.68390  0.87600  0.78810  Biso   1.000  C
  H72      1.0000 0.66010  0.85540  0.76330  Biso   1.000  H
  O19      1.0000 0.77680  0.29190  0.67600  Biso   1.000  O
  N19      1.0000 0.77900  0.34920  0.67600  Biso   1.000  N
  C91      1.0000 0.74720  0.37810  0.63800  Biso   1.000  C
  H73      1.0000 0.72390  0.35780  0.61240  Biso   1.000  H
  C92      1.0000 0.74800  0.43590  0.63590  Biso   1.000  C
  H74      1.0000 0.72490  0.45490  0.60930  Biso   1.000  H
  C93      1.0000 0.78340  0.46840  0.67330  Biso   1.000  C
  C94      1.0000 0.81720  0.43690  0.71020  Biso   1.000  C
  H75      1.0000 0.84180  0.45640  0.73510  Biso   1.000  H
  C95      1.0000 0.81610  0.37600  0.71190  Biso   1.000  C
  H76      1.0000 0.83990  0.35540  0.73670  Biso   1.000  H
  O20      1.0000 0.27680  0.79190  0.17600  Biso   1.000  O
  N20      1.0000 0.27900  0.84920  0.17600  Biso   1.000  N
  C96      1.0000 0.24720  0.87810  0.13800  Biso   1.000  C
  H77      1.0000 0.22390  0.85780  0.11240  Biso   1.000  H
  C97      1.0000 0.24800  0.93590  0.13590  Biso   1.000  C
  H78      1.0000 0.22490  0.95490  0.10930  Biso   1.000  H
  C98      1.0000 0.28340  0.96840  0.17330  Biso   1.000  C
  C99      1.0000 0.31720  0.93690  0.21020  Biso   1.000  C
  H79      1.0000 0.34180  0.95640  0.23510  Biso   1.000  H
  C100     1.0000 0.31610  0.87600  0.21190  Biso   1.000  C
  H80      1.0000 0.33990  0.85540  0.23670  Biso   1.000  H
  O21      1.0000 0.22320  0.70810  0.67600  Biso   1.000  O
  N21      1.0000 0.22100  0.65080  0.67600  Biso   1.000  N
  C101     1.0000 0.25280  0.62190  0.63800  Biso   1.000  C
  H81      1.0000 0.27610  0.64220  0.61240  Biso   1.000  H
  C102     1.0000 0.25200  0.56410  0.63590  Biso   1.000  C
  H82      1.0000 0.27510  0.54510  0.60930  Biso   1.000  H
  C103     1.0000 0.21660  0.53160  0.67330  Biso   1.000  C
  C104     1.0000 0.18280  0.56310  0.71020  Biso   1.000  C
  H83      1.0000 0.15820  0.54360  0.73510  Biso   1.000  H
  C105     1.0000 0.18390  0.62400  0.71190  Biso   1.000  C
  H84      1.0000 0.16010  0.64460  0.73670  Biso   1.000  H
  O22      1.0000 0.72320  0.20810  0.17600  Biso   1.000  O
  N22      1.0000 0.72100  0.15080  0.17600  Biso   1.000  N
  C106     1.0000 0.75280  0.12190  0.13800  Biso   1.000  C
  H85      1.0000 0.77610  0.14220  0.11240  Biso   1.000  H
  C107     1.0000 0.75200  0.06410  0.13590  Biso   1.000  C
  H86      1.0000 0.77510  0.04510  0.10930  Biso   1.000  H
  C108     1.0000 0.71660  0.03160  0.17330  Biso   1.000  C
  C109     1.0000 0.68280  0.06310  0.21020  Biso   1.000  C
  H87      1.0000 0.65820  0.04360  0.23510  Biso   1.000  H
  C110     1.0000 0.68390  0.12400  0.21190  Biso   1.000  C
  H88      1.0000 0.66010  0.14460  0.23670  Biso   1.000  H
  O23      1.0000 0.77680  0.70810  0.32400  Biso   1.000  O
  N23      1.0000 0.77900  0.65080  0.32400  Biso   1.000  N
  C111     1.0000 0.74720  0.62190  0.36200  Biso   1.000  C
  H89      1.0000 0.72390  0.64220  0.38760  Biso   1.000  H
  C112     1.0000 0.74800  0.56410  0.36410  Biso   1.000  C
  H90      1.0000 0.72490  0.54510  0.39070  Biso   1.000  H
  C113     1.0000 0.78340  0.53160  0.32670  Biso   1.000  C
  C114     1.0000 0.81720  0.56310  0.28980  Biso   1.000  C
  H91      1.0000 0.84180  0.54360  0.26490  Biso   1.000  H
  C115     1.0000 0.81610  0.62400  0.28810  Biso   1.000  C
  H92      1.0000 0.83990  0.64460  0.26330  Biso   1.000  H
  O24      1.0000 0.27680  0.20810  0.82400  Biso   1.000  O
  N24      1.0000 0.27900  0.15080  0.82400  Biso   1.000  N
  C116     1.0000 0.24720  0.12190  0.86200  Biso   1.000  C
  H93      1.0000 0.22390  0.14220  0.88760  Biso   1.000  H
  C117     1.0000 0.24800  0.06410  0.86410  Biso   1.000  C
  H94      1.0000 0.22490  0.04510  0.89070  Biso   1.000  H
  C118     1.0000 0.28340  0.03160  0.82670  Biso   1.000  C
  C119     1.0000 0.31720  0.06310  0.78980  Biso   1.000  C
  H95      1.0000 0.34180  0.04360  0.76490  Biso   1.000  H
  C120     1.0000 0.31610  0.12400  0.78810  Biso   1.000  C
  H96      1.0000 0.33990  0.14460  0.76330  Biso   1.000  H
  O25      1.0000 0.67600  0.77680  0.70810  Biso   1.000  O
  N25      1.0000 0.67600  0.77900  0.65080  Biso   1.000  N
  C121     1.0000 0.63800  0.74720  0.62190  Biso   1.000  C
  H97      1.0000 0.61240  0.72390  0.64220  Biso   1.000  H
  C122     1.0000 0.63590  0.74800  0.56410  Biso   1.000  C
  H98      1.0000 0.60930  0.72490  0.54510  Biso   1.000  H
  C123     1.0000 0.67330  0.78340  0.53160  Biso   1.000  C
  C124     1.0000 0.71020  0.81720  0.56310  Biso   1.000  C
  H99      1.0000 0.73510  0.84180  0.54360  Biso   1.000  H
  C125     1.0000 0.71190  0.81610  0.62400  Biso   1.000  C
  H100     1.0000 0.73670  0.83990  0.64460  Biso   1.000  H
  O26      1.0000 0.17600  0.27680  0.20810  Biso   1.000  O
  N26      1.0000 0.17600  0.27900  0.15080  Biso   1.000  N
  C126     1.0000 0.13800  0.24720  0.12190  Biso   1.000  C
  H101     1.0000 0.11240  0.22390  0.14220  Biso   1.000  H
  C127     1.0000 0.13590  0.24800  0.06410  Biso   1.000  C
  H102     1.0000 0.10930  0.22490  0.04510  Biso   1.000  H
  C128     1.0000 0.17330  0.28340  0.03160  Biso   1.000  C
  C129     1.0000 0.21020  0.31720  0.06310  Biso   1.000  C
  H103     1.0000 0.23510  0.34180  0.04360  Biso   1.000  H
  C130     1.0000 0.21190  0.31610  0.12400  Biso   1.000  C
  H104     1.0000 0.23670  0.33990  0.14460  Biso   1.000  H
  O27      1.0000 0.32400  0.22320  0.70810  Biso   1.000  O
  N27      1.0000 0.32400  0.22100  0.65080  Biso   1.000  N
  C131     1.0000 0.36200  0.25280  0.62190  Biso   1.000  C
  H105     1.0000 0.38760  0.27610  0.64220  Biso   1.000  H
  C132     1.0000 0.36410  0.25200  0.56410  Biso   1.000  C
  H106     1.0000 0.39070  0.27510  0.54510  Biso   1.000  H
  C133     1.0000 0.32670  0.21660  0.53160  Biso   1.000  C
  C134     1.0000 0.28980  0.18280  0.56310  Biso   1.000  C
  H107     1.0000 0.26490  0.15820  0.54360  Biso   1.000  H
  C135     1.0000 0.28810  0.18390  0.62400  Biso   1.000  C
  H108     1.0000 0.26330  0.16010  0.64460  Biso   1.000  H
  O28      1.0000 0.82400  0.72320  0.20810  Biso   1.000  O
  N28      1.0000 0.82400  0.72100  0.15080  Biso   1.000  N
  C136     1.0000 0.86200  0.75280  0.12190  Biso   1.000  C
  H109     1.0000 0.88760  0.77610  0.14220  Biso   1.000  H
  C137     1.0000 0.86410  0.75200  0.06410  Biso   1.000  C
  H110     1.0000 0.89070  0.77510  0.04510  Biso   1.000  H
  C138     1.0000 0.82670  0.71660  0.03160  Biso   1.000  C
  C139     1.0000 0.78980  0.68280  0.06310  Biso   1.000  C
  H111     1.0000 0.76490  0.65820  0.04360  Biso   1.000  H
  C140     1.0000 0.78810  0.68390  0.12400  Biso   1.000  C
  H112     1.0000 0.76330  0.66010  0.14460  Biso   1.000  H
  O29      1.0000 0.32400  0.77680  0.29190  Biso   1.000  O
  N29      1.0000 0.32400  0.77900  0.34920  Biso   1.000  N
  C141     1.0000 0.36200  0.74720  0.37810  Biso   1.000  C
  H113     1.0000 0.38760  0.72390  0.35780  Biso   1.000  H
  C142     1.0000 0.36410  0.74800  0.43590  Biso   1.000  C
  H114     1.0000 0.39070  0.72490  0.45490  Biso   1.000  H
  C143     1.0000 0.32670  0.78340  0.46840  Biso   1.000  C
  C144     1.0000 0.28980  0.81720  0.43690  Biso   1.000  C
  H115     1.0000 0.26490  0.84180  0.45640  Biso   1.000  H
  C145     1.0000 0.28810  0.81610  0.37600  Biso   1.000  C
  H116     1.0000 0.26330  0.83990  0.35540  Biso   1.000  H
  O30      1.0000 0.82400  0.27680  0.79190  Biso   1.000  O
  N30      1.0000 0.82400  0.27900  0.84920  Biso   1.000  N
  C146     1.0000 0.86200  0.24720  0.87810  Biso   1.000  C
  H117     1.0000 0.88760  0.22390  0.85780  Biso   1.000  H
  C147     1.0000 0.86410  0.24800  0.93590  Biso   1.000  C
  H118     1.0000 0.89070  0.22490  0.95490  Biso   1.000  H
  C148     1.0000 0.82670  0.28340  0.96840  Biso   1.000  C
  C149     1.0000 0.78980  0.31720  0.93690  Biso   1.000  C
  H119     1.0000 0.76490  0.34180  0.95640  Biso   1.000  H
  C150     1.0000 0.78810  0.31610  0.87600  Biso   1.000  C
  H120     1.0000 0.76330  0.33990  0.85540  Biso   1.000  H
  O31      1.0000 0.67600  0.22320  0.29190  Biso   1.000  O
  N31      1.0000 0.67600  0.22100  0.34920  Biso   1.000  N
  C151     1.0000 0.63800  0.25280  0.37810  Biso   1.000  C
  H121     1.0000 0.61240  0.27610  0.35780  Biso   1.000  H
  C152     1.0000 0.63590  0.25200  0.43590  Biso   1.000  C
  H122     1.0000 0.60930  0.27510  0.45490  Biso   1.000  H
  C153     1.0000 0.67330  0.21660  0.46840  Biso   1.000  C
  C154     1.0000 0.71020  0.18280  0.43690  Biso   1.000  C
  H123     1.0000 0.73510  0.15820  0.45640  Biso   1.000  H
  C155     1.0000 0.71190  0.18390  0.37600  Biso   1.000  C
  H124     1.0000 0.73670  0.16010  0.35540  Biso   1.000  H
  O32      1.0000 0.17600  0.72320  0.79190  Biso   1.000  O
  N32      1.0000 0.17600  0.72100  0.84920  Biso   1.000  N
  C156     1.0000 0.13800  0.75280  0.87810  Biso   1.000  C
  H125     1.0000 0.11240  0.77610  0.85780  Biso   1.000  H
  C157     1.0000 0.13590  0.75200  0.93590  Biso   1.000  C
  H126     1.0000 0.10930  0.77510  0.95490  Biso   1.000  H
  C158     1.0000 0.17330  0.71660  0.96840  Biso   1.000  C
  C159     1.0000 0.21020  0.68280  0.93690  Biso   1.000  C
  H127     1.0000 0.23510  0.65820  0.95640  Biso   1.000  H
  C160     1.0000 0.21190  0.68390  0.87600  Biso   1.000  C
  H128     1.0000 0.23670  0.66010  0.85540  Biso   1.000  H
  O33      1.0000 0.70810  0.67600  0.77680  Biso   1.000  O
  N33      1.0000 0.65080  0.67600  0.77900  Biso   1.000  N
  C161     1.0000 0.62190  0.63800  0.74720  Biso   1.000  C
  H129     1.0000 0.64220  0.61240  0.72390  Biso   1.000  H
  C162     1.0000 0.56410  0.63590  0.74800  Biso   1.000  C
  H130     1.0000 0.54510  0.60930  0.72490  Biso   1.000  H
  C163     1.0000 0.53160  0.67330  0.78340  Biso   1.000  C
  C164     1.0000 0.56310  0.71020  0.81720  Biso   1.000  C
  H131     1.0000 0.54360  0.73510  0.84180  Biso   1.000  H
  C165     1.0000 0.62400  0.71190  0.81610  Biso   1.000  C
  H132     1.0000 0.64460  0.73670  0.83990  Biso   1.000  H
  O34      1.0000 0.20810  0.17600  0.27680  Biso   1.000  O
  N34      1.0000 0.15080  0.17600  0.27900  Biso   1.000  N
  C166     1.0000 0.12190  0.13800  0.24720  Biso   1.000  C
  H133     1.0000 0.14220  0.11240  0.22390  Biso   1.000  H
  C167     1.0000 0.06410  0.13590  0.24800  Biso   1.000  C
  H134     1.0000 0.04510  0.10930  0.22490  Biso   1.000  H
  C168     1.0000 0.03160  0.17330  0.28340  Biso   1.000  C
  C169     1.0000 0.06310  0.21020  0.31720  Biso   1.000  C
  H135     1.0000 0.04360  0.23510  0.34180  Biso   1.000  H
  C170     1.0000 0.12400  0.21190  0.31610  Biso   1.000  C
  H136     1.0000 0.14460  0.23670  0.33990  Biso   1.000  H
  O35      1.0000 0.70810  0.32400  0.22320  Biso   1.000  O
  N35      1.0000 0.65080  0.32400  0.22100  Biso   1.000  N
  C171     1.0000 0.62190  0.36200  0.25280  Biso   1.000  C
  H137     1.0000 0.64220  0.38760  0.27610  Biso   1.000  H
  C172     1.0000 0.56410  0.36410  0.25200  Biso   1.000  C
  H138     1.0000 0.54510  0.39070  0.27510  Biso   1.000  H
  C173     1.0000 0.53160  0.32670  0.21660  Biso   1.000  C
  C174     1.0000 0.56310  0.28980  0.18280  Biso   1.000  C
  H139     1.0000 0.54360  0.26490  0.15820  Biso   1.000  H
  C175     1.0000 0.62400  0.28810  0.18390  Biso   1.000  C
  H140     1.0000 0.64460  0.26330  0.16010  Biso   1.000  H
  O36      1.0000 0.20810  0.82400  0.72320  Biso   1.000  O
  N36      1.0000 0.15080  0.82400  0.72100  Biso   1.000  N
  C176     1.0000 0.12190  0.86200  0.75280  Biso   1.000  C
  H141     1.0000 0.14220  0.88760  0.77610  Biso   1.000  H
  C177     1.0000 0.06410  0.86410  0.75200  Biso   1.000  C
  H142     1.0000 0.04510  0.89070  0.77510  Biso   1.000  H
  C178     1.0000 0.03160  0.82670  0.71660  Biso   1.000  C
  C179     1.0000 0.06310  0.78980  0.68280  Biso   1.000  C
  H143     1.0000 0.04360  0.76490  0.65820  Biso   1.000  H
  C180     1.0000 0.12400  0.78810  0.68390  Biso   1.000  C
  H144     1.0000 0.14460  0.76330  0.66010  Biso   1.000  H
  O37      1.0000 0.29190  0.32400  0.77680  Biso   1.000  O
  N37      1.0000 0.34920  0.32400  0.77900  Biso   1.000  N
  C181     1.0000 0.37810  0.36200  0.74720  Biso   1.000  C
  H145     1.0000 0.35780  0.38760  0.72390  Biso   1.000  H
  C182     1.0000 0.43590  0.36410  0.74800  Biso   1.000  C
  H146     1.0000 0.45490  0.39070  0.72490  Biso   1.000  H
  C183     1.0000 0.46840  0.32670  0.78340  Biso   1.000  C
  C184     1.0000 0.43690  0.28980  0.81720  Biso   1.000  C
  H147     1.0000 0.45640  0.26490  0.84180  Biso   1.000  H
  C185     1.0000 0.37600  0.28810  0.81610  Biso   1.000  C
  H148     1.0000 0.35540  0.26330  0.83990  Biso   1.000  H
  O38      1.0000 0.79190  0.82400  0.27680  Biso   1.000  O
  N38      1.0000 0.84920  0.82400  0.27900  Biso   1.000  N
  C186     1.0000 0.87810  0.86200  0.24720  Biso   1.000  C
  H149     1.0000 0.85780  0.88760  0.22390  Biso   1.000  H
  C187     1.0000 0.93590  0.86410  0.24800  Biso   1.000  C
  H150     1.0000 0.95490  0.89070  0.22490  Biso   1.000  H
  C188     1.0000 0.96840  0.82670  0.28340  Biso   1.000  C
  C189     1.0000 0.93690  0.78980  0.31720  Biso   1.000  C
  H151     1.0000 0.95640  0.76490  0.34180  Biso   1.000  H
  C190     1.0000 0.87600  0.78810  0.31610  Biso   1.000  C
  H152     1.0000 0.85540  0.76330  0.33990  Biso   1.000  H
  O39      1.0000 0.29190  0.67600  0.22320  Biso   1.000  O
  N39      1.0000 0.34920  0.67600  0.22100  Biso   1.000  N
  C191     1.0000 0.37810  0.63800  0.25280  Biso   1.000  C
  H153     1.0000 0.35780  0.61240  0.27610  Biso   1.000  H
  C192     1.0000 0.43590  0.63590  0.25200  Biso   1.000  C
  H154     1.0000 0.45490  0.60930  0.27510  Biso   1.000  H
  C193     1.0000 0.46840  0.67330  0.21660  Biso   1.000  C
  C194     1.0000 0.43690  0.71020  0.18280  Biso   1.000  C
  H155     1.0000 0.45640  0.73510  0.15820  Biso   1.000  H
  C195     1.0000 0.37600  0.71190  0.18390  Biso   1.000  C
  H156     1.0000 0.35540  0.73670  0.16010  Biso   1.000  H
  O40      1.0000 0.79190  0.17600  0.72320  Biso   1.000  O
  N40      1.0000 0.84920  0.17600  0.72100  Biso   1.000  N
  C196     1.0000 0.87810  0.13800  0.75280  Biso   1.000  C
  H157     1.0000 0.85780  0.11240  0.77610  Biso   1.000  H
  C197     1.0000 0.93590  0.13590  0.75200  Biso   1.000  C
  H158     1.0000 0.95490  0.10930  0.77510  Biso   1.000  H
  C198     1.0000 0.96840  0.17330  0.71660  Biso   1.000  C
  C199     1.0000 0.93690  0.21020  0.68280  Biso   1.000  C
  H159     1.0000 0.95640  0.23510  0.65820  Biso   1.000  H
  C200     1.0000 0.87600  0.21190  0.68390  Biso   1.000  C
  H160     1.0000 0.85540  0.23670  0.66010  Biso   1.000  H
  O41      1.0000 0.77680  0.70810  0.67600  Biso   1.000  O
  N41      1.0000 0.77900  0.65080  0.67600  Biso   1.000  N
  C201     1.0000 0.74720  0.62190  0.63800  Biso   1.000  C
  H161     1.0000 0.72390  0.64220  0.61240  Biso   1.000  H
  C202     1.0000 0.74800  0.56410  0.63590  Biso   1.000  C
  H162     1.0000 0.72490  0.54510  0.60930  Biso   1.000  H
  C203     1.0000 0.78340  0.53160  0.67330  Biso   1.000  C
  C204     1.0000 0.81720  0.56310  0.71020  Biso   1.000  C
  H163     1.0000 0.84180  0.54360  0.73510  Biso   1.000  H
  C205     1.0000 0.81610  0.62400  0.71190  Biso   1.000  C
  H164     1.0000 0.83990  0.64460  0.73670  Biso   1.000  H
  O42      1.0000 0.27680  0.20810  0.17600  Biso   1.000  O
  N42      1.0000 0.27900  0.15080  0.17600  Biso   1.000  N
  C206     1.0000 0.24720  0.12190  0.13800  Biso   1.000  C
  H165     1.0000 0.22390  0.14220  0.11240  Biso   1.000  H
  C207     1.0000 0.24800  0.06410  0.13590  Biso   1.000  C
  H166     1.0000 0.22490  0.04510  0.10930  Biso   1.000  H
  C208     1.0000 0.28340  0.03160  0.17330  Biso   1.000  C
  C209     1.0000 0.31720  0.06310  0.21020  Biso   1.000  C
  H167     1.0000 0.34180  0.04360  0.23510  Biso   1.000  H
  C210     1.0000 0.31610  0.12400  0.21190  Biso   1.000  C
  H168     1.0000 0.33990  0.14460  0.23670  Biso   1.000  H
  O43      1.0000 0.22320  0.70810  0.32400  Biso   1.000  O
  N43      1.0000 0.22100  0.65080  0.32400  Biso   1.000  N
  C211     1.0000 0.25280  0.62190  0.36200  Biso   1.000  C
  H169     1.0000 0.27610  0.64220  0.38760  Biso   1.000  H
  C212     1.0000 0.25200  0.56410  0.36410  Biso   1.000  C
  H170     1.0000 0.27510  0.54510  0.39070  Biso   1.000  H
  C213     1.0000 0.21660  0.53160  0.32670  Biso   1.000  C
  C214     1.0000 0.18280  0.56310  0.28980  Biso   1.000  C
  H171     1.0000 0.15820  0.54360  0.26490  Biso   1.000  H
  C215     1.0000 0.18390  0.62400  0.28810  Biso   1.000  C
  H172     1.0000 0.16010  0.64460  0.26330  Biso   1.000  H
  O44      1.0000 0.72320  0.20810  0.82400  Biso   1.000  O
  N44      1.0000 0.72100  0.15080  0.82400  Biso   1.000  N
  C216     1.0000 0.75280  0.12190  0.86200  Biso   1.000  C
  H173     1.0000 0.77610  0.14220  0.88760  Biso   1.000  H
  C217     1.0000 0.75200  0.06410  0.86410  Biso   1.000  C
  H174     1.0000 0.77510  0.04510  0.89070  Biso   1.000  H
  C218     1.0000 0.71660  0.03160  0.82670  Biso   1.000  C
  C219     1.0000 0.68280  0.06310  0.78980  Biso   1.000  C
  H175     1.0000 0.65820  0.04360  0.76490  Biso   1.000  H
  C220     1.0000 0.68390  0.12400  0.78810  Biso   1.000  C
  H176     1.0000 0.66010  0.14460  0.76330  Biso   1.000  H
  O45      1.0000 0.77680  0.29190  0.32400  Biso   1.000  O
  N45      1.0000 0.77900  0.34920  0.32400  Biso   1.000  N
  C221     1.0000 0.74720  0.37810  0.36200  Biso   1.000  C
  H177     1.0000 0.72390  0.35780  0.38760  Biso   1.000  H
  C222     1.0000 0.74800  0.43590  0.36410  Biso   1.000  C
  H178     1.0000 0.72490  0.45490  0.39070  Biso   1.000  H
  C223     1.0000 0.78340  0.46840  0.32670  Biso   1.000  C
  C224     1.0000 0.81720  0.43690  0.28980  Biso   1.000  C
  H179     1.0000 0.84180  0.45640  0.26490  Biso   1.000  H
  C225     1.0000 0.81610  0.37600  0.28810  Biso   1.000  C
  H180     1.0000 0.83990  0.35540  0.26330  Biso   1.000  H
  O46      1.0000 0.27680  0.79190  0.82400  Biso   1.000  O
  N46      1.0000 0.27900  0.84920  0.82400  Biso   1.000  N
  C226     1.0000 0.24720  0.87810  0.86200  Biso   1.000  C
  H181     1.0000 0.22390  0.85780  0.88760  Biso   1.000  H
  C227     1.0000 0.24800  0.93590  0.86410  Biso   1.000  C
  H182     1.0000 0.22490  0.95490  0.89070  Biso   1.000  H
  C228     1.0000 0.28340  0.96840  0.82670  Biso   1.000  C
  C229     1.0000 0.31720  0.93690  0.78980  Biso   1.000  C
  H183     1.0000 0.34180  0.95640  0.76490  Biso   1.000  H
  C230     1.0000 0.31610  0.87600  0.78810  Biso   1.000  C
  H184     1.0000 0.33990  0.85540  0.76330  Biso   1.000  H
  O47      1.0000 0.22320  0.29190  0.67600  Biso   1.000  O
  N47      1.0000 0.22100  0.34920  0.67600  Biso   1.000  N
  C231     1.0000 0.25280  0.37810  0.63800  Biso   1.000  C
  H185     1.0000 0.27610  0.35780  0.61240  Biso   1.000  H
  C232     1.0000 0.25200  0.43590  0.63590  Biso   1.000  C
  H186     1.0000 0.27510  0.45490  0.60930  Biso   1.000  H
  C233     1.0000 0.21660  0.46840  0.67330  Biso   1.000  C
  C234     1.0000 0.18280  0.43690  0.71020  Biso   1.000  C
  H187     1.0000 0.15820  0.45640  0.73510  Biso   1.000  H
  C235     1.0000 0.18390  0.37600  0.71190  Biso   1.000  C
  H188     1.0000 0.16010  0.35540  0.73670  Biso   1.000  H
  O48      1.0000 0.72320  0.79190  0.17600  Biso   1.000  O
  N48      1.0000 0.72100  0.84920  0.17600  Biso   1.000  N
  C236     1.0000 0.75280  0.87810  0.13800  Biso   1.000  C
  H189     1.0000 0.77610  0.85780  0.11240  Biso   1.000  H
  C237     1.0000 0.75200  0.93590  0.13590  Biso   1.000  C
  H190     1.0000 0.77510  0.95490  0.10930  Biso   1.000  H
  C238     1.0000 0.71660  0.96840  0.17330  Biso   1.000  C
  C239     1.0000 0.68280  0.93690  0.21020  Biso   1.000  C
  H191     1.0000 0.65820  0.95640  0.23510  Biso   1.000  H
  C240     1.0000 0.68390  0.87600  0.21190  Biso   1.000  C
  H192     1.0000 0.66010  0.85540  0.23670  Biso   1.000  H
  Cu1      1.0000 0.25000  0.25000  0.25000  Biso   1.000  Cu
  Cu2      1.0000 0.75000  0.75000  0.25000  Biso   1.000  Cu
  Cu3      1.0000 0.75000  0.25000  0.75000  Biso   1.000  Cu
  Cu4      1.0000 0.25000  0.75000  0.75000  Biso   1.000  Cu
  Cu5      1.0000 0.75000  0.75000  0.75000  Biso   1.000  Cu
  Cu6      1.0000 0.25000  0.25000  0.75000  Biso   1.000  Cu
  Cu7      1.0000 0.25000  0.75000  0.25000  Biso   1.000  Cu
  Cu8      1.0000 0.75000  0.25000  0.25000  Biso   1.000  Cu
