data_ROTQIC_clean
_audit_creation_date              2015-10-16
_audit_creation_method            'Materials Studio'
_symmetry_space_group_name_H-M    'P1'
_symmetry_Int_Tables_number       1
_symmetry_cell_setting            triclinic
loop_
_symmetry_equiv_pos_as_xyz
  x,y,z
_cell_length_a                    8.6937
_cell_length_b                    12.0563
_cell_length_c                    20.6607
_cell_angle_alpha                 90.0000
_cell_angle_beta                  90.0000
_cell_angle_gamma                 101.9030
loop_
_atom_site_label
_atom_site_type_symbol
_atom_site_fract_x
_atom_site_fract_y
_atom_site_fract_z
_atom_site_U_iso_or_equiv
_atom_site_adp_type
_atom_site_occupancy
Zn1    Zn    0.66061   0.23951   0.50630   0.01267  Uiso   1.00
Zn2    Zn    0.94629   0.82078   0.00210   0.01267  Uiso   1.00
Zn3    Zn    0.33939   0.76049   0.00630   0.01267  Uiso   1.00
Zn4    Zn    0.05371   0.17922   0.50210   0.01267  Uiso   1.00
H1     H     0.50760   0.18960   0.91160   0.01267  Uiso   1.00
H2     H     0.96120   0.30340   0.09180   0.01267  Uiso   1.00
H3     H     0.40640   0.49230   0.06060   0.01267  Uiso   1.00
H4     H     0.09100   0.26200   0.32670   0.01267  Uiso   1.00
H5     H     0.04530   0.31350   0.26150   0.01267  Uiso   1.00
H6     H     0.35210   0.41870   0.99900   0.01267  Uiso   1.00
H7     H     0.61730   0.65900   0.29360   0.01267  Uiso   1.00
H8     H     0.49240   0.81040   0.41160   0.01267  Uiso   1.00
H9     H     0.44760   0.90460   0.45580   0.01267  Uiso   1.00
H10    H     0.01970   0.31410   0.76340   0.01267  Uiso   1.00
H11    H     0.91270   0.60870   0.82240   0.01267  Uiso   1.00
H12    H     0.08730   0.39130   0.32240   0.01267  Uiso   1.00
H13    H     0.07040   0.23840   0.70900   0.01267  Uiso   1.00
H14    H     0.90900   0.73800   0.82670   0.01267  Uiso   1.00
H15    H     0.59360   0.50770   0.56060   0.01267  Uiso   1.00
H16    H     0.95470   0.68650   0.76150   0.01267  Uiso   1.00
H17    H     0.67930   0.45820   0.50410   0.01267  Uiso   1.00
H18    H     0.98030   0.68590   0.26340   0.01267  Uiso   1.00
H19    H     0.89810   0.21050   0.73590   0.01267  Uiso   1.00
H20    H     0.88740   0.29790   0.86790   0.01267  Uiso   1.00
H21    H     0.32070   0.54180   0.00410   0.01267  Uiso   1.00
H22    H     0.55240   0.09540   0.95580   0.01267  Uiso   1.00
H23    H     0.38270   0.34100   0.79360   0.01267  Uiso   1.00
H24    H     0.49300   0.79730   0.48710   0.01267  Uiso   1.00
H25    H     0.11260   0.70210   0.36790   0.01267  Uiso   1.00
H26    H     0.64790   0.58130   0.49900   0.01267  Uiso   1.00
H27    H     0.03880   0.69660   0.59180   0.01267  Uiso   1.00
H28    H     0.36730   0.31490   0.19710   0.01267  Uiso   1.00
H29    H     0.10190   0.78950   0.23590   0.01267  Uiso   1.00
H30    H     0.92960   0.76160   0.20900   0.01267  Uiso   1.00
H31    H     0.63270   0.68510   0.69710   0.01267  Uiso   1.00
H32    H     0.50700   0.20270   0.98710   0.01267  Uiso   1.00
C1     C     0.63030   0.65790   0.00140   0.01267  Uiso   1.00
C2     C     0.87710   0.80580   0.41180   0.01267  Uiso   1.00
C3     C     0.56770   0.59100   0.27470   0.01267  Uiso   1.00
C4     C     0.71870   0.01770   0.50000   0.01267  Uiso   1.00
C5     C     0.35100   0.47840   0.21280   0.01267  Uiso   1.00
C6     C     0.03910   0.24860   0.00830   0.01267  Uiso   1.00
C7     C     0.81510   0.35330   0.95380   0.01267  Uiso   1.00
C8     C     0.96090   0.75140   0.50830   0.01267  Uiso   1.00
C9     C     0.51400   0.85030   0.45190   0.01267  Uiso   1.00
C10    C     0.90090   0.29790   0.91260   0.01267  Uiso   1.00
C11    C     0.79500   0.50330   0.68700   0.01267  Uiso   1.00
C12    C     0.17330   0.20410   0.01940   0.01267  Uiso   1.00
C13    C     0.76840   0.46190   0.31360   0.01267  Uiso   1.00
C14    C     0.96160   0.68300   0.80780   0.01267  Uiso   1.00
C15    C     0.00800   0.24250   0.94170   0.01267  Uiso   1.00
C16    C     0.18490   0.64670   0.45380   0.01267  Uiso   1.00
C17    C     0.33000   0.66240   0.23310   0.01267  Uiso   1.00
C18    C     0.87890   0.28870   0.60930   0.01267  Uiso   1.00
C19    C     0.84000   0.28770   0.39880   0.01267  Uiso   1.00
C20    C     0.16440   0.64220   0.52100   0.01267  Uiso   1.00
C21    C     0.87860   0.29260   0.32660   0.01267  Uiso   1.00
C22    C     0.57430   0.41990   0.74190   0.01267  Uiso   1.00
C23    C     0.12290   0.19420   0.91180   0.01267  Uiso   1.00
C24    C     0.39300   0.49400   0.01500   0.01267  Uiso   1.00
C25    C     0.28130   0.98230   0.00000   0.01267  Uiso   1.00
C26    C     0.54260   0.53810   0.98420   0.01267  Uiso   1.00
C27    C     0.36870   0.50570   0.77750   0.01267  Uiso   1.00
C28    C     0.66300   0.90340   0.45350   0.01267  Uiso   1.00
C29    C     0.58290   0.61700   0.71580   0.01267  Uiso   1.00
C30    C     0.05260   0.69670   0.54720   0.01267  Uiso   1.00
C31    C     0.48600   0.14970   0.95190   0.01267  Uiso   1.00
C32    C     0.43230   0.40900   0.77470   0.01267  Uiso   1.00
C33    C     0.01400   0.73000   0.22530   0.01267  Uiso   1.00
C34    C     0.66000   0.30510   0.25970   0.01267  Uiso   1.00
C35    C     0.12140   0.70740   0.82660   0.01267  Uiso   1.00
C36    C     0.94740   0.30330   0.04720   0.01267  Uiso   1.00
C37    C     0.36970   0.34210   0.50140   0.01267  Uiso   1.00
C38    C     0.03840   0.31700   0.30780   0.01267  Uiso   1.00
C39    C     0.09910   0.70210   0.41260   0.01267  Uiso   1.00
C40    C     0.06450   0.65230   0.17320   0.01267  Uiso   1.00
C41    C     0.56010   0.39240   0.24770   0.01267  Uiso   1.00
C42    C     0.12110   0.71130   0.10930   0.01267  Uiso   1.00
C43    C     0.33700   0.09660   0.95350   0.01267  Uiso   1.00
C44    C     0.20500   0.49670   0.18700   0.01267  Uiso   1.00
C45    C     0.45740   0.46190   0.48420   0.01267  Uiso   1.00
C46    C     0.27400   0.57770   0.43150   0.01267  Uiso   1.00
C47    C     0.60700   0.50600   0.51500   0.01267  Uiso   1.00
C48    C     0.72600   0.42230   0.93150   0.01267  Uiso   1.00
C49    C     0.16000   0.71230   0.89880   0.01267  Uiso   1.00
C50    C     0.42570   0.58010   0.24190   0.01267  Uiso   1.00
C51    C     0.93550   0.34770   0.67320   0.01267  Uiso   1.00
C52    C     0.64900   0.52160   0.71280   0.01267  Uiso   1.00
C53    C     0.43990   0.60760   0.74770   0.01267  Uiso   1.00
C54    C     0.23160   0.53810   0.81360   0.01267  Uiso   1.00
C55    C     0.34000   0.69490   0.75970   0.01267  Uiso   1.00
C56    C     0.63130   0.49430   0.27750   0.01267  Uiso   1.00
C57    C     0.28060   0.57150   0.54150   0.01267  Uiso   1.00
C58    C     0.67000   0.33760   0.73310   0.01267  Uiso   1.00
C59    C     0.98600   0.27000   0.72530   0.01267  Uiso   1.00
C60    C     0.71940   0.42850   0.04150   0.01267  Uiso   1.00
C61    C     0.83560   0.35780   0.02100   0.01267  Uiso   1.00
C62    C     0.82670   0.79590   0.51940   0.01267  Uiso   1.00
C63    C     0.99200   0.75750   0.44170   0.01267  Uiso   1.00
C64    C     0.41710   0.38300   0.21580   0.01267  Uiso   1.00
N1     N     0.22510   0.17050   0.95980   0.01267  Uiso   1.00
N2     N     0.78080   0.36020   0.29600   0.01267  Uiso   1.00
N3     N     0.80690   0.39660   0.70120   0.01267  Uiso   1.00
N4     N     0.77490   0.82950   0.45980   0.01267  Uiso   1.00
N5     N     0.19310   0.60340   0.20120   0.01267  Uiso   1.00
N6     N     0.21920   0.63980   0.79600   0.01267  Uiso   1.00
N7     N     0.64890   0.45810   0.98720   0.01267  Uiso   1.00
N8     N     0.35110   0.54190   0.48720   0.01267  Uiso   1.00
O1     O     0.38580   0.92350   0.00390   0.01267  Uiso   1.00
O2     O     0.92640   0.27670   0.44510   0.01267  Uiso   1.00
O3     O     0.01640   0.76430   0.08650   0.01267  Uiso   1.00
O4     O     0.24500   0.70170   0.08670   0.01267  Uiso   1.00
O5     O     0.22580   0.32370   0.49810   0.01267  Uiso   1.00
O6     O     0.07360   0.72330   0.94510   0.01267  Uiso   1.00
O7     O     0.44980   0.26830   0.51680   0.01267  Uiso   1.00
O8     O     0.32100   0.56090   0.37660   0.01267  Uiso   1.00
O9     O     0.30090   0.70680   0.91660   0.01267  Uiso   1.00
O10    O     0.85400   0.53510   0.34720   0.01267  Uiso   1.00
O11    O     0.87780   0.84410   0.35790   0.01267  Uiso   1.00
O12    O     0.61420   0.07650   0.50390   0.01267  Uiso   1.00
O13    O     0.21300   0.18510   0.07120   0.01267  Uiso   1.00
O14    O     0.89500   0.56150   0.66000   0.01267  Uiso   1.00
O15    O     0.14300   0.95200   0.99730   0.01267  Uiso   1.00
O16    O     0.62700   0.20950   0.24880   0.01267  Uiso   1.00
O17    O     0.55020   0.73170   0.01680   0.01267  Uiso   1.00
O18    O     0.78700   0.81490   0.57120   0.01267  Uiso   1.00
O19    O     0.98360   0.23570   0.58650   0.01267  Uiso   1.00
O20    O     0.75500   0.29830   0.58670   0.01267  Uiso   1.00
O21    O     0.64350   0.23740   0.75460   0.01267  Uiso   1.00
O22    O     0.35650   0.76260   0.25460   0.01267  Uiso   1.00
O23    O     0.67900   0.43910   0.87660   0.01267  Uiso   1.00
O24    O     0.77420   0.67630   0.99810   0.01267  Uiso   1.00
O25    O     0.12220   0.15590   0.85790   0.01267  Uiso   1.00
O26    O     0.31240   0.54650   0.59590   0.01267  Uiso   1.00
O27    O     0.69910   0.29320   0.41660   0.01267  Uiso   1.00
O28    O     0.85700   0.04800   0.49730   0.01267  Uiso   1.00
O29    O     0.37300   0.79050   0.74880   0.01267  Uiso   1.00
O30    O     0.10500   0.43850   0.16000   0.01267  Uiso   1.00
O31    O     0.68760   0.45350   0.09590   0.01267  Uiso   1.00
O32    O     0.14600   0.46490   0.84720   0.01267  Uiso   1.00
