data_image0
_cell_length_a       16.7446
_cell_length_b       16.7446
_cell_length_c       15.1964
_cell_angle_alpha    90
_cell_angle_beta     90
_cell_angle_gamma    120

_symmetry_space_group_name_H-M    "P 1"
_symmetry_int_tables_number       1

loop_
  _symmetry_equiv_pos_as_xyz
  'x, y, z'

loop_
  _atom_site_label
  _atom_site_occupancy
  _atom_site_fract_x
  _atom_site_fract_y
  _atom_site_fract_z
  _atom_site_thermal_displace_type
  _atom_site_B_iso_or_equiv
  _atom_site_type_symbol
  O1       1.0000 0.47800  0.82430  0.34600  Biso   1.000  O
  C1       1.0000 0.41190  0.96380  0.46980  Biso   1.000  C
  N1       1.0000 0.32120  0.93060  0.44300  Biso   1.000  N
  H1       1.0000 0.29640  0.88650  0.40530  Biso   1.000  H
  H2       1.0000 0.28990  0.95420  0.46410  Biso   1.000  H
  O2       1.0000 0.17570  0.65370  0.34600  Biso   1.000  O
  C2       1.0000 0.03620  0.44810  0.46980  Biso   1.000  C
  N2       1.0000 0.06940  0.39060  0.44300  Biso   1.000  N
  H3       1.0000 0.11350  0.40990  0.40530  Biso   1.000  H
  H4       1.0000 0.04580  0.33570  0.46410  Biso   1.000  H
  O3       1.0000 0.34630  0.52200  0.34600  Biso   1.000  O
  C3       1.0000 0.55190  0.58810  0.46980  Biso   1.000  C
  N3       1.0000 0.60940  0.67880  0.44300  Biso   1.000  N
  H5       1.0000 0.59010  0.70360  0.40530  Biso   1.000  H
  H6       1.0000 0.66430  0.71010  0.46410  Biso   1.000  H
  O4       1.0000 0.52200  0.17570  0.84600  Biso   1.000  O
  C4       1.0000 0.58810  0.03620  0.96980  Biso   1.000  C
  N4       1.0000 0.67880  0.06940  0.94300  Biso   1.000  N
  H7       1.0000 0.70360  0.11350  0.90530  Biso   1.000  H
  H8       1.0000 0.71010  0.04580  0.96410  Biso   1.000  H
  O5       1.0000 0.82430  0.34630  0.84600  Biso   1.000  O
  C5       1.0000 0.96380  0.55190  0.96980  Biso   1.000  C
  N5       1.0000 0.93060  0.60940  0.94300  Biso   1.000  N
  H9       1.0000 0.88650  0.59010  0.90530  Biso   1.000  H
  H10      1.0000 0.95420  0.66430  0.96410  Biso   1.000  H
  O6       1.0000 0.65370  0.47800  0.84600  Biso   1.000  O
  C6       1.0000 0.44810  0.41190  0.96980  Biso   1.000  C
  N6       1.0000 0.39060  0.32120  0.94300  Biso   1.000  N
  H11      1.0000 0.40990  0.29640  0.90530  Biso   1.000  H
  H12      1.0000 0.33570  0.28990  0.96410  Biso   1.000  H
  O7       1.0000 0.82430  0.47800  0.65400  Biso   1.000  O
  C7       1.0000 0.96380  0.41190  0.53020  Biso   1.000  C
  N7       1.0000 0.93060  0.32120  0.55700  Biso   1.000  N
  H13      1.0000 0.88650  0.29640  0.59470  Biso   1.000  H
  H14      1.0000 0.95420  0.28990  0.53590  Biso   1.000  H
  O8       1.0000 0.65370  0.17570  0.65400  Biso   1.000  O
  C8       1.0000 0.44810  0.03620  0.53020  Biso   1.000  C
  N8       1.0000 0.39060  0.06940  0.55700  Biso   1.000  N
  H15      1.0000 0.40990  0.11350  0.59470  Biso   1.000  H
  H16      1.0000 0.33570  0.04580  0.53590  Biso   1.000  H
  O9       1.0000 0.52200  0.34630  0.65400  Biso   1.000  O
  C9       1.0000 0.58810  0.55190  0.53020  Biso   1.000  C
  N9       1.0000 0.67880  0.60940  0.55700  Biso   1.000  N
  H17      1.0000 0.70360  0.59010  0.59470  Biso   1.000  H
  H18      1.0000 0.71010  0.66430  0.53590  Biso   1.000  H
  O10      1.0000 0.17570  0.52200  0.15400  Biso   1.000  O
  C10      1.0000 0.03620  0.58810  0.03020  Biso   1.000  C
  N10      1.0000 0.06940  0.67880  0.05700  Biso   1.000  N
  H19      1.0000 0.11350  0.70360  0.09470  Biso   1.000  H
  H20      1.0000 0.04580  0.71010  0.03590  Biso   1.000  H
  O11      1.0000 0.34630  0.82430  0.15400  Biso   1.000  O
  C11      1.0000 0.55190  0.96380  0.03020  Biso   1.000  C
  N11      1.0000 0.60940  0.93060  0.05700  Biso   1.000  N
  H21      1.0000 0.59010  0.88650  0.09470  Biso   1.000  H
  H22      1.0000 0.66430  0.95420  0.03590  Biso   1.000  H
  O12      1.0000 0.47800  0.65370  0.15400  Biso   1.000  O
  C12      1.0000 0.41190  0.44810  0.03020  Biso   1.000  C
  N12      1.0000 0.32120  0.39060  0.05700  Biso   1.000  N
  H23      1.0000 0.29640  0.40990  0.09470  Biso   1.000  H
  H24      1.0000 0.28990  0.33570  0.03590  Biso   1.000  H
  O13      1.0000 0.52200  0.17570  0.65400  Biso   1.000  O
  C13      1.0000 0.58810  0.03620  0.53020  Biso   1.000  C
  N13      1.0000 0.67880  0.06940  0.55700  Biso   1.000  N
  H25      1.0000 0.70360  0.11350  0.59470  Biso   1.000  H
  H26      1.0000 0.71010  0.04580  0.53590  Biso   1.000  H
  O14      1.0000 0.82430  0.34630  0.65400  Biso   1.000  O
  C14      1.0000 0.96380  0.55190  0.53020  Biso   1.000  C
  N14      1.0000 0.93060  0.60940  0.55700  Biso   1.000  N
  H27      1.0000 0.88650  0.59010  0.59470  Biso   1.000  H
  H28      1.0000 0.95420  0.66430  0.53590  Biso   1.000  H
  O15      1.0000 0.65370  0.47800  0.65400  Biso   1.000  O
  C15      1.0000 0.44810  0.41190  0.53020  Biso   1.000  C
  N15      1.0000 0.39060  0.32120  0.55700  Biso   1.000  N
  H29      1.0000 0.40990  0.29640  0.59470  Biso   1.000  H
  H30      1.0000 0.33570  0.28990  0.53590  Biso   1.000  H
  O16      1.0000 0.47800  0.82430  0.15400  Biso   1.000  O
  C16      1.0000 0.41190  0.96380  0.03020  Biso   1.000  C
  N16      1.0000 0.32120  0.93060  0.05700  Biso   1.000  N
  H31      1.0000 0.29640  0.88650  0.09470  Biso   1.000  H
  H32      1.0000 0.28990  0.95420  0.03590  Biso   1.000  H
  O17      1.0000 0.17570  0.65370  0.15400  Biso   1.000  O
  C17      1.0000 0.03620  0.44810  0.03020  Biso   1.000  C
  N17      1.0000 0.06940  0.39060  0.05700  Biso   1.000  N
  H33      1.0000 0.11350  0.40990  0.09470  Biso   1.000  H
  H34      1.0000 0.04580  0.33570  0.03590  Biso   1.000  H
  O18      1.0000 0.34630  0.52200  0.15400  Biso   1.000  O
  C18      1.0000 0.55190  0.58810  0.03020  Biso   1.000  C
  N18      1.0000 0.60940  0.67880  0.05700  Biso   1.000  N
  H35      1.0000 0.59010  0.70360  0.09470  Biso   1.000  H
  H36      1.0000 0.66430  0.71010  0.03590  Biso   1.000  H
  O19      1.0000 0.17570  0.52200  0.34600  Biso   1.000  O
  C19      1.0000 0.03620  0.58810  0.46980  Biso   1.000  C
  N19      1.0000 0.06940  0.67880  0.44300  Biso   1.000  N
  H37      1.0000 0.11350  0.70360  0.40530  Biso   1.000  H
  H38      1.0000 0.04580  0.71010  0.46410  Biso   1.000  H
  O20      1.0000 0.34630  0.82430  0.34600  Biso   1.000  O
  C20      1.0000 0.55190  0.96380  0.46980  Biso   1.000  C
  N20      1.0000 0.60940  0.93060  0.44300  Biso   1.000  N
  H39      1.0000 0.59010  0.88650  0.40530  Biso   1.000  H
  H40      1.0000 0.66430  0.95420  0.46410  Biso   1.000  H
  O21      1.0000 0.47800  0.65370  0.34600  Biso   1.000  O
  C21      1.0000 0.41190  0.44810  0.46980  Biso   1.000  C
  N21      1.0000 0.32120  0.39060  0.44300  Biso   1.000  N
  H41      1.0000 0.29640  0.40990  0.40530  Biso   1.000  H
  H42      1.0000 0.28990  0.33570  0.46410  Biso   1.000  H
  O22      1.0000 0.82430  0.47800  0.84600  Biso   1.000  O
  C22      1.0000 0.96380  0.41190  0.96980  Biso   1.000  C
  N22      1.0000 0.93060  0.32120  0.94300  Biso   1.000  N
  H43      1.0000 0.88650  0.29640  0.90530  Biso   1.000  H
  H44      1.0000 0.95420  0.28990  0.96410  Biso   1.000  H
  O23      1.0000 0.65370  0.17570  0.84600  Biso   1.000  O
  C23      1.0000 0.44810  0.03620  0.96980  Biso   1.000  C
  N23      1.0000 0.39060  0.06940  0.94300  Biso   1.000  N
  H45      1.0000 0.40990  0.11350  0.90530  Biso   1.000  H
  H46      1.0000 0.33570  0.04580  0.96410  Biso   1.000  H
  O24      1.0000 0.52200  0.34630  0.84600  Biso   1.000  O
  C24      1.0000 0.58810  0.55190  0.96980  Biso   1.000  C
  N24      1.0000 0.67880  0.60940  0.94300  Biso   1.000  N
  H47      1.0000 0.70360  0.59010  0.90530  Biso   1.000  H
  H48      1.0000 0.71010  0.66430  0.96410  Biso   1.000  H
  Ni1      1.0000 0.47055  0.73528  0.25000  Biso   1.000  Ni
  N25      1.0000 0.61560  0.80780  0.25000  Biso   1.000  N
  C25      1.0000 0.91030  0.95515  0.25000  Biso   1.000  C
  C26      1.0000 0.80690  0.90345  0.25000  Biso   1.000  C
  Ni2      1.0000 0.26472  0.73528  0.25000  Biso   1.000  Ni
  N26      1.0000 0.19220  0.80780  0.25000  Biso   1.000  N
  C27      1.0000 0.04485  0.95515  0.25000  Biso   1.000  C
  C28      1.0000 0.09655  0.90345  0.25000  Biso   1.000  C
  Ni3      1.0000 0.26472  0.52945  0.25000  Biso   1.000  Ni
  N27      1.0000 0.19220  0.38440  0.25000  Biso   1.000  N
  C29      1.0000 0.04485  0.08970  0.25000  Biso   1.000  C
  C30      1.0000 0.09655  0.19310  0.25000  Biso   1.000  C
  Ni4      1.0000 0.52945  0.26472  0.75000  Biso   1.000  Ni
  N28      1.0000 0.38440  0.19220  0.75000  Biso   1.000  N
  C31      1.0000 0.08970  0.04485  0.75000  Biso   1.000  C
  C32      1.0000 0.19310  0.09655  0.75000  Biso   1.000  C
  Ni5      1.0000 0.73528  0.26472  0.75000  Biso   1.000  Ni
  N29      1.0000 0.80780  0.19220  0.75000  Biso   1.000  N
  C33      1.0000 0.95515  0.04485  0.75000  Biso   1.000  C
  C34      1.0000 0.90345  0.09655  0.75000  Biso   1.000  C
  Ni6      1.0000 0.73528  0.47055  0.75000  Biso   1.000  Ni
  N30      1.0000 0.80780  0.61560  0.75000  Biso   1.000  N
  C35      1.0000 0.95515  0.91030  0.75000  Biso   1.000  C
  C36      1.0000 0.90345  0.80690  0.75000  Biso   1.000  C
  O25      1.0000 0.33333  0.66667  0.25000  Biso   1.000  O
  O26      1.0000 0.66667  0.33333  0.75000  Biso   1.000  O
  C37      1.0000 0.42655  0.85310  0.37130  Biso   1.000  C
  C38      1.0000 0.46420  0.92840  0.43800  Biso   1.000  C
  C39      1.0000 0.14690  0.57345  0.37130  Biso   1.000  C
  C40      1.0000 0.07160  0.53580  0.43800  Biso   1.000  C
  C41      1.0000 0.42655  0.57345  0.37130  Biso   1.000  C
  C42      1.0000 0.46420  0.53580  0.43800  Biso   1.000  C
  C43      1.0000 0.57345  0.14690  0.87130  Biso   1.000  C
  C44      1.0000 0.53580  0.07160  0.93800  Biso   1.000  C
  C45      1.0000 0.85310  0.42655  0.87130  Biso   1.000  C
  C46      1.0000 0.92840  0.46420  0.93800  Biso   1.000  C
  C47      1.0000 0.57345  0.42655  0.87130  Biso   1.000  C
  C48      1.0000 0.53580  0.46420  0.93800  Biso   1.000  C
  C49      1.0000 0.85310  0.42655  0.62870  Biso   1.000  C
  C50      1.0000 0.92840  0.46420  0.56200  Biso   1.000  C
  C51      1.0000 0.57345  0.14690  0.62870  Biso   1.000  C
  C52      1.0000 0.53580  0.07160  0.56200  Biso   1.000  C
  C53      1.0000 0.57345  0.42655  0.62870  Biso   1.000  C
  C54      1.0000 0.53580  0.46420  0.56200  Biso   1.000  C
  C55      1.0000 0.14690  0.57345  0.12870  Biso   1.000  C
  C56      1.0000 0.07160  0.53580  0.06200  Biso   1.000  C
  C57      1.0000 0.42655  0.85310  0.12870  Biso   1.000  C
  C58      1.0000 0.46420  0.92840  0.06200  Biso   1.000  C
  C59      1.0000 0.42655  0.57345  0.12870  Biso   1.000  C
  C60      1.0000 0.46420  0.53580  0.06200  Biso   1.000  C
  N31      1.0000 0.95320  0.04680  0.25000  Biso   1.000  N
  N32      1.0000 0.95320  0.90640  0.25000  Biso   1.000  N
  N33      1.0000 0.09360  0.04680  0.25000  Biso   1.000  N
  N34      1.0000 0.04680  0.95320  0.75000  Biso   1.000  N
  N35      1.0000 0.04680  0.09360  0.75000  Biso   1.000  N
  N36      1.0000 0.90640  0.95320  0.75000  Biso   1.000  N
  C61      1.0000 0.75910  0.94960  0.25000  Biso   1.000  C
  H49      1.0000 0.79020  0.01370  0.25000  Biso   1.000  H
  C62      1.0000 0.66450  0.90010  0.25000  Biso   1.000  C
  H50      1.0000 0.63270  0.93240  0.25000  Biso   1.000  H
  C63      1.0000 0.05040  0.80950  0.25000  Biso   1.000  C
  H51      1.0000 0.98630  0.77650  0.25000  Biso   1.000  H
  C64      1.0000 0.09990  0.76440  0.25000  Biso   1.000  C
  H52      1.0000 0.06760  0.70030  0.25000  Biso   1.000  H
  C65      1.0000 0.19050  0.24090  0.25000  Biso   1.000  C
  H53      1.0000 0.22350  0.20980  0.25000  Biso   1.000  H
  C66      1.0000 0.23560  0.33550  0.25000  Biso   1.000  C
  H54      1.0000 0.29970  0.36730  0.25000  Biso   1.000  H
  C67      1.0000 0.24090  0.05040  0.75000  Biso   1.000  C
  H55      1.0000 0.20980  0.98630  0.75000  Biso   1.000  H
  C68      1.0000 0.33550  0.09990  0.75000  Biso   1.000  C
  H56      1.0000 0.36730  0.06760  0.75000  Biso   1.000  H
  C69      1.0000 0.94960  0.19050  0.75000  Biso   1.000  C
  H57      1.0000 0.01370  0.22350  0.75000  Biso   1.000  H
  C70      1.0000 0.90010  0.23560  0.75000  Biso   1.000  C
  H58      1.0000 0.93240  0.29970  0.75000  Biso   1.000  H
  C71      1.0000 0.80950  0.75910  0.75000  Biso   1.000  C
  H59      1.0000 0.77650  0.79020  0.75000  Biso   1.000  H
  C72      1.0000 0.76440  0.66450  0.75000  Biso   1.000  C
  H60      1.0000 0.70030  0.63270  0.75000  Biso   1.000  H
  C73      1.0000 0.94960  0.75910  0.75000  Biso   1.000  C
  H61      1.0000 0.01370  0.79020  0.75000  Biso   1.000  H
  C74      1.0000 0.90010  0.66450  0.75000  Biso   1.000  C
  H62      1.0000 0.93240  0.63270  0.75000  Biso   1.000  H
  C75      1.0000 0.80950  0.05040  0.75000  Biso   1.000  C
  H63      1.0000 0.77650  0.98630  0.75000  Biso   1.000  H
  C76      1.0000 0.76440  0.09990  0.75000  Biso   1.000  C
  H64      1.0000 0.70030  0.06760  0.75000  Biso   1.000  H
  C77      1.0000 0.24090  0.19050  0.75000  Biso   1.000  C
  H65      1.0000 0.20980  0.22350  0.75000  Biso   1.000  H
  C78      1.0000 0.33550  0.23560  0.75000  Biso   1.000  C
  H66      1.0000 0.36730  0.29970  0.75000  Biso   1.000  H
  C79      1.0000 0.05040  0.24090  0.25000  Biso   1.000  C
  H67      1.0000 0.98630  0.20980  0.25000  Biso   1.000  H
  C80      1.0000 0.09990  0.33550  0.25000  Biso   1.000  C
  H68      1.0000 0.06760  0.36730  0.25000  Biso   1.000  H
  C81      1.0000 0.19050  0.94960  0.25000  Biso   1.000  C
  H69      1.0000 0.22350  0.01370  0.25000  Biso   1.000  H
  C82      1.0000 0.23560  0.90010  0.25000  Biso   1.000  C
  H70      1.0000 0.29970  0.93240  0.25000  Biso   1.000  H
  C83      1.0000 0.75910  0.80950  0.25000  Biso   1.000  C
  H71      1.0000 0.79020  0.77650  0.25000  Biso   1.000  H
  C84      1.0000 0.66450  0.76440  0.25000  Biso   1.000  C
  H72      1.0000 0.63270  0.70030  0.25000  Biso   1.000  H
