data_image0
_cell_length_a       19.0892
_cell_length_b       14.3872
_cell_length_c       30.5462
_cell_angle_alpha    90
_cell_angle_beta     90
_cell_angle_gamma    90

_symmetry_space_group_name_H-M    "P 1"
_symmetry_int_tables_number       1

loop_
  _symmetry_equiv_pos_as_xyz
  'x, y, z'

loop_
  _atom_site_label
  _atom_site_occupancy
  _atom_site_fract_x
  _atom_site_fract_y
  _atom_site_fract_z
  _atom_site_thermal_displace_type
  _atom_site_B_iso_or_equiv
  _atom_site_type_symbol
  Yb1      1.0000 0.14135  0.46269  0.37020  Biso   1.000  Yb
  O1       1.0000 0.23722  0.46930  0.41451  Biso   1.000  O
  O2       1.0000 0.16678  0.61610  0.38426  Biso   1.000  O
  O3       1.0000 0.02943  0.49950  0.39746  Biso   1.000  O
  O4       1.0000 0.19032  0.50910  0.30225  Biso   1.000  O
  O5       1.0000 0.08231  0.55310  0.31451  Biso   1.000  O
  O6       1.0000 0.12145  0.34200  0.41896  Biso   1.000  O
  Yb2      1.0000 0.18911  0.52419  0.49444  Biso   1.000  Yb
  C1       1.0000 0.19510  0.67030  0.41049  Biso   1.000  C
  C2       1.0000 0.13570  0.55630  0.29143  Biso   1.000  C
  C3       1.0000 0.13660  0.31830  0.45722  Biso   1.000  C
  O7       1.0000 0.16160  0.46680  0.56149  Biso   1.000  O
  O8       1.0000 0.30208  0.47790  0.47338  Biso   1.000  O
  O9       1.0000 0.21057  0.64850  0.45031  Biso   1.000  O
  O10      1.0000 0.08936  0.52110  0.45781  Biso   1.000  O
  O11      1.0000 0.16718  0.37000  0.48522  Biso   1.000  O
  C4       1.0000 0.21190  0.76600  0.39520  Biso   1.000  C
  C5       1.0000 0.13860  0.61790  0.25214  Biso   1.000  C
  C6       1.0000 0.11680  0.22200  0.47132  Biso   1.000  C
  C7       1.0000 0.23330  0.83800  0.42473  Biso   1.000  C
  C8       1.0000 0.20380  0.78630  0.35160  Biso   1.000  C
  C9       1.0000 0.08200  0.67310  0.24328  Biso   1.000  C
  C10      1.0000 0.19910  0.62090  0.22374  Biso   1.000  C
  C11      1.0000 0.09590  0.15230  0.44195  Biso   1.000  C
  C12      1.0000 0.11960  0.20020  0.51556  Biso   1.000  C
  O12      1.0000 0.24060  0.82080  0.46896  Biso   1.000  O
  C13      1.0000 0.24810  0.92710  0.41073  Biso   1.000  C
  H1       1.0000 0.18890  0.74010  0.33250  Biso   1.000  H
  C14      1.0000 0.21760  0.87640  0.33530  Biso   1.000  C
  C15      1.0000 0.08240  0.73480  0.20673  Biso   1.000  C
  H2       1.0000 0.04280  0.67040  0.26130  Biso   1.000  H
  O13      1.0000 0.25250  0.56230  0.23193  Biso   1.000  O
  C16      1.0000 0.20350  0.68400  0.19017  Biso   1.000  C
  C17      1.0000 0.07990  0.06470  0.45521  Biso   1.000  C
  O14      1.0000 0.09097  0.17070  0.39825  Biso   1.000  O
  H3       1.0000 0.13230  0.24580  0.53560  Biso   1.000  H
  C18      1.0000 0.10370  0.11110  0.53048  Biso   1.000  C
  H4       1.0000 0.25800  0.76930  0.47250  Biso   1.000  H
  C19      1.0000 0.23840  0.94760  0.36493  Biso   1.000  C
  C20      1.0000 0.26810  0.99990  0.44411  Biso   1.000  C
  C21      1.0000 0.20810  0.89430  0.29045  Biso   1.000  C
  C22      1.0000 0.02270  0.78460  0.19560  Biso   1.000  C
  C23      1.0000 0.14350  0.73890  0.17974  Biso   1.000  C
  H5       1.0000 0.24530  0.53490  0.25500  Biso   1.000  H
  C24      1.0000 0.27120  0.69300  0.16358  Biso   1.000  C
  C25      1.0000 0.08540  0.04000  0.50026  Biso   1.000  C
  C26      1.0000 0.06100  0.99060  0.42019  Biso   1.000  C
  H6       1.0000 0.09750  0.22630  0.39400  Biso   1.000  H
  C27      1.0000 0.10740  0.08870  0.57585  Biso   1.000  C
  C28      1.0000 0.24730  0.03870  0.34660  Biso   1.000  C
  C29      1.0000 0.33670  0.99060  0.46767  Biso   1.000  C
  H7       1.0000 0.26800  0.05970  0.42940  Biso   1.000  H
  H8       1.0000 0.23130  0.00180  0.46600  Biso   1.000  H
  H9       1.0000 0.19470  0.84700  0.27150  Biso   1.000  H
  C30      1.0000 0.21880  0.98220  0.27530  Biso   1.000  C
  C31      1.0000 0.02150  0.84070  0.15930  Biso   1.000  C
  H10      1.0000 0.98290  0.77990  0.21310  Biso   1.000  H
  C32      1.0000 0.13950  0.79760  0.14240  Biso   1.000  C
  C33      1.0000 0.30990  0.78310  0.16891  Biso   1.000  C
  H11      1.0000 0.25990  0.68510  0.13280  Biso   1.000  H
  H12      1.0000 0.30230  0.64270  0.17180  Biso   1.000  H
  C34      1.0000 0.07580  0.94800  0.51650  Biso   1.000  C
  C35      1.0000 0.98890  0.00180  0.39840  Biso   1.000  C
  H13      1.0000 0.09650  0.99210  0.39750  Biso   1.000  H
  H14      1.0000 0.06290  0.92980  0.43380  Biso   1.000  H
  C36      1.0000 0.09690  0.00220  0.59060  Biso   1.000  C
  H15      1.0000 0.11740  0.13560  0.59580  Biso   1.000  H
  H16      1.0000 0.26100  0.08730  0.36480  Biso   1.000  H
  C37      1.0000 0.23640  0.05490  0.30460  Biso   1.000  C
  C38      1.0000 0.39880  0.98970  0.44395  Biso   1.000  C
  C39      1.0000 0.34230  0.99450  0.51431  Biso   1.000  C
  H17      1.0000 0.21450  0.99460  0.24550  Biso   1.000  H
  C40      1.0000 0.08050  0.84700  0.13390  Biso   1.000  C
  H18      1.0000 0.98130  0.87390  0.15210  Biso   1.000  H
  H19      1.0000 0.17770  0.80210  0.12360  Biso   1.000  H
  C41      1.0000 0.31870  0.84270  0.13247  Biso   1.000  C
  C42      1.0000 0.34020  0.81150  0.20833  Biso   1.000  C
  C43      1.0000 0.08200  0.93100  0.56040  Biso   1.000  C
  H20      1.0000 0.06540  0.89980  0.49730  Biso   1.000  H
  C44      1.0000 0.92880  0.00910  0.42383  Biso   1.000  C
  C45      1.0000 0.98140  0.99570  0.35223  Biso   1.000  C
  H21      1.0000 0.09940  0.98930  0.62040  Biso   1.000  H
  H22      1.0000 0.24030  0.11530  0.29410  Biso   1.000  H
  O15      1.0000 0.39317  0.99230  0.39920  Biso   1.000  O
  C46      1.0000 0.46590  0.98920  0.46441  Biso   1.000  C
  C47      1.0000 0.40980  0.99650  0.53489  Biso   1.000  C
  C48      1.0000 0.28250  0.99870  0.54300  Biso   1.000  C
  H23      1.0000 0.08000  0.88670  0.10990  Biso   1.000  H
  C49      1.0000 0.35230  0.93010  0.13583  Biso   1.000  C
  O16      1.0000 0.29160  0.81420  0.09310  Biso   1.000  O
  C50      1.0000 0.33960  0.75200  0.24669  Biso   1.000  C
  C51      1.0000 0.37450  0.89920  0.21289  Biso   1.000  C
  H24      1.0000 0.07630  0.87060  0.57060  Biso   1.000  H
  O17      1.0000 0.93662  0.00760  0.46778  Biso   1.000  O
  C52      1.0000 0.86140  0.01770  0.40447  Biso   1.000  C
  C53      1.0000 0.91350  0.00170  0.33355  Biso   1.000  C
  C54      1.0000 0.03940  0.98470  0.32280  Biso   1.000  C
  H25      1.0000 0.43190  0.98440  0.38820  Biso   1.000  H
  C55      1.0000 0.53160  0.98830  0.43796  Biso   1.000  C
  C56      1.0000 0.46870  0.99310  0.50935  Biso   1.000  C
  C57      1.0000 0.41380  0.00540  0.58136  Biso   1.000  C
  H26      1.0000 0.23770  0.99560  0.53110  Biso   1.000  H
  C58      1.0000 0.28960  0.00700  0.58610  Biso   1.000  C
  C59      1.0000 0.37900  0.95530  0.17583  Biso   1.000  C
  C60      1.0000 0.36150  0.99580  0.09818  Biso   1.000  C
  H27      1.0000 0.29240  0.85770  0.07570  Biso   1.000  H
  H28      1.0000 0.31900  0.69350  0.24520  Biso   1.000  H
  C61      1.0000 0.36880  0.78140  0.28450  Biso   1.000  C
  C62      1.0000 0.40340  0.92570  0.25400  Biso   1.000  C
  H29      1.0000 0.89810  0.01110  0.47950  Biso   1.000  H
  C63      1.0000 0.85490  0.01210  0.35999  Biso   1.000  C
  C64      1.0000 0.79730  0.02590  0.43186  Biso   1.000  C
  C65      1.0000 0.90580  0.99400  0.28620  Biso   1.000  C
  C66      1.0000 0.02780  0.97570  0.27830  Biso   1.000  C
  H30      1.0000 0.08490  0.98360  0.33370  Biso   1.000  H
  H31      1.0000 0.51230  0.99350  0.52290  Biso   1.000  H
  H32      1.0000 0.45740  0.00740  0.59480  Biso   1.000  H
  C67      1.0000 0.35460  0.01110  0.60650  Biso   1.000  C
  H33      1.0000 0.24940  0.01010  0.60330  Biso   1.000  H
  H34      1.0000 0.40120  0.01260  0.17830  Biso   1.000  H
  O18      1.0000 0.38950  0.07030  0.10354  Biso   1.000  O
  H35      1.0000 0.36780  0.74170  0.30850  Biso   1.000  H
  C68      1.0000 0.40050  0.86820  0.28940  Biso   1.000  C
  H36      1.0000 0.42480  0.98340  0.25670  Biso   1.000  H
  H37      1.0000 0.81070  0.01540  0.34730  Biso   1.000  H
  C69      1.0000 0.96100  0.98070  0.26020  Biso   1.000  C
  H38      1.0000 0.86140  0.99850  0.27390  Biso   1.000  H
  H39      1.0000 0.06580  0.96590  0.25980  Biso   1.000  H
  H40      1.0000 0.35780  0.01770  0.63670  Biso   1.000  H
  H41      1.0000 0.41910  0.88640  0.31620  Biso   1.000  H
  H42      1.0000 0.95490  0.97480  0.23010  Biso   1.000  H
  Yb3      1.0000 0.85865  0.53731  0.87020  Biso   1.000  Yb
  O19      1.0000 0.76278  0.53070  0.91451  Biso   1.000  O
  O20      1.0000 0.83322  0.38390  0.88426  Biso   1.000  O
  O21      1.0000 0.97057  0.50050  0.89746  Biso   1.000  O
  O22      1.0000 0.80968  0.49090  0.80225  Biso   1.000  O
  O23      1.0000 0.91769  0.44690  0.81451  Biso   1.000  O
  O24      1.0000 0.87855  0.65800  0.91896  Biso   1.000  O
  Yb4      1.0000 0.81089  0.47581  0.99444  Biso   1.000  Yb
  C70      1.0000 0.80490  0.32970  0.91049  Biso   1.000  C
  C71      1.0000 0.86430  0.44370  0.79143  Biso   1.000  C
  C72      1.0000 0.86340  0.68170  0.95722  Biso   1.000  C
  O25      1.0000 0.83840  0.53320  0.06149  Biso   1.000  O
  O26      1.0000 0.69792  0.52210  0.97338  Biso   1.000  O
  O27      1.0000 0.78943  0.35150  0.95031  Biso   1.000  O
  O28      1.0000 0.91064  0.47890  0.95781  Biso   1.000  O
  O29      1.0000 0.83282  0.63000  0.98522  Biso   1.000  O
  C73      1.0000 0.78810  0.23400  0.89520  Biso   1.000  C
  C74      1.0000 0.86140  0.38210  0.75214  Biso   1.000  C
  C75      1.0000 0.88320  0.77800  0.97132  Biso   1.000  C
  C76      1.0000 0.76670  0.16200  0.92473  Biso   1.000  C
  C77      1.0000 0.79620  0.21370  0.85160  Biso   1.000  C
  C78      1.0000 0.91800  0.32690  0.74328  Biso   1.000  C
  C79      1.0000 0.80090  0.37910  0.72374  Biso   1.000  C
  C80      1.0000 0.90410  0.84770  0.94195  Biso   1.000  C
  C81      1.0000 0.88040  0.79980  0.01556  Biso   1.000  C
  O30      1.0000 0.75940  0.17920  0.96896  Biso   1.000  O
  C82      1.0000 0.75190  0.07290  0.91073  Biso   1.000  C
  H43      1.0000 0.81110  0.25990  0.83250  Biso   1.000  H
  C83      1.0000 0.78240  0.12360  0.83530  Biso   1.000  C
  C84      1.0000 0.91760  0.26520  0.70673  Biso   1.000  C
  H44      1.0000 0.95720  0.32960  0.76130  Biso   1.000  H
  O31      1.0000 0.74750  0.43770  0.73193  Biso   1.000  O
  C85      1.0000 0.79650  0.31600  0.69017  Biso   1.000  C
  C86      1.0000 0.92010  0.93530  0.95521  Biso   1.000  C
  O32      1.0000 0.90903  0.82930  0.89825  Biso   1.000  O
  H45      1.0000 0.86770  0.75420  0.03560  Biso   1.000  H
  C87      1.0000 0.89630  0.88890  0.03048  Biso   1.000  C
  H46      1.0000 0.74200  0.23070  0.97250  Biso   1.000  H
  C88      1.0000 0.76160  0.05240  0.86493  Biso   1.000  C
  C89      1.0000 0.73190  0.00010  0.94411  Biso   1.000  C
  C90      1.0000 0.79190  0.10570  0.79045  Biso   1.000  C
  C91      1.0000 0.97730  0.21540  0.69560  Biso   1.000  C
  C92      1.0000 0.85650  0.26110  0.67974  Biso   1.000  C
  H47      1.0000 0.75470  0.46510  0.75500  Biso   1.000  H
  C93      1.0000 0.72880  0.30700  0.66358  Biso   1.000  C
  C94      1.0000 0.91460  0.96000  0.00026  Biso   1.000  C
  C95      1.0000 0.93900  0.00940  0.92019  Biso   1.000  C
  H48      1.0000 0.90250  0.77370  0.89400  Biso   1.000  H
  C96      1.0000 0.89260  0.91130  0.07585  Biso   1.000  C
  C97      1.0000 0.75270  0.96130  0.84660  Biso   1.000  C
  C98      1.0000 0.66330  0.00940  0.96767  Biso   1.000  C
  H49      1.0000 0.73200  0.94030  0.92940  Biso   1.000  H
  H50      1.0000 0.76870  0.99820  0.96600  Biso   1.000  H
  H51      1.0000 0.80530  0.15300  0.77150  Biso   1.000  H
  C99      1.0000 0.78120  0.01780  0.77530  Biso   1.000  C
  C100     1.0000 0.97850  0.15930  0.65930  Biso   1.000  C
  H52      1.0000 0.01710  0.22010  0.71310  Biso   1.000  H
  C101     1.0000 0.86050  0.20240  0.64240  Biso   1.000  C
  C102     1.0000 0.69010  0.21690  0.66891  Biso   1.000  C
  H53      1.0000 0.74010  0.31490  0.63280  Biso   1.000  H
  H54      1.0000 0.69770  0.35730  0.67180  Biso   1.000  H
  C103     1.0000 0.92420  0.05200  0.01650  Biso   1.000  C
  C104     1.0000 0.01110  0.99820  0.89840  Biso   1.000  C
  H55      1.0000 0.90350  0.00790  0.89750  Biso   1.000  H
  H56      1.0000 0.93710  0.07020  0.93380  Biso   1.000  H
  C105     1.0000 0.90310  0.99780  0.09060  Biso   1.000  C
  H57      1.0000 0.88260  0.86440  0.09580  Biso   1.000  H
  H58      1.0000 0.73900  0.91270  0.86480  Biso   1.000  H
  C106     1.0000 0.76360  0.94510  0.80460  Biso   1.000  C
  C107     1.0000 0.60120  0.01030  0.94395  Biso   1.000  C
  C108     1.0000 0.65770  0.00550  0.01431  Biso   1.000  C
  H59      1.0000 0.78550  0.00540  0.74550  Biso   1.000  H
  C109     1.0000 0.91950  0.15300  0.63390  Biso   1.000  C
  H60      1.0000 0.01870  0.12610  0.65210  Biso   1.000  H
  H61      1.0000 0.82230  0.19790  0.62360  Biso   1.000  H
  C110     1.0000 0.68130  0.15730  0.63247  Biso   1.000  C
  C111     1.0000 0.65980  0.18850  0.70833  Biso   1.000  C
  C112     1.0000 0.91800  0.06900  0.06040  Biso   1.000  C
  H62      1.0000 0.93460  0.10020  0.99730  Biso   1.000  H
  C113     1.0000 0.07120  0.99090  0.92383  Biso   1.000  C
  C114     1.0000 0.01860  0.00430  0.85223  Biso   1.000  C
  H63      1.0000 0.90060  0.01070  0.12040  Biso   1.000  H
  H64      1.0000 0.75970  0.88470  0.79410  Biso   1.000  H
  O33      1.0000 0.60683  0.00770  0.89920  Biso   1.000  O
  C115     1.0000 0.53410  0.01080  0.96441  Biso   1.000  C
  C116     1.0000 0.59020  0.00350  0.03489  Biso   1.000  C
  C117     1.0000 0.71750  0.00130  0.04300  Biso   1.000  C
  H65      1.0000 0.92000  0.11330  0.60990  Biso   1.000  H
  C118     1.0000 0.64770  0.06990  0.63583  Biso   1.000  C
  O34      1.0000 0.70840  0.18580  0.59310  Biso   1.000  O
  C119     1.0000 0.66040  0.24800  0.74669  Biso   1.000  C
  C120     1.0000 0.62550  0.10080  0.71289  Biso   1.000  C
  H66      1.0000 0.92370  0.12940  0.07060  Biso   1.000  H
  O35      1.0000 0.06338  0.99240  0.96778  Biso   1.000  O
  C121     1.0000 0.13860  0.98230  0.90447  Biso   1.000  C
  C122     1.0000 0.08650  0.99830  0.83355  Biso   1.000  C
  C123     1.0000 0.96060  0.01530  0.82280  Biso   1.000  C
  H67      1.0000 0.56810  0.01560  0.88820  Biso   1.000  H
  C124     1.0000 0.46840  0.01170  0.93796  Biso   1.000  C
  C125     1.0000 0.53130  0.00690  0.00935  Biso   1.000  C
  C126     1.0000 0.58620  0.99460  0.08136  Biso   1.000  C
  H68      1.0000 0.76230  0.00440  0.03110  Biso   1.000  H
  C127     1.0000 0.71040  0.99300  0.08610  Biso   1.000  C
  C128     1.0000 0.62100  0.04470  0.67583  Biso   1.000  C
  C129     1.0000 0.63850  0.00420  0.59818  Biso   1.000  C
  H69      1.0000 0.70760  0.14230  0.57570  Biso   1.000  H
  H70      1.0000 0.68100  0.30650  0.74520  Biso   1.000  H
  C130     1.0000 0.63120  0.21860  0.78450  Biso   1.000  C
  C131     1.0000 0.59660  0.07430  0.75400  Biso   1.000  C
  H71      1.0000 0.10190  0.98890  0.97950  Biso   1.000  H
  C132     1.0000 0.14510  0.98790  0.85999  Biso   1.000  C
  C133     1.0000 0.20270  0.97410  0.93186  Biso   1.000  C
  C134     1.0000 0.09420  0.00600  0.78620  Biso   1.000  C
  C135     1.0000 0.97220  0.02430  0.77830  Biso   1.000  C
  H72      1.0000 0.91510  0.01640  0.83370  Biso   1.000  H
  H73      1.0000 0.48770  0.00650  0.02290  Biso   1.000  H
  H74      1.0000 0.54260  0.99260  0.09480  Biso   1.000  H
  C136     1.0000 0.64540  0.98890  0.10650  Biso   1.000  C
  H75      1.0000 0.75060  0.98990  0.10330  Biso   1.000  H
  H76      1.0000 0.59880  0.98740  0.67830  Biso   1.000  H
  O36      1.0000 0.61050  0.92970  0.60354  Biso   1.000  O
  H77      1.0000 0.63220  0.25830  0.80850  Biso   1.000  H
  C137     1.0000 0.59950  0.13180  0.78940  Biso   1.000  C
  H78      1.0000 0.57520  0.01660  0.75670  Biso   1.000  H
  H79      1.0000 0.18930  0.98460  0.84730  Biso   1.000  H
  C138     1.0000 0.03900  0.01930  0.76020  Biso   1.000  C
  H80      1.0000 0.13860  0.00150  0.77390  Biso   1.000  H
  H81      1.0000 0.93420  0.03410  0.75980  Biso   1.000  H
  H82      1.0000 0.64220  0.98230  0.13670  Biso   1.000  H
  H83      1.0000 0.58090  0.11360  0.81620  Biso   1.000  H
  H84      1.0000 0.04510  0.02520  0.73010  Biso   1.000  H
  Yb5      1.0000 0.64135  0.03731  0.37020  Biso   1.000  Yb
  O37      1.0000 0.73722  0.03070  0.41451  Biso   1.000  O
  O38      1.0000 0.66678  0.88390  0.38426  Biso   1.000  O
  O39      1.0000 0.52943  0.00050  0.39746  Biso   1.000  O
  O40      1.0000 0.69032  0.99090  0.30225  Biso   1.000  O
  O41      1.0000 0.58231  0.94690  0.31451  Biso   1.000  O
  O42      1.0000 0.62145  0.15800  0.41896  Biso   1.000  O
  Yb6      1.0000 0.68911  0.97581  0.49444  Biso   1.000  Yb
  C139     1.0000 0.69510  0.82970  0.41049  Biso   1.000  C
  C140     1.0000 0.63570  0.94370  0.29143  Biso   1.000  C
  C141     1.0000 0.63660  0.18170  0.45722  Biso   1.000  C
  O43      1.0000 0.66160  0.03320  0.56149  Biso   1.000  O
  O44      1.0000 0.80208  0.02210  0.47338  Biso   1.000  O
  O45      1.0000 0.71057  0.85150  0.45031  Biso   1.000  O
  O46      1.0000 0.58936  0.97890  0.45781  Biso   1.000  O
  O47      1.0000 0.66718  0.13000  0.48522  Biso   1.000  O
  C142     1.0000 0.71190  0.73400  0.39520  Biso   1.000  C
  C143     1.0000 0.63860  0.88210  0.25214  Biso   1.000  C
  C144     1.0000 0.61680  0.27800  0.47132  Biso   1.000  C
  C145     1.0000 0.73330  0.66200  0.42473  Biso   1.000  C
  C146     1.0000 0.70380  0.71370  0.35160  Biso   1.000  C
  C147     1.0000 0.58200  0.82690  0.24328  Biso   1.000  C
  C148     1.0000 0.69910  0.87910  0.22374  Biso   1.000  C
  C149     1.0000 0.59590  0.34770  0.44195  Biso   1.000  C
  C150     1.0000 0.61960  0.29980  0.51556  Biso   1.000  C
  O48      1.0000 0.74060  0.67920  0.46896  Biso   1.000  O
  C151     1.0000 0.74810  0.57290  0.41073  Biso   1.000  C
  H85      1.0000 0.68890  0.75990  0.33250  Biso   1.000  H
  C152     1.0000 0.71760  0.62360  0.33530  Biso   1.000  C
  C153     1.0000 0.58240  0.76520  0.20673  Biso   1.000  C
  H86      1.0000 0.54280  0.82960  0.26130  Biso   1.000  H
  O49      1.0000 0.75250  0.93770  0.23193  Biso   1.000  O
  C154     1.0000 0.70350  0.81600  0.19017  Biso   1.000  C
  C155     1.0000 0.57990  0.43530  0.45521  Biso   1.000  C
  O50      1.0000 0.59097  0.32930  0.39825  Biso   1.000  O
  H87      1.0000 0.63230  0.25420  0.53560  Biso   1.000  H
  C156     1.0000 0.60370  0.38890  0.53048  Biso   1.000  C
  H88      1.0000 0.75800  0.73070  0.47250  Biso   1.000  H
  C157     1.0000 0.73840  0.55240  0.36493  Biso   1.000  C
  C158     1.0000 0.76810  0.50010  0.44411  Biso   1.000  C
  C159     1.0000 0.70810  0.60570  0.29045  Biso   1.000  C
  C160     1.0000 0.52270  0.71540  0.19560  Biso   1.000  C
  C161     1.0000 0.64350  0.76110  0.17974  Biso   1.000  C
  H89      1.0000 0.74530  0.96510  0.25500  Biso   1.000  H
  C162     1.0000 0.77120  0.80700  0.16358  Biso   1.000  C
  C163     1.0000 0.58540  0.46000  0.50026  Biso   1.000  C
  C164     1.0000 0.56100  0.50940  0.42019  Biso   1.000  C
  H90      1.0000 0.59750  0.27370  0.39400  Biso   1.000  H
  C165     1.0000 0.60740  0.41130  0.57585  Biso   1.000  C
  C166     1.0000 0.74730  0.46130  0.34660  Biso   1.000  C
  C167     1.0000 0.83670  0.50940  0.46767  Biso   1.000  C
  H91      1.0000 0.76800  0.44030  0.42940  Biso   1.000  H
  H92      1.0000 0.73130  0.49820  0.46600  Biso   1.000  H
  H93      1.0000 0.69470  0.65300  0.27150  Biso   1.000  H
  C168     1.0000 0.71880  0.51780  0.27530  Biso   1.000  C
  C169     1.0000 0.52150  0.65930  0.15930  Biso   1.000  C
  H94      1.0000 0.48290  0.72010  0.21310  Biso   1.000  H
  C170     1.0000 0.63950  0.70240  0.14240  Biso   1.000  C
  C171     1.0000 0.80990  0.71690  0.16891  Biso   1.000  C
  H95      1.0000 0.75990  0.81490  0.13280  Biso   1.000  H
  H96      1.0000 0.80230  0.85730  0.17180  Biso   1.000  H
  C172     1.0000 0.57580  0.55200  0.51650  Biso   1.000  C
  C173     1.0000 0.48890  0.49820  0.39840  Biso   1.000  C
  H97      1.0000 0.59650  0.50790  0.39750  Biso   1.000  H
  H98      1.0000 0.56290  0.57020  0.43380  Biso   1.000  H
  C174     1.0000 0.59690  0.49780  0.59060  Biso   1.000  C
  H99      1.0000 0.61740  0.36440  0.59580  Biso   1.000  H
  H100     1.0000 0.76100  0.41270  0.36480  Biso   1.000  H
  C175     1.0000 0.73640  0.44510  0.30460  Biso   1.000  C
  C176     1.0000 0.89880  0.51030  0.44395  Biso   1.000  C
  C177     1.0000 0.84230  0.50550  0.51431  Biso   1.000  C
  H101     1.0000 0.71450  0.50540  0.24550  Biso   1.000  H
  C178     1.0000 0.58050  0.65300  0.13390  Biso   1.000  C
  H102     1.0000 0.48130  0.62610  0.15210  Biso   1.000  H
  H103     1.0000 0.67770  0.69790  0.12360  Biso   1.000  H
  C179     1.0000 0.81870  0.65730  0.13247  Biso   1.000  C
  C180     1.0000 0.84020  0.68850  0.20833  Biso   1.000  C
  C181     1.0000 0.58200  0.56900  0.56040  Biso   1.000  C
  H104     1.0000 0.56540  0.60020  0.49730  Biso   1.000  H
  C182     1.0000 0.42880  0.49090  0.42383  Biso   1.000  C
  C183     1.0000 0.48140  0.50430  0.35223  Biso   1.000  C
  H105     1.0000 0.59940  0.51070  0.62040  Biso   1.000  H
  H106     1.0000 0.74030  0.38470  0.29410  Biso   1.000  H
  O51      1.0000 0.89317  0.50770  0.39920  Biso   1.000  O
  C184     1.0000 0.96590  0.51080  0.46441  Biso   1.000  C
  C185     1.0000 0.90980  0.50350  0.53489  Biso   1.000  C
  C186     1.0000 0.78250  0.50130  0.54300  Biso   1.000  C
  H107     1.0000 0.58000  0.61330  0.10990  Biso   1.000  H
  C187     1.0000 0.85230  0.56990  0.13583  Biso   1.000  C
  O52      1.0000 0.79160  0.68580  0.09310  Biso   1.000  O
  C188     1.0000 0.83960  0.74800  0.24669  Biso   1.000  C
  C189     1.0000 0.87450  0.60080  0.21289  Biso   1.000  C
  H108     1.0000 0.57630  0.62940  0.57060  Biso   1.000  H
  O53      1.0000 0.43662  0.49240  0.46778  Biso   1.000  O
  C190     1.0000 0.36140  0.48230  0.40447  Biso   1.000  C
  C191     1.0000 0.41350  0.49830  0.33355  Biso   1.000  C
  C192     1.0000 0.53940  0.51530  0.32280  Biso   1.000  C
  H109     1.0000 0.93190  0.51560  0.38820  Biso   1.000  H
  C193     1.0000 0.03160  0.51170  0.43796  Biso   1.000  C
  C194     1.0000 0.96870  0.50690  0.50935  Biso   1.000  C
  C195     1.0000 0.91380  0.49460  0.58136  Biso   1.000  C
  H110     1.0000 0.73770  0.50440  0.53110  Biso   1.000  H
  C196     1.0000 0.78960  0.49300  0.58610  Biso   1.000  C
  C197     1.0000 0.87900  0.54470  0.17583  Biso   1.000  C
  C198     1.0000 0.86150  0.50420  0.09818  Biso   1.000  C
  H111     1.0000 0.79240  0.64230  0.07570  Biso   1.000  H
  H112     1.0000 0.81900  0.80650  0.24520  Biso   1.000  H
  C199     1.0000 0.86880  0.71860  0.28450  Biso   1.000  C
  C200     1.0000 0.90340  0.57430  0.25400  Biso   1.000  C
  H113     1.0000 0.39810  0.48890  0.47950  Biso   1.000  H
  C201     1.0000 0.35490  0.48790  0.35999  Biso   1.000  C
  C202     1.0000 0.29730  0.47410  0.43186  Biso   1.000  C
  C203     1.0000 0.40580  0.50600  0.28620  Biso   1.000  C
  C204     1.0000 0.52780  0.52430  0.27830  Biso   1.000  C
  H114     1.0000 0.58490  0.51640  0.33370  Biso   1.000  H
  H115     1.0000 0.01230  0.50650  0.52290  Biso   1.000  H
  H116     1.0000 0.95740  0.49260  0.59480  Biso   1.000  H
  C205     1.0000 0.85460  0.48890  0.60650  Biso   1.000  C
  H117     1.0000 0.74940  0.48990  0.60330  Biso   1.000  H
  H118     1.0000 0.90120  0.48740  0.17830  Biso   1.000  H
  O54      1.0000 0.88950  0.42970  0.10354  Biso   1.000  O
  H119     1.0000 0.86780  0.75830  0.30850  Biso   1.000  H
  C206     1.0000 0.90050  0.63180  0.28940  Biso   1.000  C
  H120     1.0000 0.92480  0.51660  0.25670  Biso   1.000  H
  H121     1.0000 0.31070  0.48460  0.34730  Biso   1.000  H
  C207     1.0000 0.46100  0.51930  0.26020  Biso   1.000  C
  H122     1.0000 0.36140  0.50150  0.27390  Biso   1.000  H
  H123     1.0000 0.56580  0.53410  0.25980  Biso   1.000  H
  H124     1.0000 0.85780  0.48230  0.63670  Biso   1.000  H
  H125     1.0000 0.91910  0.61360  0.31620  Biso   1.000  H
  H126     1.0000 0.45490  0.52520  0.23010  Biso   1.000  H
  Yb7      1.0000 0.35865  0.96269  0.87020  Biso   1.000  Yb
  O55      1.0000 0.26278  0.96930  0.91451  Biso   1.000  O
  O56      1.0000 0.33322  0.11610  0.88426  Biso   1.000  O
  O57      1.0000 0.47057  0.99950  0.89746  Biso   1.000  O
  O58      1.0000 0.30968  0.00910  0.80225  Biso   1.000  O
  O59      1.0000 0.41769  0.05310  0.81451  Biso   1.000  O
  O60      1.0000 0.37855  0.84200  0.91896  Biso   1.000  O
  Yb8      1.0000 0.31089  0.02419  0.99444  Biso   1.000  Yb
  C208     1.0000 0.30490  0.17030  0.91049  Biso   1.000  C
  C209     1.0000 0.36430  0.05630  0.79143  Biso   1.000  C
  C210     1.0000 0.36340  0.81830  0.95722  Biso   1.000  C
  O61      1.0000 0.33840  0.96680  0.06149  Biso   1.000  O
  O62      1.0000 0.19792  0.97790  0.97338  Biso   1.000  O
  O63      1.0000 0.28943  0.14850  0.95031  Biso   1.000  O
  O64      1.0000 0.41064  0.02110  0.95781  Biso   1.000  O
  O65      1.0000 0.33282  0.87000  0.98522  Biso   1.000  O
  C211     1.0000 0.28810  0.26600  0.89520  Biso   1.000  C
  C212     1.0000 0.36140  0.11790  0.75214  Biso   1.000  C
  C213     1.0000 0.38320  0.72200  0.97132  Biso   1.000  C
  C214     1.0000 0.26670  0.33800  0.92473  Biso   1.000  C
  C215     1.0000 0.29620  0.28630  0.85160  Biso   1.000  C
  C216     1.0000 0.41800  0.17310  0.74328  Biso   1.000  C
  C217     1.0000 0.30090  0.12090  0.72374  Biso   1.000  C
  C218     1.0000 0.40410  0.65230  0.94195  Biso   1.000  C
  C219     1.0000 0.38040  0.70020  0.01556  Biso   1.000  C
  O66      1.0000 0.25940  0.32080  0.96896  Biso   1.000  O
  C220     1.0000 0.25190  0.42710  0.91073  Biso   1.000  C
  H127     1.0000 0.31110  0.24010  0.83250  Biso   1.000  H
  C221     1.0000 0.28240  0.37640  0.83530  Biso   1.000  C
  C222     1.0000 0.41760  0.23480  0.70673  Biso   1.000  C
  H128     1.0000 0.45720  0.17040  0.76130  Biso   1.000  H
  O67      1.0000 0.24750  0.06230  0.73193  Biso   1.000  O
  C223     1.0000 0.29650  0.18400  0.69017  Biso   1.000  C
  C224     1.0000 0.42010  0.56470  0.95521  Biso   1.000  C
  O68      1.0000 0.40903  0.67070  0.89825  Biso   1.000  O
  H129     1.0000 0.36770  0.74580  0.03560  Biso   1.000  H
  C225     1.0000 0.39630  0.61110  0.03048  Biso   1.000  C
  H130     1.0000 0.24200  0.26930  0.97250  Biso   1.000  H
  C226     1.0000 0.26160  0.44760  0.86493  Biso   1.000  C
  C227     1.0000 0.23190  0.49990  0.94411  Biso   1.000  C
  C228     1.0000 0.29190  0.39430  0.79045  Biso   1.000  C
  C229     1.0000 0.47730  0.28460  0.69560  Biso   1.000  C
  C230     1.0000 0.35650  0.23890  0.67974  Biso   1.000  C
  H131     1.0000 0.25470  0.03490  0.75500  Biso   1.000  H
  C231     1.0000 0.22880  0.19300  0.66358  Biso   1.000  C
  C232     1.0000 0.41460  0.54000  0.00026  Biso   1.000  C
  C233     1.0000 0.43900  0.49060  0.92019  Biso   1.000  C
  H132     1.0000 0.40250  0.72630  0.89400  Biso   1.000  H
  C234     1.0000 0.39260  0.58870  0.07585  Biso   1.000  C
  C235     1.0000 0.25270  0.53870  0.84660  Biso   1.000  C
  C236     1.0000 0.16330  0.49060  0.96767  Biso   1.000  C
  H133     1.0000 0.23200  0.55970  0.92940  Biso   1.000  H
  H134     1.0000 0.26870  0.50180  0.96600  Biso   1.000  H
  H135     1.0000 0.30530  0.34700  0.77150  Biso   1.000  H
  C237     1.0000 0.28120  0.48220  0.77530  Biso   1.000  C
  C238     1.0000 0.47850  0.34070  0.65930  Biso   1.000  C
  H136     1.0000 0.51710  0.27990  0.71310  Biso   1.000  H
  C239     1.0000 0.36050  0.29760  0.64240  Biso   1.000  C
  C240     1.0000 0.19010  0.28310  0.66891  Biso   1.000  C
  H137     1.0000 0.24010  0.18510  0.63280  Biso   1.000  H
  H138     1.0000 0.19770  0.14270  0.67180  Biso   1.000  H
  C241     1.0000 0.42420  0.44800  0.01650  Biso   1.000  C
  C242     1.0000 0.51110  0.50180  0.89840  Biso   1.000  C
  H139     1.0000 0.40350  0.49210  0.89750  Biso   1.000  H
  H140     1.0000 0.43710  0.42980  0.93380  Biso   1.000  H
  C243     1.0000 0.40310  0.50220  0.09060  Biso   1.000  C
  H141     1.0000 0.38260  0.63560  0.09580  Biso   1.000  H
  H142     1.0000 0.23900  0.58730  0.86480  Biso   1.000  H
  C244     1.0000 0.26360  0.55490  0.80460  Biso   1.000  C
  C245     1.0000 0.10120  0.48970  0.94395  Biso   1.000  C
  C246     1.0000 0.15770  0.49450  0.01431  Biso   1.000  C
  H143     1.0000 0.28550  0.49460  0.74550  Biso   1.000  H
  C247     1.0000 0.41950  0.34700  0.63390  Biso   1.000  C
  H144     1.0000 0.51870  0.37390  0.65210  Biso   1.000  H
  H145     1.0000 0.32230  0.30210  0.62360  Biso   1.000  H
  C248     1.0000 0.18130  0.34270  0.63247  Biso   1.000  C
  C249     1.0000 0.15980  0.31150  0.70833  Biso   1.000  C
  C250     1.0000 0.41800  0.43100  0.06040  Biso   1.000  C
  H146     1.0000 0.43460  0.39980  0.99730  Biso   1.000  H
  C251     1.0000 0.57120  0.50910  0.92383  Biso   1.000  C
  C252     1.0000 0.51860  0.49570  0.85223  Biso   1.000  C
  H147     1.0000 0.40060  0.48930  0.12040  Biso   1.000  H
  H148     1.0000 0.25970  0.61530  0.79410  Biso   1.000  H
  O69      1.0000 0.10683  0.49230  0.89920  Biso   1.000  O
  C253     1.0000 0.03410  0.48920  0.96441  Biso   1.000  C
  C254     1.0000 0.09020  0.49650  0.03489  Biso   1.000  C
  C255     1.0000 0.21750  0.49870  0.04300  Biso   1.000  C
  H149     1.0000 0.42000  0.38670  0.60990  Biso   1.000  H
  C256     1.0000 0.14770  0.43010  0.63583  Biso   1.000  C
  O70      1.0000 0.20840  0.31420  0.59310  Biso   1.000  O
  C257     1.0000 0.16040  0.25200  0.74669  Biso   1.000  C
  C258     1.0000 0.12550  0.39920  0.71289  Biso   1.000  C
  H150     1.0000 0.42370  0.37060  0.07060  Biso   1.000  H
  O71      1.0000 0.56338  0.50760  0.96778  Biso   1.000  O
  C259     1.0000 0.63860  0.51770  0.90447  Biso   1.000  C
  C260     1.0000 0.58650  0.50170  0.83355  Biso   1.000  C
  C261     1.0000 0.46060  0.48470  0.82280  Biso   1.000  C
  H151     1.0000 0.06810  0.48440  0.88820  Biso   1.000  H
  C262     1.0000 0.96840  0.48830  0.93796  Biso   1.000  C
  C263     1.0000 0.03130  0.49310  0.00935  Biso   1.000  C
  C264     1.0000 0.08620  0.50540  0.08136  Biso   1.000  C
  H152     1.0000 0.26230  0.49560  0.03110  Biso   1.000  H
  C265     1.0000 0.21040  0.50700  0.08610  Biso   1.000  C
  C266     1.0000 0.12100  0.45530  0.67583  Biso   1.000  C
  C267     1.0000 0.13850  0.49580  0.59818  Biso   1.000  C
  H153     1.0000 0.20760  0.35770  0.57570  Biso   1.000  H
  H154     1.0000 0.18100  0.19350  0.74520  Biso   1.000  H
  C268     1.0000 0.13120  0.28140  0.78450  Biso   1.000  C
  C269     1.0000 0.09660  0.42570  0.75400  Biso   1.000  C
  H155     1.0000 0.60190  0.51110  0.97950  Biso   1.000  H
  C270     1.0000 0.64510  0.51210  0.85999  Biso   1.000  C
  C271     1.0000 0.70270  0.52590  0.93186  Biso   1.000  C
  C272     1.0000 0.59420  0.49400  0.78620  Biso   1.000  C
  C273     1.0000 0.47220  0.47570  0.77830  Biso   1.000  C
  H156     1.0000 0.41510  0.48360  0.83370  Biso   1.000  H
  H157     1.0000 0.98770  0.49350  0.02290  Biso   1.000  H
  H158     1.0000 0.04260  0.50740  0.09480  Biso   1.000  H
  C274     1.0000 0.14540  0.51110  0.10650  Biso   1.000  C
  H159     1.0000 0.25060  0.51010  0.10330  Biso   1.000  H
  H160     1.0000 0.09880  0.51260  0.67830  Biso   1.000  H
  O72      1.0000 0.11050  0.57030  0.60354  Biso   1.000  O
  H161     1.0000 0.13220  0.24170  0.80850  Biso   1.000  H
  C275     1.0000 0.09950  0.36820  0.78940  Biso   1.000  C
  H162     1.0000 0.07520  0.48340  0.75670  Biso   1.000  H
  H163     1.0000 0.68930  0.51540  0.84730  Biso   1.000  H
  C276     1.0000 0.53900  0.48070  0.76020  Biso   1.000  C
  H164     1.0000 0.63860  0.49850  0.77390  Biso   1.000  H
  H165     1.0000 0.43420  0.46590  0.75980  Biso   1.000  H
  H166     1.0000 0.14220  0.51770  0.13670  Biso   1.000  H
  H167     1.0000 0.08090  0.38640  0.81620  Biso   1.000  H
  H168     1.0000 0.54510  0.47480  0.73010  Biso   1.000  H
