data_image0
_cell_length_a       19.0994
_cell_length_b       14.418
_cell_length_c       30.593
_cell_angle_alpha    90
_cell_angle_beta     90
_cell_angle_gamma    90

_symmetry_space_group_name_H-M    "P 1"
_symmetry_int_tables_number       1

loop_
  _symmetry_equiv_pos_as_xyz
  'x, y, z'

loop_
  _atom_site_label
  _atom_site_occupancy
  _atom_site_fract_x
  _atom_site_fract_y
  _atom_site_fract_z
  _atom_site_thermal_displace_type
  _atom_site_B_iso_or_equiv
  _atom_site_type_symbol
  Ho1      1.0000 0.31145  0.02725  0.37080  Biso   1.000  Ho
  Ho2      1.0000 0.35751  0.96480  0.24681  Biso   1.000  Ho
  O1       1.0000 0.37794  0.84146  0.29536  Biso   1.000  O
  O2       1.0000 0.33428  0.87090  0.36247  Biso   1.000  O
  O3       1.0000 0.40855  0.67140  0.27474  Biso   1.000  O
  H1       1.0000 0.40280  0.72720  0.27070  Biso   1.000  H
  O4       1.0000 0.69554  0.51840  0.35140  Biso   1.000  O
  O5       1.0000 0.76124  0.52758  0.29330  Biso   1.000  O
  O6       1.0000 0.56104  0.50580  0.34517  Biso   1.000  O
  H2       1.0000 0.59960  0.50490  0.35690  Biso   1.000  H
  O7       1.0000 0.10950  0.57460  0.98081  Biso   1.000  O
  O8       1.0000 0.16060  0.47050  0.93828  Biso   1.000  O
  O9       1.0000 0.20670  0.31840  0.97004  Biso   1.000  O
  H3       1.0000 0.20110  0.35960  0.95190  Biso   1.000  H
  O10      1.0000 0.41622  0.05530  0.19032  Biso   1.000  O
  O11      1.0000 0.30847  0.01180  0.17735  Biso   1.000  O
  O12      1.0000 0.24481  0.06600  0.10856  Biso   1.000  O
  H4       1.0000 0.25440  0.03180  0.12910  Biso   1.000  H
  O13      1.0000 0.83027  0.37940  0.25981  Biso   1.000  O
  O14      1.0000 0.79021  0.34670  0.32651  Biso   1.000  O
  O15      1.0000 0.75892  0.17460  0.34478  Biso   1.000  O
  H5       1.0000 0.73980  0.22490  0.34830  Biso   1.000  H
  O16      1.0000 0.41057  0.02300  0.33083  Biso   1.000  O
  O17      1.0000 0.47297  0.99950  0.27189  Biso   1.000  O
  O18      1.0000 0.60775  0.00580  0.27579  Biso   1.000  O
  H6       1.0000 0.56890  0.00170  0.26460  Biso   1.000  H
  C1       1.0000 0.36360  0.81840  0.33488  Biso   1.000  C
  C2       1.0000 0.38230  0.72260  0.34869  Biso   1.000  C
  C3       1.0000 0.37930  0.70030  0.39183  Biso   1.000  C
  H7       1.0000 0.36660  0.74600  0.41170  Biso   1.000  H
  C4       1.0000 0.39460  0.61130  0.40763  Biso   1.000  C
  C5       1.0000 0.39100  0.58960  0.45284  Biso   1.000  C
  H8       1.0000 0.38190  0.63680  0.47280  Biso   1.000  H
  C6       1.0000 0.40030  0.50250  0.46760  Biso   1.000  C
  H9       1.0000 0.39710  0.48940  0.49730  Biso   1.000  H
  C7       1.0000 0.41520  0.43130  0.43720  Biso   1.000  C
  H10      1.0000 0.42030  0.37090  0.44730  Biso   1.000  H
  C8       1.0000 0.42200  0.44780  0.39420  Biso   1.000  C
  H11      1.0000 0.43290  0.39920  0.37540  Biso   1.000  H
  C9       1.0000 0.41276  0.54040  0.37682  Biso   1.000  C
  C10      1.0000 0.41898  0.56390  0.33204  Biso   1.000  C
  C11      1.0000 0.40324  0.65250  0.31831  Biso   1.000  C
  C12      1.0000 0.43850  0.49040  0.29748  Biso   1.000  C
  H12      1.0000 0.43680  0.42980  0.31120  Biso   1.000  H
  H13      1.0000 0.40300  0.49130  0.27480  Biso   1.000  H
  C13      1.0000 0.50960  0.50180  0.27602  Biso   1.000  C
  C14      1.0000 0.51670  0.49630  0.22922  Biso   1.000  C
  C15      1.0000 0.46070  0.48560  0.20067  Biso   1.000  C
  H14      1.0000 0.41520  0.48450  0.21160  Biso   1.000  H
  C16      1.0000 0.47190  0.47650  0.15630  Biso   1.000  C
  H15      1.0000 0.43360  0.46790  0.13800  Biso   1.000  H
  C17      1.0000 0.53910  0.48000  0.13790  Biso   1.000  C
  H16      1.0000 0.54550  0.47360  0.10800  Biso   1.000  H
  C18      1.0000 0.59380  0.49250  0.16436  Biso   1.000  C
  H17      1.0000 0.63830  0.49640  0.15220  Biso   1.000  H
  C19      1.0000 0.58640  0.50030  0.21097  Biso   1.000  C
  C20      1.0000 0.64430  0.51040  0.23788  Biso   1.000  C
  H18      1.0000 0.68870  0.51370  0.22550  Biso   1.000  H
  C21      1.0000 0.63740  0.51570  0.28273  Biso   1.000  C
  C22      1.0000 0.56910  0.50830  0.30148  Biso   1.000  C
  C23      1.0000 0.70110  0.52280  0.31024  Biso   1.000  C
  C24      1.0000 0.46920  0.01100  0.31272  Biso   1.000  C
  C25      1.0000 0.53420  0.00980  0.33950  Biso   1.000  C
  C26      1.0000 0.52920  0.00550  0.38457  Biso   1.000  C
  H19      1.0000 0.48510  0.00620  0.39750  Biso   1.000  H
  C27      1.0000 0.58820  0.00010  0.41110  Biso   1.000  C
  C28      1.0000 0.58300  0.98850  0.45650  Biso   1.000  C
  H20      1.0000 0.53880  0.98590  0.46920  Biso   1.000  H
  C29      1.0000 0.64020  0.98100  0.48250  Biso   1.000  C
  H21      1.0000 0.63540  0.97280  0.51250  Biso   1.000  H
  C30      1.0000 0.70670  0.98580  0.46320  Biso   1.000  C
  H22      1.0000 0.74620  0.98090  0.48080  Biso   1.000  H
  C31      1.0000 0.71470  0.99720  0.41990  Biso   1.000  C
  H23      1.0000 0.75980  0.00190  0.40860  Biso   1.000  H
  C32      1.0000 0.65610  0.00250  0.39040  Biso   1.000  C
  C33      1.0000 0.66280  0.00520  0.34423  Biso   1.000  C
  C34      1.0000 0.60120  0.00630  0.31968  Biso   1.000  C
  C35      1.0000 0.73250  0.99700  0.32113  Biso   1.000  C
  H24      1.0000 0.73410  0.93660  0.30720  Biso   1.000  H
  H25      1.0000 0.76890  0.99780  0.34330  Biso   1.000  H
  C36      1.0000 0.75120  0.06870  0.28706  Biso   1.000  C
  C37      1.0000 0.76070  0.04750  0.24187  Biso   1.000  C
  C38      1.0000 0.75160  0.95700  0.22380  Biso   1.000  C
  H26      1.0000 0.73780  0.90850  0.24190  Biso   1.000  H
  C39      1.0000 0.76280  0.94040  0.18070  Biso   1.000  C
  H27      1.0000 0.75860  0.88000  0.17030  Biso   1.000  H
  C40      1.0000 0.78010  0.01050  0.15190  Biso   1.000  C
  H28      1.0000 0.78500  0.99800  0.12220  Biso   1.000  H
  C41      1.0000 0.79010  0.09870  0.16753  Biso   1.000  C
  H29      1.0000 0.80300  0.14600  0.14850  Biso   1.000  H
  C42      1.0000 0.78090  0.11770  0.21223  Biso   1.000  C
  C43      1.0000 0.79400  0.20830  0.22826  Biso   1.000  C
  H30      1.0000 0.80820  0.25480  0.20910  Biso   1.000  H
  C44      1.0000 0.78600  0.22760  0.27157  Biso   1.000  C
  C45      1.0000 0.76550  0.15750  0.30157  Biso   1.000  C
  C46      1.0000 0.80360  0.32560  0.28667  Biso   1.000  C
  C47      1.0000 0.36290  0.05950  0.16735  Biso   1.000  C
  C48      1.0000 0.35980  0.12030  0.12822  Biso   1.000  C
  C49      1.0000 0.41610  0.17460  0.11829  Biso   1.000  C
  H31      1.0000 0.45560  0.17130  0.13600  Biso   1.000  H
  C50      1.0000 0.41710  0.23520  0.08250  Biso   1.000  C
  C51      1.0000 0.47600  0.28680  0.07130  Biso   1.000  C
  H32      1.0000 0.51600  0.28230  0.08850  Biso   1.000  H
  C52      1.0000 0.47650  0.34340  0.03620  Biso   1.000  C
  H33      1.0000 0.51590  0.37890  0.03010  Biso   1.000  H
  C53      1.0000 0.41890  0.34850  0.00950  Biso   1.000  C
  H34      1.0000 0.42080  0.38540  0.98460  Biso   1.000  H
  C54      1.0000 0.35750  0.29980  0.01888  Biso   1.000  C
  H35      1.0000 0.31880  0.30490  0.00060  Biso   1.000  H
  C55      1.0000 0.35460  0.24280  0.05638  Biso   1.000  C
  C56      1.0000 0.29430  0.18760  0.06657  Biso   1.000  C
  C57      1.0000 0.29980  0.12370  0.10054  Biso   1.000  C
  C58      1.0000 0.22620  0.19760  0.04035  Biso   1.000  C
  H36      1.0000 0.23700  0.18950  0.00960  Biso   1.000  H
  H37      1.0000 0.19490  0.14780  0.04880  Biso   1.000  H
  C59      1.0000 0.18800  0.28790  0.04566  Biso   1.000  C
  C60      1.0000 0.15830  0.31550  0.08638  Biso   1.000  C
  C61      1.0000 0.15920  0.25700  0.12366  Biso   1.000  C
  H38      1.0000 0.17950  0.19850  0.12190  Biso   1.000  H
  C62      1.0000 0.13060  0.28620  0.16185  Biso   1.000  C
  H39      1.0000 0.13170  0.24700  0.18600  Biso   1.000  H
  C63      1.0000 0.09950  0.37310  0.16596  Biso   1.000  C
  H40      1.0000 0.08190  0.39200  0.19290  Biso   1.000  H
  C64      1.0000 0.09470  0.43040  0.13090  Biso   1.000  C
  H41      1.0000 0.07220  0.48730  0.13350  Biso   1.000  H
  C65      1.0000 0.12410  0.40300  0.09004  Biso   1.000  C
  C66      1.0000 0.12010  0.46040  0.05303  Biso   1.000  C
  H42      1.0000 0.09900  0.51830  0.05570  Biso   1.000  H
  C67      1.0000 0.14610  0.43420  0.01337  Biso   1.000  C
  C68      1.0000 0.18010  0.34690  0.00965  Biso   1.000  C
  C69      1.0000 0.13680  0.50020  0.97579  Biso   1.000  C
  Ho3      1.0000 0.68855  0.97275  0.87080  Biso   1.000  Ho
  Ho4      1.0000 0.64249  0.03520  0.74681  Biso   1.000  Ho
  O19      1.0000 0.62206  0.15854  0.79536  Biso   1.000  O
  O20      1.0000 0.66572  0.12910  0.86247  Biso   1.000  O
  O21      1.0000 0.59145  0.32860  0.77474  Biso   1.000  O
  H43      1.0000 0.59720  0.27280  0.77070  Biso   1.000  H
  O22      1.0000 0.30446  0.48160  0.85140  Biso   1.000  O
  O23      1.0000 0.23876  0.47242  0.79330  Biso   1.000  O
  O24      1.0000 0.43896  0.49420  0.84517  Biso   1.000  O
  H44      1.0000 0.40040  0.49510  0.85690  Biso   1.000  H
  O25      1.0000 0.89050  0.42540  0.48081  Biso   1.000  O
  O26      1.0000 0.83940  0.52950  0.43828  Biso   1.000  O
  O27      1.0000 0.79330  0.68160  0.47004  Biso   1.000  O
  H45      1.0000 0.79890  0.64040  0.45190  Biso   1.000  H
  O28      1.0000 0.58378  0.94470  0.69032  Biso   1.000  O
  O29      1.0000 0.69153  0.98820  0.67735  Biso   1.000  O
  O30      1.0000 0.75519  0.93400  0.60856  Biso   1.000  O
  H46      1.0000 0.74560  0.96820  0.62910  Biso   1.000  H
  O31      1.0000 0.16973  0.62060  0.75981  Biso   1.000  O
  O32      1.0000 0.20979  0.65330  0.82651  Biso   1.000  O
  O33      1.0000 0.24108  0.82540  0.84478  Biso   1.000  O
  H47      1.0000 0.26020  0.77510  0.84830  Biso   1.000  H
  O34      1.0000 0.58943  0.97700  0.83083  Biso   1.000  O
  O35      1.0000 0.52703  0.00050  0.77189  Biso   1.000  O
  O36      1.0000 0.39225  0.99420  0.77579  Biso   1.000  O
  H48      1.0000 0.43110  0.99830  0.76460  Biso   1.000  H
  C70      1.0000 0.63640  0.18160  0.83488  Biso   1.000  C
  C71      1.0000 0.61770  0.27740  0.84869  Biso   1.000  C
  C72      1.0000 0.62070  0.29970  0.89183  Biso   1.000  C
  H49      1.0000 0.63340  0.25400  0.91170  Biso   1.000  H
  C73      1.0000 0.60540  0.38870  0.90763  Biso   1.000  C
  C74      1.0000 0.60900  0.41040  0.95284  Biso   1.000  C
  H50      1.0000 0.61810  0.36320  0.97280  Biso   1.000  H
  C75      1.0000 0.59970  0.49750  0.96760  Biso   1.000  C
  H51      1.0000 0.60290  0.51060  0.99730  Biso   1.000  H
  C76      1.0000 0.58480  0.56870  0.93720  Biso   1.000  C
  H52      1.0000 0.57970  0.62910  0.94730  Biso   1.000  H
  C77      1.0000 0.57800  0.55220  0.89420  Biso   1.000  C
  H53      1.0000 0.56710  0.60080  0.87540  Biso   1.000  H
  C78      1.0000 0.58724  0.45960  0.87682  Biso   1.000  C
  C79      1.0000 0.58102  0.43610  0.83204  Biso   1.000  C
  C80      1.0000 0.59676  0.34750  0.81831  Biso   1.000  C
  C81      1.0000 0.56150  0.50960  0.79748  Biso   1.000  C
  H54      1.0000 0.56320  0.57020  0.81120  Biso   1.000  H
  H55      1.0000 0.59700  0.50870  0.77480  Biso   1.000  H
  C82      1.0000 0.49040  0.49820  0.77602  Biso   1.000  C
  C83      1.0000 0.48330  0.50370  0.72922  Biso   1.000  C
  C84      1.0000 0.53930  0.51440  0.70067  Biso   1.000  C
  H56      1.0000 0.58480  0.51550  0.71160  Biso   1.000  H
  C85      1.0000 0.52810  0.52350  0.65630  Biso   1.000  C
  H57      1.0000 0.56640  0.53210  0.63800  Biso   1.000  H
  C86      1.0000 0.46090  0.52000  0.63790  Biso   1.000  C
  H58      1.0000 0.45450  0.52640  0.60800  Biso   1.000  H
  C87      1.0000 0.40620  0.50750  0.66436  Biso   1.000  C
  H59      1.0000 0.36170  0.50360  0.65220  Biso   1.000  H
  C88      1.0000 0.41360  0.49970  0.71097  Biso   1.000  C
  C89      1.0000 0.35570  0.48960  0.73788  Biso   1.000  C
  H60      1.0000 0.31130  0.48630  0.72550  Biso   1.000  H
  C90      1.0000 0.36260  0.48430  0.78273  Biso   1.000  C
  C91      1.0000 0.43090  0.49170  0.80148  Biso   1.000  C
  C92      1.0000 0.29890  0.47720  0.81024  Biso   1.000  C
  C93      1.0000 0.53080  0.98900  0.81272  Biso   1.000  C
  C94      1.0000 0.46580  0.99020  0.83950  Biso   1.000  C
  C95      1.0000 0.47080  0.99450  0.88457  Biso   1.000  C
  H61      1.0000 0.51490  0.99380  0.89750  Biso   1.000  H
  C96      1.0000 0.41180  0.99990  0.91110  Biso   1.000  C
  C97      1.0000 0.41700  0.01150  0.95650  Biso   1.000  C
  H62      1.0000 0.46120  0.01410  0.96920  Biso   1.000  H
  C98      1.0000 0.35980  0.01900  0.98250  Biso   1.000  C
  H63      1.0000 0.36460  0.02720  0.01250  Biso   1.000  H
  C99      1.0000 0.29330  0.01420  0.96320  Biso   1.000  C
  H64      1.0000 0.25380  0.01910  0.98080  Biso   1.000  H
  C100     1.0000 0.28530  0.00280  0.91990  Biso   1.000  C
  H65      1.0000 0.24020  0.99810  0.90860  Biso   1.000  H
  C101     1.0000 0.34390  0.99750  0.89040  Biso   1.000  C
  C102     1.0000 0.33720  0.99480  0.84423  Biso   1.000  C
  C103     1.0000 0.39880  0.99370  0.81968  Biso   1.000  C
  C104     1.0000 0.26750  0.00300  0.82113  Biso   1.000  C
  H66      1.0000 0.26590  0.06340  0.80720  Biso   1.000  H
  H67      1.0000 0.23110  0.00220  0.84330  Biso   1.000  H
  C105     1.0000 0.24880  0.93130  0.78706  Biso   1.000  C
  C106     1.0000 0.23930  0.95250  0.74187  Biso   1.000  C
  C107     1.0000 0.24840  0.04300  0.72380  Biso   1.000  C
  H68      1.0000 0.26220  0.09150  0.74190  Biso   1.000  H
  C108     1.0000 0.23720  0.05960  0.68070  Biso   1.000  C
  H69      1.0000 0.24140  0.12000  0.67030  Biso   1.000  H
  C109     1.0000 0.21990  0.98950  0.65190  Biso   1.000  C
  H70      1.0000 0.21500  0.00200  0.62220  Biso   1.000  H
  C110     1.0000 0.20990  0.90130  0.66753  Biso   1.000  C
  H71      1.0000 0.19700  0.85400  0.64850  Biso   1.000  H
  C111     1.0000 0.21910  0.88230  0.71223  Biso   1.000  C
  C112     1.0000 0.20600  0.79170  0.72826  Biso   1.000  C
  H72      1.0000 0.19180  0.74520  0.70910  Biso   1.000  H
  C113     1.0000 0.21400  0.77240  0.77157  Biso   1.000  C
  C114     1.0000 0.23450  0.84250  0.80157  Biso   1.000  C
  C115     1.0000 0.19640  0.67440  0.78667  Biso   1.000  C
  C116     1.0000 0.63710  0.94050  0.66735  Biso   1.000  C
  C117     1.0000 0.64020  0.87970  0.62822  Biso   1.000  C
  C118     1.0000 0.58390  0.82540  0.61829  Biso   1.000  C
  H73      1.0000 0.54440  0.82870  0.63600  Biso   1.000  H
  C119     1.0000 0.58290  0.76480  0.58250  Biso   1.000  C
  C120     1.0000 0.52400  0.71320  0.57130  Biso   1.000  C
  H74      1.0000 0.48400  0.71770  0.58850  Biso   1.000  H
  C121     1.0000 0.52350  0.65660  0.53620  Biso   1.000  C
  H75      1.0000 0.48410  0.62110  0.53010  Biso   1.000  H
  C122     1.0000 0.58110  0.65150  0.50950  Biso   1.000  C
  H76      1.0000 0.57920  0.61460  0.48460  Biso   1.000  H
  C123     1.0000 0.64250  0.70020  0.51888  Biso   1.000  C
  H77      1.0000 0.68120  0.69510  0.50060  Biso   1.000  H
  C124     1.0000 0.64540  0.75720  0.55638  Biso   1.000  C
  C125     1.0000 0.70570  0.81240  0.56657  Biso   1.000  C
  C126     1.0000 0.70020  0.87630  0.60054  Biso   1.000  C
  C127     1.0000 0.77380  0.80240  0.54035  Biso   1.000  C
  H78      1.0000 0.76300  0.81050  0.50960  Biso   1.000  H
  H79      1.0000 0.80510  0.85220  0.54880  Biso   1.000  H
  C128     1.0000 0.81200  0.71210  0.54566  Biso   1.000  C
  C129     1.0000 0.84170  0.68450  0.58638  Biso   1.000  C
  C130     1.0000 0.84080  0.74300  0.62366  Biso   1.000  C
  H80      1.0000 0.82050  0.80150  0.62190  Biso   1.000  H
  C131     1.0000 0.86940  0.71380  0.66185  Biso   1.000  C
  H81      1.0000 0.86830  0.75300  0.68600  Biso   1.000  H
  C132     1.0000 0.90050  0.62690  0.66596  Biso   1.000  C
  H82      1.0000 0.91810  0.60800  0.69290  Biso   1.000  H
  C133     1.0000 0.90530  0.56960  0.63090  Biso   1.000  C
  H83      1.0000 0.92780  0.51270  0.63350  Biso   1.000  H
  C134     1.0000 0.87590  0.59700  0.59004  Biso   1.000  C
  C135     1.0000 0.87990  0.53960  0.55303  Biso   1.000  C
  H84      1.0000 0.90100  0.48170  0.55570  Biso   1.000  H
  C136     1.0000 0.85390  0.56580  0.51337  Biso   1.000  C
  C137     1.0000 0.81990  0.65310  0.50965  Biso   1.000  C
  C138     1.0000 0.86320  0.49980  0.47579  Biso   1.000  C
  Ho5      1.0000 0.81145  0.47275  0.37080  Biso   1.000  Ho
  Ho6      1.0000 0.85751  0.53520  0.24681  Biso   1.000  Ho
  O37      1.0000 0.87794  0.65854  0.29536  Biso   1.000  O
  O38      1.0000 0.83428  0.62910  0.36247  Biso   1.000  O
  O39      1.0000 0.90855  0.82860  0.27474  Biso   1.000  O
  H85      1.0000 0.90280  0.77280  0.27070  Biso   1.000  H
  O40      1.0000 0.19554  0.98160  0.35140  Biso   1.000  O
  O41      1.0000 0.26124  0.97242  0.29330  Biso   1.000  O
  O42      1.0000 0.06104  0.99420  0.34517  Biso   1.000  O
  H86      1.0000 0.09960  0.99510  0.35690  Biso   1.000  H
  O43      1.0000 0.60950  0.92540  0.98081  Biso   1.000  O
  O44      1.0000 0.66060  0.02950  0.93828  Biso   1.000  O
  O45      1.0000 0.70670  0.18160  0.97004  Biso   1.000  O
  H87      1.0000 0.70110  0.14040  0.95190  Biso   1.000  H
  O46      1.0000 0.91622  0.44470  0.19032  Biso   1.000  O
  O47      1.0000 0.80847  0.48820  0.17735  Biso   1.000  O
  O48      1.0000 0.74481  0.43400  0.10856  Biso   1.000  O
  H88      1.0000 0.75440  0.46820  0.12910  Biso   1.000  H
  O49      1.0000 0.33027  0.12060  0.25981  Biso   1.000  O
  O50      1.0000 0.29021  0.15330  0.32651  Biso   1.000  O
  O51      1.0000 0.25892  0.32540  0.34478  Biso   1.000  O
  H89      1.0000 0.23980  0.27510  0.34830  Biso   1.000  H
  O52      1.0000 0.91057  0.47700  0.33083  Biso   1.000  O
  O53      1.0000 0.97297  0.50050  0.27189  Biso   1.000  O
  O54      1.0000 0.10775  0.49420  0.27579  Biso   1.000  O
  H90      1.0000 0.06890  0.49830  0.26460  Biso   1.000  H
  C139     1.0000 0.86360  0.68160  0.33488  Biso   1.000  C
  C140     1.0000 0.88230  0.77740  0.34869  Biso   1.000  C
  C141     1.0000 0.87930  0.79970  0.39183  Biso   1.000  C
  H91      1.0000 0.86660  0.75400  0.41170  Biso   1.000  H
  C142     1.0000 0.89460  0.88870  0.40763  Biso   1.000  C
  C143     1.0000 0.89100  0.91040  0.45284  Biso   1.000  C
  H92      1.0000 0.88190  0.86320  0.47280  Biso   1.000  H
  C144     1.0000 0.90030  0.99750  0.46760  Biso   1.000  C
  H93      1.0000 0.89710  0.01060  0.49730  Biso   1.000  H
  C145     1.0000 0.91520  0.06870  0.43720  Biso   1.000  C
  H94      1.0000 0.92030  0.12910  0.44730  Biso   1.000  H
  C146     1.0000 0.92200  0.05220  0.39420  Biso   1.000  C
  H95      1.0000 0.93290  0.10080  0.37540  Biso   1.000  H
  C147     1.0000 0.91276  0.95960  0.37682  Biso   1.000  C
  C148     1.0000 0.91898  0.93610  0.33204  Biso   1.000  C
  C149     1.0000 0.90324  0.84750  0.31831  Biso   1.000  C
  C150     1.0000 0.93850  0.00960  0.29748  Biso   1.000  C
  H96      1.0000 0.93680  0.07020  0.31120  Biso   1.000  H
  H97      1.0000 0.90300  0.00870  0.27480  Biso   1.000  H
  C151     1.0000 0.00960  0.99820  0.27602  Biso   1.000  C
  C152     1.0000 0.01670  0.00370  0.22922  Biso   1.000  C
  C153     1.0000 0.96070  0.01440  0.20067  Biso   1.000  C
  H98      1.0000 0.91520  0.01550  0.21160  Biso   1.000  H
  C154     1.0000 0.97190  0.02350  0.15630  Biso   1.000  C
  H99      1.0000 0.93360  0.03210  0.13800  Biso   1.000  H
  C155     1.0000 0.03910  0.02000  0.13790  Biso   1.000  C
  H100     1.0000 0.04550  0.02640  0.10800  Biso   1.000  H
  C156     1.0000 0.09380  0.00750  0.16436  Biso   1.000  C
  H101     1.0000 0.13830  0.00360  0.15220  Biso   1.000  H
  C157     1.0000 0.08640  0.99970  0.21097  Biso   1.000  C
  C158     1.0000 0.14430  0.98960  0.23788  Biso   1.000  C
  H102     1.0000 0.18870  0.98630  0.22550  Biso   1.000  H
  C159     1.0000 0.13740  0.98430  0.28273  Biso   1.000  C
  C160     1.0000 0.06910  0.99170  0.30148  Biso   1.000  C
  C161     1.0000 0.20110  0.97720  0.31024  Biso   1.000  C
  C162     1.0000 0.96920  0.48900  0.31272  Biso   1.000  C
  C163     1.0000 0.03420  0.49020  0.33950  Biso   1.000  C
  C164     1.0000 0.02920  0.49450  0.38457  Biso   1.000  C
  H103     1.0000 0.98510  0.49380  0.39750  Biso   1.000  H
  C165     1.0000 0.08820  0.49990  0.41110  Biso   1.000  C
  C166     1.0000 0.08300  0.51150  0.45650  Biso   1.000  C
  H104     1.0000 0.03880  0.51410  0.46920  Biso   1.000  H
  C167     1.0000 0.14020  0.51900  0.48250  Biso   1.000  C
  H105     1.0000 0.13540  0.52720  0.51250  Biso   1.000  H
  C168     1.0000 0.20670  0.51420  0.46320  Biso   1.000  C
  H106     1.0000 0.24620  0.51910  0.48080  Biso   1.000  H
  C169     1.0000 0.21470  0.50280  0.41990  Biso   1.000  C
  H107     1.0000 0.25980  0.49810  0.40860  Biso   1.000  H
  C170     1.0000 0.15610  0.49750  0.39040  Biso   1.000  C
  C171     1.0000 0.16280  0.49480  0.34423  Biso   1.000  C
  C172     1.0000 0.10120  0.49370  0.31968  Biso   1.000  C
  C173     1.0000 0.23250  0.50300  0.32113  Biso   1.000  C
  H108     1.0000 0.23410  0.56340  0.30720  Biso   1.000  H
  H109     1.0000 0.26890  0.50220  0.34330  Biso   1.000  H
  C174     1.0000 0.25120  0.43130  0.28706  Biso   1.000  C
  C175     1.0000 0.26070  0.45250  0.24187  Biso   1.000  C
  C176     1.0000 0.25160  0.54300  0.22380  Biso   1.000  C
  H110     1.0000 0.23780  0.59150  0.24190  Biso   1.000  H
  C177     1.0000 0.26280  0.55960  0.18070  Biso   1.000  C
  H111     1.0000 0.25860  0.62000  0.17030  Biso   1.000  H
  C178     1.0000 0.28010  0.48950  0.15190  Biso   1.000  C
  H112     1.0000 0.28500  0.50200  0.12220  Biso   1.000  H
  C179     1.0000 0.29010  0.40130  0.16753  Biso   1.000  C
  H113     1.0000 0.30300  0.35400  0.14850  Biso   1.000  H
  C180     1.0000 0.28090  0.38230  0.21223  Biso   1.000  C
  C181     1.0000 0.29400  0.29170  0.22826  Biso   1.000  C
  H114     1.0000 0.30820  0.24520  0.20910  Biso   1.000  H
  C182     1.0000 0.28600  0.27240  0.27157  Biso   1.000  C
  C183     1.0000 0.26550  0.34250  0.30157  Biso   1.000  C
  C184     1.0000 0.30360  0.17440  0.28667  Biso   1.000  C
  C185     1.0000 0.86290  0.44050  0.16735  Biso   1.000  C
  C186     1.0000 0.85980  0.37970  0.12822  Biso   1.000  C
  C187     1.0000 0.91610  0.32540  0.11829  Biso   1.000  C
  H115     1.0000 0.95560  0.32870  0.13600  Biso   1.000  H
  C188     1.0000 0.91710  0.26480  0.08250  Biso   1.000  C
  C189     1.0000 0.97600  0.21320  0.07130  Biso   1.000  C
  H116     1.0000 0.01600  0.21770  0.08850  Biso   1.000  H
  C190     1.0000 0.97650  0.15660  0.03620  Biso   1.000  C
  H117     1.0000 0.01590  0.12110  0.03010  Biso   1.000  H
  C191     1.0000 0.91890  0.15150  0.00950  Biso   1.000  C
  H118     1.0000 0.92080  0.11460  0.98460  Biso   1.000  H
  C192     1.0000 0.85750  0.20020  0.01888  Biso   1.000  C
  H119     1.0000 0.81880  0.19510  0.00060  Biso   1.000  H
  C193     1.0000 0.85460  0.25720  0.05638  Biso   1.000  C
  C194     1.0000 0.79430  0.31240  0.06657  Biso   1.000  C
  C195     1.0000 0.79980  0.37630  0.10054  Biso   1.000  C
  C196     1.0000 0.72620  0.30240  0.04035  Biso   1.000  C
  H120     1.0000 0.73700  0.31050  0.00960  Biso   1.000  H
  H121     1.0000 0.69490  0.35220  0.04880  Biso   1.000  H
  C197     1.0000 0.68800  0.21210  0.04566  Biso   1.000  C
  C198     1.0000 0.65830  0.18450  0.08638  Biso   1.000  C
  C199     1.0000 0.65920  0.24300  0.12366  Biso   1.000  C
  H122     1.0000 0.67950  0.30150  0.12190  Biso   1.000  H
  C200     1.0000 0.63060  0.21380  0.16185  Biso   1.000  C
  H123     1.0000 0.63170  0.25300  0.18600  Biso   1.000  H
  C201     1.0000 0.59950  0.12690  0.16596  Biso   1.000  C
  H124     1.0000 0.58190  0.10800  0.19290  Biso   1.000  H
  C202     1.0000 0.59470  0.06960  0.13090  Biso   1.000  C
  H125     1.0000 0.57220  0.01270  0.13350  Biso   1.000  H
  C203     1.0000 0.62410  0.09700  0.09004  Biso   1.000  C
  C204     1.0000 0.62010  0.03960  0.05303  Biso   1.000  C
  H126     1.0000 0.59900  0.98170  0.05570  Biso   1.000  H
  C205     1.0000 0.64610  0.06580  0.01337  Biso   1.000  C
  C206     1.0000 0.68010  0.15310  0.00965  Biso   1.000  C
  C207     1.0000 0.63680  0.99980  0.97579  Biso   1.000  C
  Ho7      1.0000 0.18855  0.52725  0.87080  Biso   1.000  Ho
  Ho8      1.0000 0.14249  0.46480  0.74681  Biso   1.000  Ho
  O55      1.0000 0.12206  0.34146  0.79536  Biso   1.000  O
  O56      1.0000 0.16572  0.37090  0.86247  Biso   1.000  O
  O57      1.0000 0.09145  0.17140  0.77474  Biso   1.000  O
  H127     1.0000 0.09720  0.22720  0.77070  Biso   1.000  H
  O58      1.0000 0.80446  0.01840  0.85140  Biso   1.000  O
  O59      1.0000 0.73876  0.02758  0.79330  Biso   1.000  O
  O60      1.0000 0.93896  0.00580  0.84517  Biso   1.000  O
  H128     1.0000 0.90040  0.00490  0.85690  Biso   1.000  H
  O61      1.0000 0.39050  0.07460  0.48081  Biso   1.000  O
  O62      1.0000 0.33940  0.97050  0.43828  Biso   1.000  O
  O63      1.0000 0.29330  0.81840  0.47004  Biso   1.000  O
  H129     1.0000 0.29890  0.85960  0.45190  Biso   1.000  H
  O64      1.0000 0.08378  0.55530  0.69032  Biso   1.000  O
  O65      1.0000 0.19153  0.51180  0.67735  Biso   1.000  O
  O66      1.0000 0.25519  0.56600  0.60856  Biso   1.000  O
  H130     1.0000 0.24560  0.53180  0.62910  Biso   1.000  H
  O67      1.0000 0.66973  0.87940  0.75981  Biso   1.000  O
  O68      1.0000 0.70979  0.84670  0.82651  Biso   1.000  O
  O69      1.0000 0.74108  0.67460  0.84478  Biso   1.000  O
  H131     1.0000 0.76020  0.72490  0.84830  Biso   1.000  H
  O70      1.0000 0.08943  0.52300  0.83083  Biso   1.000  O
  O71      1.0000 0.02703  0.49950  0.77189  Biso   1.000  O
  O72      1.0000 0.89225  0.50580  0.77579  Biso   1.000  O
  H132     1.0000 0.93110  0.50170  0.76460  Biso   1.000  H
  C208     1.0000 0.13640  0.31840  0.83488  Biso   1.000  C
  C209     1.0000 0.11770  0.22260  0.84869  Biso   1.000  C
  C210     1.0000 0.12070  0.20030  0.89183  Biso   1.000  C
  H133     1.0000 0.13340  0.24600  0.91170  Biso   1.000  H
  C211     1.0000 0.10540  0.11130  0.90763  Biso   1.000  C
  C212     1.0000 0.10900  0.08960  0.95284  Biso   1.000  C
  H134     1.0000 0.11810  0.13680  0.97280  Biso   1.000  H
  C213     1.0000 0.09970  0.00250  0.96760  Biso   1.000  C
  H135     1.0000 0.10290  0.98940  0.99730  Biso   1.000  H
  C214     1.0000 0.08480  0.93130  0.93720  Biso   1.000  C
  H136     1.0000 0.07970  0.87090  0.94730  Biso   1.000  H
  C215     1.0000 0.07800  0.94780  0.89420  Biso   1.000  C
  H137     1.0000 0.06710  0.89920  0.87540  Biso   1.000  H
  C216     1.0000 0.08724  0.04040  0.87682  Biso   1.000  C
  C217     1.0000 0.08102  0.06390  0.83204  Biso   1.000  C
  C218     1.0000 0.09676  0.15250  0.81831  Biso   1.000  C
  C219     1.0000 0.06150  0.99040  0.79748  Biso   1.000  C
  H138     1.0000 0.06320  0.92980  0.81120  Biso   1.000  H
  H139     1.0000 0.09700  0.99130  0.77480  Biso   1.000  H
  C220     1.0000 0.99040  0.00180  0.77602  Biso   1.000  C
  C221     1.0000 0.98330  0.99630  0.72922  Biso   1.000  C
  C222     1.0000 0.03930  0.98560  0.70067  Biso   1.000  C
  H140     1.0000 0.08480  0.98450  0.71160  Biso   1.000  H
  C223     1.0000 0.02810  0.97650  0.65630  Biso   1.000  C
  H141     1.0000 0.06640  0.96790  0.63800  Biso   1.000  H
  C224     1.0000 0.96090  0.98000  0.63790  Biso   1.000  C
  H142     1.0000 0.95450  0.97360  0.60800  Biso   1.000  H
  C225     1.0000 0.90620  0.99250  0.66436  Biso   1.000  C
  H143     1.0000 0.86170  0.99640  0.65220  Biso   1.000  H
  C226     1.0000 0.91360  0.00030  0.71097  Biso   1.000  C
  C227     1.0000 0.85570  0.01040  0.73788  Biso   1.000  C
  H144     1.0000 0.81130  0.01370  0.72550  Biso   1.000  H
  C228     1.0000 0.86260  0.01570  0.78273  Biso   1.000  C
  C229     1.0000 0.93090  0.00830  0.80148  Biso   1.000  C
  C230     1.0000 0.79890  0.02280  0.81024  Biso   1.000  C
  C231     1.0000 0.03080  0.51100  0.81272  Biso   1.000  C
  C232     1.0000 0.96580  0.50980  0.83950  Biso   1.000  C
  C233     1.0000 0.97080  0.50550  0.88457  Biso   1.000  C
  H145     1.0000 0.01490  0.50620  0.89750  Biso   1.000  H
  C234     1.0000 0.91180  0.50010  0.91110  Biso   1.000  C
  C235     1.0000 0.91700  0.48850  0.95650  Biso   1.000  C
  H146     1.0000 0.96120  0.48590  0.96920  Biso   1.000  H
  C236     1.0000 0.85980  0.48100  0.98250  Biso   1.000  C
  H147     1.0000 0.86460  0.47280  0.01250  Biso   1.000  H
  C237     1.0000 0.79330  0.48580  0.96320  Biso   1.000  C
  H148     1.0000 0.75380  0.48090  0.98080  Biso   1.000  H
  C238     1.0000 0.78530  0.49720  0.91990  Biso   1.000  C
  H149     1.0000 0.74020  0.50190  0.90860  Biso   1.000  H
  C239     1.0000 0.84390  0.50250  0.89040  Biso   1.000  C
  C240     1.0000 0.83720  0.50520  0.84423  Biso   1.000  C
  C241     1.0000 0.89880  0.50630  0.81968  Biso   1.000  C
  C242     1.0000 0.76750  0.49700  0.82113  Biso   1.000  C
  H150     1.0000 0.76590  0.43660  0.80720  Biso   1.000  H
  H151     1.0000 0.73110  0.49780  0.84330  Biso   1.000  H
  C243     1.0000 0.74880  0.56870  0.78706  Biso   1.000  C
  C244     1.0000 0.73930  0.54750  0.74187  Biso   1.000  C
  C245     1.0000 0.74840  0.45700  0.72380  Biso   1.000  C
  H152     1.0000 0.76220  0.40850  0.74190  Biso   1.000  H
  C246     1.0000 0.73720  0.44040  0.68070  Biso   1.000  C
  H153     1.0000 0.74140  0.38000  0.67030  Biso   1.000  H
  C247     1.0000 0.71990  0.51050  0.65190  Biso   1.000  C
  H154     1.0000 0.71500  0.49800  0.62220  Biso   1.000  H
  C248     1.0000 0.70990  0.59870  0.66753  Biso   1.000  C
  H155     1.0000 0.69700  0.64600  0.64850  Biso   1.000  H
  C249     1.0000 0.71910  0.61770  0.71223  Biso   1.000  C
  C250     1.0000 0.70600  0.70830  0.72826  Biso   1.000  C
  H156     1.0000 0.69180  0.75480  0.70910  Biso   1.000  H
  C251     1.0000 0.71400  0.72760  0.77157  Biso   1.000  C
  C252     1.0000 0.73450  0.65750  0.80157  Biso   1.000  C
  C253     1.0000 0.69640  0.82560  0.78667  Biso   1.000  C
  C254     1.0000 0.13710  0.55950  0.66735  Biso   1.000  C
  C255     1.0000 0.14020  0.62030  0.62822  Biso   1.000  C
  C256     1.0000 0.08390  0.67460  0.61829  Biso   1.000  C
  H157     1.0000 0.04440  0.67130  0.63600  Biso   1.000  H
  C257     1.0000 0.08290  0.73520  0.58250  Biso   1.000  C
  C258     1.0000 0.02400  0.78680  0.57130  Biso   1.000  C
  H158     1.0000 0.98400  0.78230  0.58850  Biso   1.000  H
  C259     1.0000 0.02350  0.84340  0.53620  Biso   1.000  C
  H159     1.0000 0.98410  0.87890  0.53010  Biso   1.000  H
  C260     1.0000 0.08110  0.84850  0.50950  Biso   1.000  C
  H160     1.0000 0.07920  0.88540  0.48460  Biso   1.000  H
  C261     1.0000 0.14250  0.79980  0.51888  Biso   1.000  C
  H161     1.0000 0.18120  0.80490  0.50060  Biso   1.000  H
  C262     1.0000 0.14540  0.74280  0.55638  Biso   1.000  C
  C263     1.0000 0.20570  0.68760  0.56657  Biso   1.000  C
  C264     1.0000 0.20020  0.62370  0.60054  Biso   1.000  C
  C265     1.0000 0.27380  0.69760  0.54035  Biso   1.000  C
  H162     1.0000 0.26300  0.68950  0.50960  Biso   1.000  H
  H163     1.0000 0.30510  0.64780  0.54880  Biso   1.000  H
  C266     1.0000 0.31200  0.78790  0.54566  Biso   1.000  C
  C267     1.0000 0.34170  0.81550  0.58638  Biso   1.000  C
  C268     1.0000 0.34080  0.75700  0.62366  Biso   1.000  C
  H164     1.0000 0.32050  0.69850  0.62190  Biso   1.000  H
  C269     1.0000 0.36940  0.78620  0.66185  Biso   1.000  C
  H165     1.0000 0.36830  0.74700  0.68600  Biso   1.000  H
  C270     1.0000 0.40050  0.87310  0.66596  Biso   1.000  C
  H166     1.0000 0.41810  0.89200  0.69290  Biso   1.000  H
  C271     1.0000 0.40530  0.93040  0.63090  Biso   1.000  C
  H167     1.0000 0.42780  0.98730  0.63350  Biso   1.000  H
  C272     1.0000 0.37590  0.90300  0.59004  Biso   1.000  C
  C273     1.0000 0.37990  0.96040  0.55303  Biso   1.000  C
  H168     1.0000 0.40100  0.01830  0.55570  Biso   1.000  H
  C274     1.0000 0.35390  0.93420  0.51337  Biso   1.000  C
  C275     1.0000 0.31990  0.84690  0.50965  Biso   1.000  C
  C276     1.0000 0.36320  0.00020  0.47579  Biso   1.000  C
