data_image0
_cell_length_a       33.261
_cell_length_b       33.261
_cell_length_c       33.261
_cell_angle_alpha    90
_cell_angle_beta     90
_cell_angle_gamma    90

_symmetry_space_group_name_H-M    "P 1"
_symmetry_int_tables_number       1

loop_
  _symmetry_equiv_pos_as_xyz
  'x, y, z'

loop_
  _atom_site_label
  _atom_site_occupancy
  _atom_site_fract_x
  _atom_site_fract_y
  _atom_site_fract_z
  _atom_site_thermal_displace_type
  _atom_site_B_iso_or_equiv
  _atom_site_type_symbol
  O1       1.0000 0.37364  0.62649  0.06079  Biso   1.000  O
  O2       1.0000 0.39440  0.57440  0.02630  Biso   1.000  O
  C1       1.0000 0.31840  0.65140  0.00701  Biso   1.000  C
  H1       1.0000 0.32210  0.66790  0.02930  Biso   1.000  H
  C2       1.0000 0.34127  0.61670  0.00280  Biso   1.000  C
  C3       1.0000 0.33580  0.59201  0.96950  Biso   1.000  C
  H2       1.0000 0.35110  0.56880  0.96670  Biso   1.000  H
  C4       1.0000 0.30750  0.60210  0.94040  Biso   1.000  C
  C5       1.0000 0.28470  0.63680  0.94460  Biso   1.000  C
  H3       1.0000 0.26580  0.64360  0.92520  Biso   1.000  H
  C6       1.0000 0.29020  0.66150  0.97790  Biso   1.000  C
  C7       1.0000 0.37370  0.60220  0.03170  Biso   1.000  C
  C8       1.0000 0.26340  0.69260  0.98370  Biso   1.000  C
  C9       1.0000 0.24010  0.71970  0.98580  Biso   1.000  C
  C10      1.0000 0.17560  0.75310  0.96890  Biso   1.000  C
  H4       1.0000 0.17260  0.73780  0.94570  Biso   1.000  H
  C11      1.0000 0.14910  0.78440  0.97690  Biso   1.000  C
  C12      1.0000 0.15360  0.80720  0.01170  Biso   1.000  C
  H5       1.0000 0.13590  0.82820  0.01700  Biso   1.000  H
  C13      1.0000 0.18460  0.79870  0.03840  Biso   1.000  C
  H6       1.0000 0.18760  0.81400  0.06160  Biso   1.000  H
  C14      1.0000 0.21110  0.76740  0.03040  Biso   1.000  C
  H7       1.0000 0.23180  0.76170  0.04830  Biso   1.000  H
  C15      1.0000 0.20660  0.74460  0.99570  Biso   1.000  C
  C16      1.0000 0.29960  0.55330  0.87780  Biso   1.000  C
  C17      1.0000 0.30310  0.57610  0.90480  Biso   1.000  C
  O3       1.0000 0.12636  0.37351  0.56079  Biso   1.000  O
  O4       1.0000 0.10560  0.42560  0.52630  Biso   1.000  O
  C18      1.0000 0.18160  0.34860  0.50701  Biso   1.000  C
  H8       1.0000 0.17790  0.33210  0.52930  Biso   1.000  H
  C19      1.0000 0.15873  0.38330  0.50280  Biso   1.000  C
  C20      1.0000 0.16420  0.40799  0.46950  Biso   1.000  C
  H9       1.0000 0.14890  0.43120  0.46670  Biso   1.000  H
  C21      1.0000 0.19250  0.39790  0.44040  Biso   1.000  C
  C22      1.0000 0.21530  0.36320  0.44460  Biso   1.000  C
  H10      1.0000 0.23420  0.35640  0.42520  Biso   1.000  H
  C23      1.0000 0.20980  0.33850  0.47790  Biso   1.000  C
  C24      1.0000 0.12630  0.39780  0.53170  Biso   1.000  C
  C25      1.0000 0.23660  0.30740  0.48370  Biso   1.000  C
  C26      1.0000 0.25990  0.28030  0.48580  Biso   1.000  C
  C27      1.0000 0.32440  0.24690  0.46890  Biso   1.000  C
  H11      1.0000 0.32740  0.26220  0.44570  Biso   1.000  H
  C28      1.0000 0.35090  0.21560  0.47690  Biso   1.000  C
  C29      1.0000 0.34640  0.19280  0.51170  Biso   1.000  C
  H12      1.0000 0.36410  0.17180  0.51700  Biso   1.000  H
  C30      1.0000 0.31540  0.20130  0.53840  Biso   1.000  C
  H13      1.0000 0.31240  0.18600  0.56160  Biso   1.000  H
  C31      1.0000 0.28890  0.23260  0.53040  Biso   1.000  C
  H14      1.0000 0.26820  0.23830  0.54830  Biso   1.000  H
  C32      1.0000 0.29340  0.25540  0.49570  Biso   1.000  C
  C33      1.0000 0.20040  0.44670  0.37780  Biso   1.000  C
  C34      1.0000 0.19690  0.42390  0.40480  Biso   1.000  C
  O5       1.0000 0.62636  0.12649  0.43921  Biso   1.000  O
  O6       1.0000 0.60560  0.07440  0.47370  Biso   1.000  O
  C35      1.0000 0.68160  0.15140  0.49299  Biso   1.000  C
  H15      1.0000 0.67790  0.16790  0.47070  Biso   1.000  H
  C36      1.0000 0.65873  0.11670  0.49720  Biso   1.000  C
  C37      1.0000 0.66420  0.09201  0.53050  Biso   1.000  C
  H16      1.0000 0.64890  0.06880  0.53330  Biso   1.000  H
  C38      1.0000 0.69250  0.10210  0.55960  Biso   1.000  C
  C39      1.0000 0.71530  0.13680  0.55540  Biso   1.000  C
  H17      1.0000 0.73420  0.14360  0.57480  Biso   1.000  H
  C40      1.0000 0.70980  0.16150  0.52210  Biso   1.000  C
  C41      1.0000 0.62630  0.10220  0.46830  Biso   1.000  C
  C42      1.0000 0.73660  0.19260  0.51630  Biso   1.000  C
  C43      1.0000 0.75990  0.21970  0.51420  Biso   1.000  C
  C44      1.0000 0.82440  0.25310  0.53110  Biso   1.000  C
  H18      1.0000 0.82740  0.23780  0.55430  Biso   1.000  H
  C45      1.0000 0.85090  0.28440  0.52310  Biso   1.000  C
  C46      1.0000 0.84640  0.30720  0.48830  Biso   1.000  C
  H19      1.0000 0.86410  0.32820  0.48300  Biso   1.000  H
  C47      1.0000 0.81540  0.29870  0.46160  Biso   1.000  C
  H20      1.0000 0.81240  0.31400  0.43840  Biso   1.000  H
  C48      1.0000 0.78890  0.26740  0.46960  Biso   1.000  C
  H21      1.0000 0.76820  0.26170  0.45170  Biso   1.000  H
  C49      1.0000 0.79340  0.24460  0.50430  Biso   1.000  C
  C50      1.0000 0.70040  0.05330  0.62220  Biso   1.000  C
  C51      1.0000 0.69690  0.07610  0.59520  Biso   1.000  C
  O7       1.0000 0.87364  0.87351  0.93921  Biso   1.000  O
  O8       1.0000 0.89440  0.92560  0.97370  Biso   1.000  O
  C52      1.0000 0.81840  0.84860  0.99299  Biso   1.000  C
  H22      1.0000 0.82210  0.83210  0.97070  Biso   1.000  H
  C53      1.0000 0.84127  0.88330  0.99720  Biso   1.000  C
  C54      1.0000 0.83580  0.90799  0.03050  Biso   1.000  C
  H23      1.0000 0.85110  0.93120  0.03330  Biso   1.000  H
  C55      1.0000 0.80750  0.89790  0.05960  Biso   1.000  C
  C56      1.0000 0.78470  0.86320  0.05540  Biso   1.000  C
  H24      1.0000 0.76580  0.85640  0.07480  Biso   1.000  H
  C57      1.0000 0.79020  0.83850  0.02210  Biso   1.000  C
  C58      1.0000 0.87370  0.89780  0.96830  Biso   1.000  C
  C59      1.0000 0.76340  0.80740  0.01630  Biso   1.000  C
  C60      1.0000 0.74010  0.78030  0.01420  Biso   1.000  C
  C61      1.0000 0.67560  0.74690  0.03110  Biso   1.000  C
  H25      1.0000 0.67260  0.76220  0.05430  Biso   1.000  H
  C62      1.0000 0.64910  0.71560  0.02310  Biso   1.000  C
  C63      1.0000 0.65360  0.69280  0.98830  Biso   1.000  C
  H26      1.0000 0.63590  0.67180  0.98300  Biso   1.000  H
  C64      1.0000 0.68460  0.70130  0.96160  Biso   1.000  C
  H27      1.0000 0.68760  0.68600  0.93840  Biso   1.000  H
  C65      1.0000 0.71110  0.73260  0.96960  Biso   1.000  C
  H28      1.0000 0.73180  0.73830  0.95170  Biso   1.000  H
  C66      1.0000 0.70660  0.75540  0.00430  Biso   1.000  C
  C67      1.0000 0.79960  0.94670  0.12220  Biso   1.000  C
  C68      1.0000 0.80310  0.92390  0.09520  Biso   1.000  C
  O9       1.0000 0.06079  0.37364  0.62649  Biso   1.000  O
  O10      1.0000 0.02630  0.39440  0.57440  Biso   1.000  O
  C69      1.0000 0.00701  0.31840  0.65140  Biso   1.000  C
  H29      1.0000 0.02930  0.32210  0.66790  Biso   1.000  H
  C70      1.0000 0.00280  0.34127  0.61670  Biso   1.000  C
  C71      1.0000 0.96950  0.33580  0.59201  Biso   1.000  C
  H30      1.0000 0.96670  0.35110  0.56880  Biso   1.000  H
  C72      1.0000 0.94040  0.30750  0.60210  Biso   1.000  C
  C73      1.0000 0.94460  0.28470  0.63680  Biso   1.000  C
  H31      1.0000 0.92520  0.26580  0.64360  Biso   1.000  H
  C74      1.0000 0.97790  0.29020  0.66150  Biso   1.000  C
  C75      1.0000 0.03170  0.37370  0.60220  Biso   1.000  C
  C76      1.0000 0.98370  0.26340  0.69260  Biso   1.000  C
  C77      1.0000 0.98580  0.24010  0.71970  Biso   1.000  C
  C78      1.0000 0.96890  0.17560  0.75310  Biso   1.000  C
  H32      1.0000 0.94570  0.17260  0.73780  Biso   1.000  H
  C79      1.0000 0.97690  0.14910  0.78440  Biso   1.000  C
  C80      1.0000 0.01170  0.15360  0.80720  Biso   1.000  C
  H33      1.0000 0.01700  0.13590  0.82820  Biso   1.000  H
  C81      1.0000 0.03840  0.18460  0.79870  Biso   1.000  C
  H34      1.0000 0.06160  0.18760  0.81400  Biso   1.000  H
  C82      1.0000 0.03040  0.21110  0.76740  Biso   1.000  C
  H35      1.0000 0.04830  0.23180  0.76170  Biso   1.000  H
  C83      1.0000 0.99570  0.20660  0.74460  Biso   1.000  C
  C84      1.0000 0.87780  0.29960  0.55330  Biso   1.000  C
  C85      1.0000 0.90480  0.30310  0.57610  Biso   1.000  C
  O11      1.0000 0.56079  0.12636  0.37351  Biso   1.000  O
  O12      1.0000 0.52630  0.10560  0.42560  Biso   1.000  O
  C86      1.0000 0.50701  0.18160  0.34860  Biso   1.000  C
  H36      1.0000 0.52930  0.17790  0.33210  Biso   1.000  H
  C87      1.0000 0.50280  0.15873  0.38330  Biso   1.000  C
  C88      1.0000 0.46950  0.16420  0.40799  Biso   1.000  C
  H37      1.0000 0.46670  0.14890  0.43120  Biso   1.000  H
  C89      1.0000 0.44040  0.19250  0.39790  Biso   1.000  C
  C90      1.0000 0.44460  0.21530  0.36320  Biso   1.000  C
  H38      1.0000 0.42520  0.23420  0.35640  Biso   1.000  H
  C91      1.0000 0.47790  0.20980  0.33850  Biso   1.000  C
  C92      1.0000 0.53170  0.12630  0.39780  Biso   1.000  C
  C93      1.0000 0.48370  0.23660  0.30740  Biso   1.000  C
  C94      1.0000 0.48580  0.25990  0.28030  Biso   1.000  C
  C95      1.0000 0.46890  0.32440  0.24690  Biso   1.000  C
  H39      1.0000 0.44570  0.32740  0.26220  Biso   1.000  H
  C96      1.0000 0.47690  0.35090  0.21560  Biso   1.000  C
  C97      1.0000 0.51170  0.34640  0.19280  Biso   1.000  C
  H40      1.0000 0.51700  0.36410  0.17180  Biso   1.000  H
  C98      1.0000 0.53840  0.31540  0.20130  Biso   1.000  C
  H41      1.0000 0.56160  0.31240  0.18600  Biso   1.000  H
  C99      1.0000 0.53040  0.28890  0.23260  Biso   1.000  C
  H42      1.0000 0.54830  0.26820  0.23830  Biso   1.000  H
  C100     1.0000 0.49570  0.29340  0.25540  Biso   1.000  C
  C101     1.0000 0.37780  0.20040  0.44670  Biso   1.000  C
  C102     1.0000 0.40480  0.19690  0.42390  Biso   1.000  C
  O13      1.0000 0.43921  0.62636  0.12649  Biso   1.000  O
  O14      1.0000 0.47370  0.60560  0.07440  Biso   1.000  O
  C103     1.0000 0.49299  0.68160  0.15140  Biso   1.000  C
  H43      1.0000 0.47070  0.67790  0.16790  Biso   1.000  H
  C104     1.0000 0.49720  0.65873  0.11670  Biso   1.000  C
  C105     1.0000 0.53050  0.66420  0.09201  Biso   1.000  C
  H44      1.0000 0.53330  0.64890  0.06880  Biso   1.000  H
  C106     1.0000 0.55960  0.69250  0.10210  Biso   1.000  C
  C107     1.0000 0.55540  0.71530  0.13680  Biso   1.000  C
  H45      1.0000 0.57480  0.73420  0.14360  Biso   1.000  H
  C108     1.0000 0.52210  0.70980  0.16150  Biso   1.000  C
  C109     1.0000 0.46830  0.62630  0.10220  Biso   1.000  C
  C110     1.0000 0.51630  0.73660  0.19260  Biso   1.000  C
  C111     1.0000 0.51420  0.75990  0.21970  Biso   1.000  C
  C112     1.0000 0.53110  0.82440  0.25310  Biso   1.000  C
  H46      1.0000 0.55430  0.82740  0.23780  Biso   1.000  H
  C113     1.0000 0.52310  0.85090  0.28440  Biso   1.000  C
  C114     1.0000 0.48830  0.84640  0.30720  Biso   1.000  C
  H47      1.0000 0.48300  0.86410  0.32820  Biso   1.000  H
  C115     1.0000 0.46160  0.81540  0.29870  Biso   1.000  C
  H48      1.0000 0.43840  0.81240  0.31400  Biso   1.000  H
  C116     1.0000 0.46960  0.78890  0.26740  Biso   1.000  C
  H49      1.0000 0.45170  0.76820  0.26170  Biso   1.000  H
  C117     1.0000 0.50430  0.79340  0.24460  Biso   1.000  C
  C118     1.0000 0.62220  0.70040  0.05330  Biso   1.000  C
  C119     1.0000 0.59520  0.69690  0.07610  Biso   1.000  C
  O15      1.0000 0.93921  0.87364  0.87351  Biso   1.000  O
  O16      1.0000 0.97370  0.89440  0.92560  Biso   1.000  O
  C120     1.0000 0.99299  0.81840  0.84860  Biso   1.000  C
  H50      1.0000 0.97070  0.82210  0.83210  Biso   1.000  H
  C121     1.0000 0.99720  0.84127  0.88330  Biso   1.000  C
  C122     1.0000 0.03050  0.83580  0.90799  Biso   1.000  C
  H51      1.0000 0.03330  0.85110  0.93120  Biso   1.000  H
  C123     1.0000 0.05960  0.80750  0.89790  Biso   1.000  C
  C124     1.0000 0.05540  0.78470  0.86320  Biso   1.000  C
  H52      1.0000 0.07480  0.76580  0.85640  Biso   1.000  H
  C125     1.0000 0.02210  0.79020  0.83850  Biso   1.000  C
  C126     1.0000 0.96830  0.87370  0.89780  Biso   1.000  C
  C127     1.0000 0.01630  0.76340  0.80740  Biso   1.000  C
  C128     1.0000 0.01420  0.74010  0.78030  Biso   1.000  C
  C129     1.0000 0.03110  0.67560  0.74690  Biso   1.000  C
  H53      1.0000 0.05430  0.67260  0.76220  Biso   1.000  H
  C130     1.0000 0.02310  0.64910  0.71560  Biso   1.000  C
  C131     1.0000 0.98830  0.65360  0.69280  Biso   1.000  C
  H54      1.0000 0.98300  0.63590  0.67180  Biso   1.000  H
  C132     1.0000 0.96160  0.68460  0.70130  Biso   1.000  C
  H55      1.0000 0.93840  0.68760  0.68600  Biso   1.000  H
  C133     1.0000 0.96960  0.71110  0.73260  Biso   1.000  C
  H56      1.0000 0.95170  0.73180  0.73830  Biso   1.000  H
  C134     1.0000 0.00430  0.70660  0.75540  Biso   1.000  C
  C135     1.0000 0.12220  0.79960  0.94670  Biso   1.000  C
  C136     1.0000 0.09520  0.80310  0.92390  Biso   1.000  C
  O17      1.0000 0.62649  0.06079  0.37364  Biso   1.000  O
  O18      1.0000 0.57440  0.02630  0.39440  Biso   1.000  O
  C137     1.0000 0.65140  0.00701  0.31840  Biso   1.000  C
  H57      1.0000 0.66790  0.02930  0.32210  Biso   1.000  H
  C138     1.0000 0.61670  0.00280  0.34127  Biso   1.000  C
  C139     1.0000 0.59201  0.96950  0.33580  Biso   1.000  C
  H58      1.0000 0.56880  0.96670  0.35110  Biso   1.000  H
  C140     1.0000 0.60210  0.94040  0.30750  Biso   1.000  C
  C141     1.0000 0.63680  0.94460  0.28470  Biso   1.000  C
  H59      1.0000 0.64360  0.92520  0.26580  Biso   1.000  H
  C142     1.0000 0.66150  0.97790  0.29020  Biso   1.000  C
  C143     1.0000 0.60220  0.03170  0.37370  Biso   1.000  C
  C144     1.0000 0.69260  0.98370  0.26340  Biso   1.000  C
  C145     1.0000 0.71970  0.98580  0.24010  Biso   1.000  C
  C146     1.0000 0.75310  0.96890  0.17560  Biso   1.000  C
  H60      1.0000 0.73780  0.94570  0.17260  Biso   1.000  H
  C147     1.0000 0.78440  0.97690  0.14910  Biso   1.000  C
  C148     1.0000 0.80720  0.01170  0.15360  Biso   1.000  C
  H61      1.0000 0.82820  0.01700  0.13590  Biso   1.000  H
  C149     1.0000 0.79870  0.03840  0.18460  Biso   1.000  C
  H62      1.0000 0.81400  0.06160  0.18760  Biso   1.000  H
  C150     1.0000 0.76740  0.03040  0.21110  Biso   1.000  C
  H63      1.0000 0.76170  0.04830  0.23180  Biso   1.000  H
  C151     1.0000 0.74460  0.99570  0.20660  Biso   1.000  C
  C152     1.0000 0.55330  0.87780  0.29960  Biso   1.000  C
  C153     1.0000 0.57610  0.90480  0.30310  Biso   1.000  C
  O19      1.0000 0.37351  0.56079  0.12636  Biso   1.000  O
  O20      1.0000 0.42560  0.52630  0.10560  Biso   1.000  O
  C154     1.0000 0.34860  0.50701  0.18160  Biso   1.000  C
  H64      1.0000 0.33210  0.52930  0.17790  Biso   1.000  H
  C155     1.0000 0.38330  0.50280  0.15873  Biso   1.000  C
  C156     1.0000 0.40799  0.46950  0.16420  Biso   1.000  C
  H65      1.0000 0.43120  0.46670  0.14890  Biso   1.000  H
  C157     1.0000 0.39790  0.44040  0.19250  Biso   1.000  C
  C158     1.0000 0.36320  0.44460  0.21530  Biso   1.000  C
  H66      1.0000 0.35640  0.42520  0.23420  Biso   1.000  H
  C159     1.0000 0.33850  0.47790  0.20980  Biso   1.000  C
  C160     1.0000 0.39780  0.53170  0.12630  Biso   1.000  C
  C161     1.0000 0.30740  0.48370  0.23660  Biso   1.000  C
  C162     1.0000 0.28030  0.48580  0.25990  Biso   1.000  C
  C163     1.0000 0.24690  0.46890  0.32440  Biso   1.000  C
  H67      1.0000 0.26220  0.44570  0.32740  Biso   1.000  H
  C164     1.0000 0.21560  0.47690  0.35090  Biso   1.000  C
  C165     1.0000 0.19280  0.51170  0.34640  Biso   1.000  C
  H68      1.0000 0.17180  0.51700  0.36410  Biso   1.000  H
  C166     1.0000 0.20130  0.53840  0.31540  Biso   1.000  C
  H69      1.0000 0.18600  0.56160  0.31240  Biso   1.000  H
  C167     1.0000 0.23260  0.53040  0.28890  Biso   1.000  C
  H70      1.0000 0.23830  0.54830  0.26820  Biso   1.000  H
  C168     1.0000 0.25540  0.49570  0.29340  Biso   1.000  C
  C169     1.0000 0.44670  0.37780  0.20040  Biso   1.000  C
  C170     1.0000 0.42390  0.40480  0.19690  Biso   1.000  C
  O21      1.0000 0.12649  0.43921  0.62636  Biso   1.000  O
  O22      1.0000 0.07440  0.47370  0.60560  Biso   1.000  O
  C171     1.0000 0.15140  0.49299  0.68160  Biso   1.000  C
  H71      1.0000 0.16790  0.47070  0.67790  Biso   1.000  H
  C172     1.0000 0.11670  0.49720  0.65873  Biso   1.000  C
  C173     1.0000 0.09201  0.53050  0.66420  Biso   1.000  C
  H72      1.0000 0.06880  0.53330  0.64890  Biso   1.000  H
  C174     1.0000 0.10210  0.55960  0.69250  Biso   1.000  C
  C175     1.0000 0.13680  0.55540  0.71530  Biso   1.000  C
  H73      1.0000 0.14360  0.57480  0.73420  Biso   1.000  H
  C176     1.0000 0.16150  0.52210  0.70980  Biso   1.000  C
  C177     1.0000 0.10220  0.46830  0.62630  Biso   1.000  C
  C178     1.0000 0.19260  0.51630  0.73660  Biso   1.000  C
  C179     1.0000 0.21970  0.51420  0.75990  Biso   1.000  C
  C180     1.0000 0.25310  0.53110  0.82440  Biso   1.000  C
  H74      1.0000 0.23780  0.55430  0.82740  Biso   1.000  H
  C181     1.0000 0.28440  0.52310  0.85090  Biso   1.000  C
  C182     1.0000 0.30720  0.48830  0.84640  Biso   1.000  C
  H75      1.0000 0.32820  0.48300  0.86410  Biso   1.000  H
  C183     1.0000 0.29870  0.46160  0.81540  Biso   1.000  C
  H76      1.0000 0.31400  0.43840  0.81240  Biso   1.000  H
  C184     1.0000 0.26740  0.46960  0.78890  Biso   1.000  C
  H77      1.0000 0.26170  0.45170  0.76820  Biso   1.000  H
  C185     1.0000 0.24460  0.50430  0.79340  Biso   1.000  C
  C186     1.0000 0.05330  0.62220  0.70040  Biso   1.000  C
  C187     1.0000 0.07610  0.59520  0.69690  Biso   1.000  C
  O23      1.0000 0.87351  0.93921  0.87364  Biso   1.000  O
  O24      1.0000 0.92560  0.97370  0.89440  Biso   1.000  O
  C188     1.0000 0.84860  0.99299  0.81840  Biso   1.000  C
  H78      1.0000 0.83210  0.97070  0.82210  Biso   1.000  H
  C189     1.0000 0.88330  0.99720  0.84127  Biso   1.000  C
  C190     1.0000 0.90799  0.03050  0.83580  Biso   1.000  C
  H79      1.0000 0.93120  0.03330  0.85110  Biso   1.000  H
  C191     1.0000 0.89790  0.05960  0.80750  Biso   1.000  C
  C192     1.0000 0.86320  0.05540  0.78470  Biso   1.000  C
  H80      1.0000 0.85640  0.07480  0.76580  Biso   1.000  H
  C193     1.0000 0.83850  0.02210  0.79020  Biso   1.000  C
  C194     1.0000 0.89780  0.96830  0.87370  Biso   1.000  C
  C195     1.0000 0.80740  0.01630  0.76340  Biso   1.000  C
  C196     1.0000 0.78030  0.01420  0.74010  Biso   1.000  C
  C197     1.0000 0.74690  0.03110  0.67560  Biso   1.000  C
  H81      1.0000 0.76220  0.05430  0.67260  Biso   1.000  H
  C198     1.0000 0.71560  0.02310  0.64910  Biso   1.000  C
  C199     1.0000 0.69280  0.98830  0.65360  Biso   1.000  C
  H82      1.0000 0.67180  0.98300  0.63590  Biso   1.000  H
  C200     1.0000 0.70130  0.96160  0.68460  Biso   1.000  C
  H83      1.0000 0.68600  0.93840  0.68760  Biso   1.000  H
  C201     1.0000 0.73260  0.96960  0.71110  Biso   1.000  C
  H84      1.0000 0.73830  0.95170  0.73180  Biso   1.000  H
  C202     1.0000 0.75540  0.00430  0.70660  Biso   1.000  C
  C203     1.0000 0.94670  0.12220  0.79960  Biso   1.000  C
  C204     1.0000 0.92390  0.09520  0.80310  Biso   1.000  C
  O25      1.0000 0.37649  0.62364  0.18921  Biso   1.000  O
  O26      1.0000 0.32440  0.64440  0.22370  Biso   1.000  O
  C205     1.0000 0.40140  0.56840  0.24299  Biso   1.000  C
  H85      1.0000 0.41790  0.57210  0.22070  Biso   1.000  H
  C206     1.0000 0.36670  0.59127  0.24720  Biso   1.000  C
  C207     1.0000 0.34201  0.58580  0.28050  Biso   1.000  C
  H86      1.0000 0.31880  0.60110  0.28330  Biso   1.000  H
  C208     1.0000 0.35210  0.55750  0.30960  Biso   1.000  C
  C209     1.0000 0.38680  0.53470  0.30540  Biso   1.000  C
  H87      1.0000 0.39360  0.51580  0.32480  Biso   1.000  H
  C210     1.0000 0.41150  0.54020  0.27210  Biso   1.000  C
  C211     1.0000 0.35220  0.62370  0.21830  Biso   1.000  C
  C212     1.0000 0.44260  0.51340  0.26630  Biso   1.000  C
  C213     1.0000 0.46970  0.49010  0.26420  Biso   1.000  C
  C214     1.0000 0.50310  0.42560  0.28110  Biso   1.000  C
  H88      1.0000 0.48780  0.42260  0.30430  Biso   1.000  H
  C215     1.0000 0.53440  0.39910  0.27310  Biso   1.000  C
  C216     1.0000 0.55720  0.40360  0.23830  Biso   1.000  C
  H89      1.0000 0.57820  0.38590  0.23300  Biso   1.000  H
  C217     1.0000 0.54870  0.43460  0.21160  Biso   1.000  C
  H90      1.0000 0.56400  0.43760  0.18840  Biso   1.000  H
  C218     1.0000 0.51740  0.46110  0.21960  Biso   1.000  C
  H91      1.0000 0.51170  0.48180  0.20170  Biso   1.000  H
  C219     1.0000 0.49460  0.45660  0.25430  Biso   1.000  C
  C220     1.0000 0.30330  0.54960  0.37220  Biso   1.000  C
  C221     1.0000 0.32610  0.55310  0.34520  Biso   1.000  C
  O27      1.0000 0.12351  0.37636  0.68921  Biso   1.000  O
  O28      1.0000 0.17560  0.35560  0.72370  Biso   1.000  O
  C222     1.0000 0.09860  0.43160  0.74299  Biso   1.000  C
  H92      1.0000 0.08210  0.42790  0.72070  Biso   1.000  H
  C223     1.0000 0.13330  0.40873  0.74720  Biso   1.000  C
  C224     1.0000 0.15799  0.41420  0.78050  Biso   1.000  C
  H93      1.0000 0.18120  0.39890  0.78330  Biso   1.000  H
  C225     1.0000 0.14790  0.44250  0.80960  Biso   1.000  C
  C226     1.0000 0.11320  0.46530  0.80540  Biso   1.000  C
  H94      1.0000 0.10640  0.48420  0.82480  Biso   1.000  H
  C227     1.0000 0.08850  0.45980  0.77210  Biso   1.000  C
  C228     1.0000 0.14780  0.37630  0.71830  Biso   1.000  C
  C229     1.0000 0.05740  0.48660  0.76630  Biso   1.000  C
  C230     1.0000 0.03030  0.50990  0.76420  Biso   1.000  C
  C231     1.0000 0.99690  0.57440  0.78110  Biso   1.000  C
  H95      1.0000 0.01220  0.57740  0.80430  Biso   1.000  H
  C232     1.0000 0.96560  0.60090  0.77310  Biso   1.000  C
  C233     1.0000 0.94280  0.59640  0.73830  Biso   1.000  C
  H96      1.0000 0.92180  0.61410  0.73300  Biso   1.000  H
  C234     1.0000 0.95130  0.56540  0.71160  Biso   1.000  C
  H97      1.0000 0.93600  0.56240  0.68840  Biso   1.000  H
  C235     1.0000 0.98260  0.53890  0.71960  Biso   1.000  C
  H98      1.0000 0.98830  0.51820  0.70170  Biso   1.000  H
  C236     1.0000 0.00540  0.54340  0.75430  Biso   1.000  C
  C237     1.0000 0.19670  0.45040  0.87220  Biso   1.000  C
  C238     1.0000 0.17390  0.44690  0.84520  Biso   1.000  C
  O29      1.0000 0.87649  0.87636  0.81079  Biso   1.000  O
  O30      1.0000 0.82440  0.85560  0.77630  Biso   1.000  O
  C239     1.0000 0.90140  0.93160  0.75701  Biso   1.000  C
  H99      1.0000 0.91790  0.92790  0.77930  Biso   1.000  H
  C240     1.0000 0.86670  0.90873  0.75280  Biso   1.000  C
  C241     1.0000 0.84201  0.91420  0.71950  Biso   1.000  C
  H100     1.0000 0.81880  0.89890  0.71670  Biso   1.000  H
  C242     1.0000 0.85210  0.94250  0.69040  Biso   1.000  C
  C243     1.0000 0.88680  0.96530  0.69460  Biso   1.000  C
  H101     1.0000 0.89360  0.98420  0.67520  Biso   1.000  H
  C244     1.0000 0.91150  0.95980  0.72790  Biso   1.000  C
  C245     1.0000 0.85220  0.87630  0.78170  Biso   1.000  C
  C246     1.0000 0.94260  0.98660  0.73370  Biso   1.000  C
  C247     1.0000 0.96970  0.00990  0.73580  Biso   1.000  C
  C248     1.0000 0.00310  0.07440  0.71890  Biso   1.000  C
  H102     1.0000 0.98780  0.07740  0.69570  Biso   1.000  H
  C249     1.0000 0.03440  0.10090  0.72690  Biso   1.000  C
  C250     1.0000 0.05720  0.09640  0.76170  Biso   1.000  C
  H103     1.0000 0.07820  0.11410  0.76700  Biso   1.000  H
  C251     1.0000 0.04870  0.06540  0.78840  Biso   1.000  C
  H104     1.0000 0.06400  0.06240  0.81160  Biso   1.000  H
  C252     1.0000 0.01740  0.03890  0.78040  Biso   1.000  C
  H105     1.0000 0.01170  0.01820  0.79830  Biso   1.000  H
  C253     1.0000 0.99460  0.04340  0.74570  Biso   1.000  C
  C254     1.0000 0.80330  0.95040  0.62780  Biso   1.000  C
  C255     1.0000 0.82610  0.94690  0.65480  Biso   1.000  C
  O31      1.0000 0.62351  0.12364  0.31079  Biso   1.000  O
  O32      1.0000 0.67560  0.14440  0.27630  Biso   1.000  O
  C256     1.0000 0.59860  0.06840  0.25701  Biso   1.000  C
  H106     1.0000 0.58210  0.07210  0.27930  Biso   1.000  H
  C257     1.0000 0.63330  0.09127  0.25280  Biso   1.000  C
  C258     1.0000 0.65799  0.08580  0.21950  Biso   1.000  C
  H107     1.0000 0.68120  0.10110  0.21670  Biso   1.000  H
  C259     1.0000 0.64790  0.05750  0.19040  Biso   1.000  C
  C260     1.0000 0.61320  0.03470  0.19460  Biso   1.000  C
  H108     1.0000 0.60640  0.01580  0.17520  Biso   1.000  H
  C261     1.0000 0.58850  0.04020  0.22790  Biso   1.000  C
  C262     1.0000 0.64780  0.12370  0.28170  Biso   1.000  C
  C263     1.0000 0.55740  0.01340  0.23370  Biso   1.000  C
  C264     1.0000 0.53030  0.99010  0.23580  Biso   1.000  C
  C265     1.0000 0.49690  0.92560  0.21890  Biso   1.000  C
  H109     1.0000 0.51220  0.92260  0.19570  Biso   1.000  H
  C266     1.0000 0.46560  0.89910  0.22690  Biso   1.000  C
  C267     1.0000 0.44280  0.90360  0.26170  Biso   1.000  C
  H110     1.0000 0.42180  0.88590  0.26700  Biso   1.000  H
  C268     1.0000 0.45130  0.93460  0.28840  Biso   1.000  C
  H111     1.0000 0.43600  0.93760  0.31160  Biso   1.000  H
  C269     1.0000 0.48260  0.96110  0.28040  Biso   1.000  C
  H112     1.0000 0.48830  0.98180  0.29830  Biso   1.000  H
  C270     1.0000 0.50540  0.95660  0.24570  Biso   1.000  C
  C271     1.0000 0.69670  0.04960  0.12780  Biso   1.000  C
  C272     1.0000 0.67390  0.05310  0.15480  Biso   1.000  C
  O33      1.0000 0.12364  0.31079  0.62351  Biso   1.000  O
  O34      1.0000 0.14440  0.27630  0.67560  Biso   1.000  O
  C273     1.0000 0.06840  0.25701  0.59860  Biso   1.000  C
  H113     1.0000 0.07210  0.27930  0.58210  Biso   1.000  H
  C274     1.0000 0.09127  0.25280  0.63330  Biso   1.000  C
  C275     1.0000 0.08580  0.21950  0.65799  Biso   1.000  C
  H114     1.0000 0.10110  0.21670  0.68120  Biso   1.000  H
  C276     1.0000 0.05750  0.19040  0.64790  Biso   1.000  C
  C277     1.0000 0.03470  0.19460  0.61320  Biso   1.000  C
  H115     1.0000 0.01580  0.17520  0.60640  Biso   1.000  H
  C278     1.0000 0.04020  0.22790  0.58850  Biso   1.000  C
  C279     1.0000 0.12370  0.28170  0.64780  Biso   1.000  C
  C280     1.0000 0.01340  0.23370  0.55740  Biso   1.000  C
  C281     1.0000 0.99010  0.23580  0.53030  Biso   1.000  C
  C282     1.0000 0.92560  0.21890  0.49690  Biso   1.000  C
  H116     1.0000 0.92260  0.19570  0.51220  Biso   1.000  H
  C283     1.0000 0.89910  0.22690  0.46560  Biso   1.000  C
  C284     1.0000 0.90360  0.26170  0.44280  Biso   1.000  C
  H117     1.0000 0.88590  0.26700  0.42180  Biso   1.000  H
  C285     1.0000 0.93460  0.28840  0.45130  Biso   1.000  C
  H118     1.0000 0.93760  0.31160  0.43600  Biso   1.000  H
  C286     1.0000 0.96110  0.28040  0.48260  Biso   1.000  C
  H119     1.0000 0.98180  0.29830  0.48830  Biso   1.000  H
  C287     1.0000 0.95660  0.24570  0.50540  Biso   1.000  C
  C288     1.0000 0.04960  0.12780  0.69670  Biso   1.000  C
  C289     1.0000 0.05310  0.15480  0.67390  Biso   1.000  C
  O35      1.0000 0.87636  0.81079  0.87649  Biso   1.000  O
  O36      1.0000 0.85560  0.77630  0.82440  Biso   1.000  O
  C290     1.0000 0.93160  0.75701  0.90140  Biso   1.000  C
  H120     1.0000 0.92790  0.77930  0.91790  Biso   1.000  H
  C291     1.0000 0.90873  0.75280  0.86670  Biso   1.000  C
  C292     1.0000 0.91420  0.71950  0.84201  Biso   1.000  C
  H121     1.0000 0.89890  0.71670  0.81880  Biso   1.000  H
  C293     1.0000 0.94250  0.69040  0.85210  Biso   1.000  C
  C294     1.0000 0.96530  0.69460  0.88680  Biso   1.000  C
  H122     1.0000 0.98420  0.67520  0.89360  Biso   1.000  H
  C295     1.0000 0.95980  0.72790  0.91150  Biso   1.000  C
  C296     1.0000 0.87630  0.78170  0.85220  Biso   1.000  C
  C297     1.0000 0.98660  0.73370  0.94260  Biso   1.000  C
  C298     1.0000 0.00990  0.73580  0.96970  Biso   1.000  C
  C299     1.0000 0.07440  0.71890  0.00310  Biso   1.000  C
  H123     1.0000 0.07740  0.69570  0.98780  Biso   1.000  H
  C300     1.0000 0.10090  0.72690  0.03440  Biso   1.000  C
  C301     1.0000 0.09640  0.76170  0.05720  Biso   1.000  C
  H124     1.0000 0.11410  0.76700  0.07820  Biso   1.000  H
  C302     1.0000 0.06540  0.78840  0.04870  Biso   1.000  C
  H125     1.0000 0.06240  0.81160  0.06400  Biso   1.000  H
  C303     1.0000 0.03890  0.78040  0.01740  Biso   1.000  C
  H126     1.0000 0.01820  0.79830  0.01170  Biso   1.000  H
  C304     1.0000 0.04340  0.74570  0.99460  Biso   1.000  C
  C305     1.0000 0.95040  0.62780  0.80330  Biso   1.000  C
  C306     1.0000 0.94690  0.65480  0.82610  Biso   1.000  C
  O37      1.0000 0.37636  0.68921  0.12351  Biso   1.000  O
  O38      1.0000 0.35560  0.72370  0.17560  Biso   1.000  O
  C307     1.0000 0.43160  0.74299  0.09860  Biso   1.000  C
  H127     1.0000 0.42790  0.72070  0.08210  Biso   1.000  H
  C308     1.0000 0.40873  0.74720  0.13330  Biso   1.000  C
  C309     1.0000 0.41420  0.78050  0.15799  Biso   1.000  C
  H128     1.0000 0.39890  0.78330  0.18120  Biso   1.000  H
  C310     1.0000 0.44250  0.80960  0.14790  Biso   1.000  C
  C311     1.0000 0.46530  0.80540  0.11320  Biso   1.000  C
  H129     1.0000 0.48420  0.82480  0.10640  Biso   1.000  H
  C312     1.0000 0.45980  0.77210  0.08850  Biso   1.000  C
  C313     1.0000 0.37630  0.71830  0.14780  Biso   1.000  C
  C314     1.0000 0.48660  0.76630  0.05740  Biso   1.000  C
  C315     1.0000 0.50990  0.76420  0.03030  Biso   1.000  C
  C316     1.0000 0.57440  0.78110  0.99690  Biso   1.000  C
  H130     1.0000 0.57740  0.80430  0.01220  Biso   1.000  H
  C317     1.0000 0.60090  0.77310  0.96560  Biso   1.000  C
  C318     1.0000 0.59640  0.73830  0.94280  Biso   1.000  C
  H131     1.0000 0.61410  0.73300  0.92180  Biso   1.000  H
  C319     1.0000 0.56540  0.71160  0.95130  Biso   1.000  C
  H132     1.0000 0.56240  0.68840  0.93600  Biso   1.000  H
  C320     1.0000 0.53890  0.71960  0.98260  Biso   1.000  C
  H133     1.0000 0.51820  0.70170  0.98830  Biso   1.000  H
  C321     1.0000 0.54340  0.75430  0.00540  Biso   1.000  C
  C322     1.0000 0.45040  0.87220  0.19670  Biso   1.000  C
  C323     1.0000 0.44690  0.84520  0.17390  Biso   1.000  C
  O39      1.0000 0.62364  0.18921  0.37649  Biso   1.000  O
  O40      1.0000 0.64440  0.22370  0.32440  Biso   1.000  O
  C324     1.0000 0.56840  0.24299  0.40140  Biso   1.000  C
  H134     1.0000 0.57210  0.22070  0.41790  Biso   1.000  H
  C325     1.0000 0.59127  0.24720  0.36670  Biso   1.000  C
  C326     1.0000 0.58580  0.28050  0.34201  Biso   1.000  C
  H135     1.0000 0.60110  0.28330  0.31880  Biso   1.000  H
  C327     1.0000 0.55750  0.30960  0.35210  Biso   1.000  C
  C328     1.0000 0.53470  0.30540  0.38680  Biso   1.000  C
  H136     1.0000 0.51580  0.32480  0.39360  Biso   1.000  H
  C329     1.0000 0.54020  0.27210  0.41150  Biso   1.000  C
  C330     1.0000 0.62370  0.21830  0.35220  Biso   1.000  C
  C331     1.0000 0.51340  0.26630  0.44260  Biso   1.000  C
  C332     1.0000 0.49010  0.26420  0.46970  Biso   1.000  C
  C333     1.0000 0.42560  0.28110  0.50310  Biso   1.000  C
  H137     1.0000 0.42260  0.30430  0.48780  Biso   1.000  H
  C334     1.0000 0.39910  0.27310  0.53440  Biso   1.000  C
  C335     1.0000 0.40360  0.23830  0.55720  Biso   1.000  C
  H138     1.0000 0.38590  0.23300  0.57820  Biso   1.000  H
  C336     1.0000 0.43460  0.21160  0.54870  Biso   1.000  C
  H139     1.0000 0.43760  0.18840  0.56400  Biso   1.000  H
  C337     1.0000 0.46110  0.21960  0.51740  Biso   1.000  C
  H140     1.0000 0.48180  0.20170  0.51170  Biso   1.000  H
  C338     1.0000 0.45660  0.25430  0.49460  Biso   1.000  C
  C339     1.0000 0.54960  0.37220  0.30330  Biso   1.000  C
  C340     1.0000 0.55310  0.34520  0.32610  Biso   1.000  C
  O41      1.0000 0.81079  0.87649  0.87636  Biso   1.000  O
  O42      1.0000 0.77630  0.82440  0.85560  Biso   1.000  O
  C341     1.0000 0.75701  0.90140  0.93160  Biso   1.000  C
  H141     1.0000 0.77930  0.91790  0.92790  Biso   1.000  H
  C342     1.0000 0.75280  0.86670  0.90873  Biso   1.000  C
  C343     1.0000 0.71950  0.84201  0.91420  Biso   1.000  C
  H142     1.0000 0.71670  0.81880  0.89890  Biso   1.000  H
  C344     1.0000 0.69040  0.85210  0.94250  Biso   1.000  C
  C345     1.0000 0.69460  0.88680  0.96530  Biso   1.000  C
  H143     1.0000 0.67520  0.89360  0.98420  Biso   1.000  H
  C346     1.0000 0.72790  0.91150  0.95980  Biso   1.000  C
  C347     1.0000 0.78170  0.85220  0.87630  Biso   1.000  C
  C348     1.0000 0.73370  0.94260  0.98660  Biso   1.000  C
  C349     1.0000 0.73580  0.96970  0.00990  Biso   1.000  C
  C350     1.0000 0.71890  0.00310  0.07440  Biso   1.000  C
  H144     1.0000 0.69570  0.98780  0.07740  Biso   1.000  H
  C351     1.0000 0.72690  0.03440  0.10090  Biso   1.000  C
  C352     1.0000 0.76170  0.05720  0.09640  Biso   1.000  C
  H145     1.0000 0.76700  0.07820  0.11410  Biso   1.000  H
  C353     1.0000 0.78840  0.04870  0.06540  Biso   1.000  C
  H146     1.0000 0.81160  0.06400  0.06240  Biso   1.000  H
  C354     1.0000 0.78040  0.01740  0.03890  Biso   1.000  C
  H147     1.0000 0.79830  0.01170  0.01820  Biso   1.000  H
  C355     1.0000 0.74570  0.99460  0.04340  Biso   1.000  C
  C356     1.0000 0.62780  0.80330  0.95040  Biso   1.000  C
  C357     1.0000 0.65480  0.82610  0.94690  Biso   1.000  C
  O43      1.0000 0.31079  0.62351  0.12364  Biso   1.000  O
  O44      1.0000 0.27630  0.67560  0.14440  Biso   1.000  O
  C358     1.0000 0.25701  0.59860  0.06840  Biso   1.000  C
  H148     1.0000 0.27930  0.58210  0.07210  Biso   1.000  H
  C359     1.0000 0.25280  0.63330  0.09127  Biso   1.000  C
  C360     1.0000 0.21950  0.65799  0.08580  Biso   1.000  C
  H149     1.0000 0.21670  0.68120  0.10110  Biso   1.000  H
  C361     1.0000 0.19040  0.64790  0.05750  Biso   1.000  C
  C362     1.0000 0.19460  0.61320  0.03470  Biso   1.000  C
  H150     1.0000 0.17520  0.60640  0.01580  Biso   1.000  H
  C363     1.0000 0.22790  0.58850  0.04020  Biso   1.000  C
  C364     1.0000 0.28170  0.64780  0.12370  Biso   1.000  C
  C365     1.0000 0.23370  0.55740  0.01340  Biso   1.000  C
  C366     1.0000 0.23580  0.53030  0.99010  Biso   1.000  C
  C367     1.0000 0.21890  0.49690  0.92560  Biso   1.000  C
  H151     1.0000 0.19570  0.51220  0.92260  Biso   1.000  H
  C368     1.0000 0.22690  0.46560  0.89910  Biso   1.000  C
  C369     1.0000 0.26170  0.44280  0.90360  Biso   1.000  C
  H152     1.0000 0.26700  0.42180  0.88590  Biso   1.000  H
  C370     1.0000 0.28840  0.45130  0.93460  Biso   1.000  C
  H153     1.0000 0.31160  0.43600  0.93760  Biso   1.000  H
  C371     1.0000 0.28040  0.48260  0.96110  Biso   1.000  C
  H154     1.0000 0.29830  0.48830  0.98180  Biso   1.000  H
  C372     1.0000 0.24570  0.50540  0.95660  Biso   1.000  C
  C373     1.0000 0.12780  0.69670  0.04960  Biso   1.000  C
  C374     1.0000 0.15480  0.67390  0.05310  Biso   1.000  C
  O45      1.0000 0.18921  0.37649  0.62364  Biso   1.000  O
  O46      1.0000 0.22370  0.32440  0.64440  Biso   1.000  O
  C375     1.0000 0.24299  0.40140  0.56840  Biso   1.000  C
  H155     1.0000 0.22070  0.41790  0.57210  Biso   1.000  H
  C376     1.0000 0.24720  0.36670  0.59127  Biso   1.000  C
  C377     1.0000 0.28050  0.34201  0.58580  Biso   1.000  C
  H156     1.0000 0.28330  0.31880  0.60110  Biso   1.000  H
  C378     1.0000 0.30960  0.35210  0.55750  Biso   1.000  C
  C379     1.0000 0.30540  0.38680  0.53470  Biso   1.000  C
  H157     1.0000 0.32480  0.39360  0.51580  Biso   1.000  H
  C380     1.0000 0.27210  0.41150  0.54020  Biso   1.000  C
  C381     1.0000 0.21830  0.35220  0.62370  Biso   1.000  C
  C382     1.0000 0.26630  0.44260  0.51340  Biso   1.000  C
  C383     1.0000 0.26420  0.46970  0.49010  Biso   1.000  C
  C384     1.0000 0.28110  0.50310  0.42560  Biso   1.000  C
  H158     1.0000 0.30430  0.48780  0.42260  Biso   1.000  H
  C385     1.0000 0.27310  0.53440  0.39910  Biso   1.000  C
  C386     1.0000 0.23830  0.55720  0.40360  Biso   1.000  C
  H159     1.0000 0.23300  0.57820  0.38590  Biso   1.000  H
  C387     1.0000 0.21160  0.54870  0.43460  Biso   1.000  C
  H160     1.0000 0.18840  0.56400  0.43760  Biso   1.000  H
  C388     1.0000 0.21960  0.51740  0.46110  Biso   1.000  C
  H161     1.0000 0.20170  0.51170  0.48180  Biso   1.000  H
  C389     1.0000 0.25430  0.49460  0.45660  Biso   1.000  C
  C390     1.0000 0.37220  0.30330  0.54960  Biso   1.000  C
  C391     1.0000 0.34520  0.32610  0.55310  Biso   1.000  C
  O47      1.0000 0.68921  0.12351  0.37636  Biso   1.000  O
  O48      1.0000 0.72370  0.17560  0.35560  Biso   1.000  O
  C392     1.0000 0.74299  0.09860  0.43160  Biso   1.000  C
  H162     1.0000 0.72070  0.08210  0.42790  Biso   1.000  H
  C393     1.0000 0.74720  0.13330  0.40873  Biso   1.000  C
  C394     1.0000 0.78050  0.15799  0.41420  Biso   1.000  C
  H163     1.0000 0.78330  0.18120  0.39890  Biso   1.000  H
  C395     1.0000 0.80960  0.14790  0.44250  Biso   1.000  C
  C396     1.0000 0.80540  0.11320  0.46530  Biso   1.000  C
  H164     1.0000 0.82480  0.10640  0.48420  Biso   1.000  H
  C397     1.0000 0.77210  0.08850  0.45980  Biso   1.000  C
  C398     1.0000 0.71830  0.14780  0.37630  Biso   1.000  C
  C399     1.0000 0.76630  0.05740  0.48660  Biso   1.000  C
  C400     1.0000 0.76420  0.03030  0.50990  Biso   1.000  C
  C401     1.0000 0.78110  0.99690  0.57440  Biso   1.000  C
  H165     1.0000 0.80430  0.01220  0.57740  Biso   1.000  H
  C402     1.0000 0.77310  0.96560  0.60090  Biso   1.000  C
  C403     1.0000 0.73830  0.94280  0.59640  Biso   1.000  C
  H166     1.0000 0.73300  0.92180  0.61410  Biso   1.000  H
  C404     1.0000 0.71160  0.95130  0.56540  Biso   1.000  C
  H167     1.0000 0.68840  0.93600  0.56240  Biso   1.000  H
  C405     1.0000 0.71960  0.98260  0.53890  Biso   1.000  C
  H168     1.0000 0.70170  0.98830  0.51820  Biso   1.000  H
  C406     1.0000 0.75430  0.00540  0.54340  Biso   1.000  C
  C407     1.0000 0.87220  0.19670  0.45040  Biso   1.000  C
  C408     1.0000 0.84520  0.17390  0.44690  Biso   1.000  C
  Zn1      1.0000 0.37500  0.62500  0.12500  Biso   1.000  Zn
  Zn2      1.0000 0.12500  0.37500  0.62500  Biso   1.000  Zn
  Zn3      1.0000 0.62500  0.12500  0.37500  Biso   1.000  Zn
  Zn4      1.0000 0.87500  0.87500  0.87500  Biso   1.000  Zn
  Zn5      1.0000 0.43692  0.56308  0.06308  Biso   1.000  Zn
  Zn6      1.0000 0.06308  0.43692  0.56308  Biso   1.000  Zn
  Zn7      1.0000 0.56308  0.06308  0.43692  Biso   1.000  Zn
  Zn8      1.0000 0.93692  0.93692  0.93692  Biso   1.000  Zn
  Zn9      1.0000 0.31308  0.68692  0.18692  Biso   1.000  Zn
  Zn10     1.0000 0.18692  0.31308  0.68692  Biso   1.000  Zn
  Zn11     1.0000 0.81308  0.81308  0.81308  Biso   1.000  Zn
  Zn12     1.0000 0.68692  0.18692  0.31308  Biso   1.000  Zn
