data_image0
_cell_length_a       22.739
_cell_length_b       16.038
_cell_length_c       9.7046
_cell_angle_alpha    90
_cell_angle_beta     94
_cell_angle_gamma    90

_symmetry_space_group_name_H-M    "P 1"
_symmetry_int_tables_number       1

loop_
  _symmetry_equiv_pos_as_xyz
  'x, y, z'

loop_
  _atom_site_label
  _atom_site_occupancy
  _atom_site_fract_x
  _atom_site_fract_y
  _atom_site_fract_z
  _atom_site_thermal_displace_type
  _atom_site_B_iso_or_equiv
  _atom_site_type_symbol
  S1       1.0000 0.85887  0.41436  0.51029  Biso   1.000  S
  S2       1.0000 0.83504  0.52186  0.60011  Biso   1.000  S
  C1       1.0000 0.94271  0.17428  0.95320  Biso   1.000  C
  C2       1.0000 0.91742  0.23548  0.84820  Biso   1.000  C
  C3       1.0000 0.92404  0.22312  0.70840  Biso   1.000  C
  H1       1.0000 0.94230  0.17310  0.68060  Biso   1.000  H
  C4       1.0000 0.87936  0.34745  0.65190  Biso   1.000  C
  C5       1.0000 0.86874  0.36390  0.78820  Biso   1.000  C
  H2       1.0000 0.84830  0.41280  0.81260  Biso   1.000  H
  C6       1.0000 0.88878  0.30700  0.88720  Biso   1.000  C
  H3       1.0000 0.88290  0.31680  0.98180  Biso   1.000  H
  C7       1.0000 0.75979  0.50632  0.63660  Biso   1.000  C
  C8       1.0000 0.67161  0.43460  0.62070  Biso   1.000  C
  H4       1.0000 0.64790  0.39020  0.58350  Biso   1.000  H
  C9       1.0000 0.64728  0.49124  0.70780  Biso   1.000  C
  C10      1.0000 0.68170  0.55748  0.75590  Biso   1.000  C
  H5       1.0000 0.66590  0.59730  0.81560  Biso   1.000  H
  C11      1.0000 0.73833  0.56642  0.71850  Biso   1.000  C
  H6       1.0000 0.76180  0.61290  0.74850  Biso   1.000  H
  C12      1.0000 0.58634  0.47708  0.75340  Biso   1.000  C
  N1       1.0000 0.90603  0.27815  0.61140  Biso   1.000  N
  N2       1.0000 0.72850  0.44048  0.58650  Biso   1.000  N
  O1       1.0000 0.96720  0.11114  0.90780  Biso   1.000  O
  O2       1.0000 0.93914  0.19244  0.07800  Biso   1.000  O
  O3       1.0000 0.55214  0.43310  0.67117  Biso   1.000  O
  O4       1.0000 0.57422  0.50641  0.86684  Biso   1.000  O
  S3       1.0000 0.35887  0.91436  0.51029  Biso   1.000  S
  S4       1.0000 0.33504  0.02186  0.60011  Biso   1.000  S
  C13      1.0000 0.44271  0.67428  0.95320  Biso   1.000  C
  C14      1.0000 0.41742  0.73548  0.84820  Biso   1.000  C
  C15      1.0000 0.42404  0.72312  0.70840  Biso   1.000  C
  H7       1.0000 0.44230  0.67310  0.68060  Biso   1.000  H
  C16      1.0000 0.37936  0.84745  0.65190  Biso   1.000  C
  C17      1.0000 0.36874  0.86390  0.78820  Biso   1.000  C
  H8       1.0000 0.34830  0.91280  0.81260  Biso   1.000  H
  C18      1.0000 0.38878  0.80700  0.88720  Biso   1.000  C
  H9       1.0000 0.38290  0.81680  0.98180  Biso   1.000  H
  C19      1.0000 0.25979  0.00632  0.63660  Biso   1.000  C
  C20      1.0000 0.17161  0.93460  0.62070  Biso   1.000  C
  H10      1.0000 0.14790  0.89020  0.58350  Biso   1.000  H
  C21      1.0000 0.14728  0.99124  0.70780  Biso   1.000  C
  C22      1.0000 0.18170  0.05748  0.75590  Biso   1.000  C
  H11      1.0000 0.16590  0.09730  0.81560  Biso   1.000  H
  C23      1.0000 0.23833  0.06642  0.71850  Biso   1.000  C
  H12      1.0000 0.26180  0.11290  0.74850  Biso   1.000  H
  C24      1.0000 0.08634  0.97708  0.75340  Biso   1.000  C
  N3       1.0000 0.40603  0.77815  0.61140  Biso   1.000  N
  N4       1.0000 0.22850  0.94048  0.58650  Biso   1.000  N
  O5       1.0000 0.46720  0.61114  0.90780  Biso   1.000  O
  O6       1.0000 0.43914  0.69244  0.07800  Biso   1.000  O
  O7       1.0000 0.05214  0.93310  0.67117  Biso   1.000  O
  O8       1.0000 0.07422  0.00641  0.86684  Biso   1.000  O
  S5       1.0000 0.14113  0.41436  0.98971  Biso   1.000  S
  S6       1.0000 0.16496  0.52186  0.89989  Biso   1.000  S
  C25      1.0000 0.05729  0.17428  0.54680  Biso   1.000  C
  C26      1.0000 0.08258  0.23548  0.65180  Biso   1.000  C
  C27      1.0000 0.07596  0.22312  0.79160  Biso   1.000  C
  H13      1.0000 0.05770  0.17310  0.81940  Biso   1.000  H
  C28      1.0000 0.12064  0.34745  0.84810  Biso   1.000  C
  C29      1.0000 0.13126  0.36390  0.71180  Biso   1.000  C
  H14      1.0000 0.15170  0.41280  0.68740  Biso   1.000  H
  C30      1.0000 0.11122  0.30700  0.61280  Biso   1.000  C
  H15      1.0000 0.11710  0.31680  0.51820  Biso   1.000  H
  C31      1.0000 0.24021  0.50632  0.86340  Biso   1.000  C
  C32      1.0000 0.32839  0.43460  0.87930  Biso   1.000  C
  H16      1.0000 0.35210  0.39020  0.91650  Biso   1.000  H
  C33      1.0000 0.35272  0.49124  0.79220  Biso   1.000  C
  C34      1.0000 0.31830  0.55748  0.74410  Biso   1.000  C
  H17      1.0000 0.33410  0.59730  0.68440  Biso   1.000  H
  C35      1.0000 0.26167  0.56642  0.78150  Biso   1.000  C
  H18      1.0000 0.23820  0.61290  0.75150  Biso   1.000  H
  C36      1.0000 0.41366  0.47708  0.74660  Biso   1.000  C
  N5       1.0000 0.09397  0.27815  0.88860  Biso   1.000  N
  N6       1.0000 0.27150  0.44048  0.91350  Biso   1.000  N
  O9       1.0000 0.03280  0.11114  0.59220  Biso   1.000  O
  O10      1.0000 0.06086  0.19244  0.42200  Biso   1.000  O
  O11      1.0000 0.44786  0.43310  0.82883  Biso   1.000  O
  O12      1.0000 0.42578  0.50641  0.63316  Biso   1.000  O
  S7       1.0000 0.64113  0.91436  0.98971  Biso   1.000  S
  S8       1.0000 0.66496  0.02186  0.89989  Biso   1.000  S
  C37      1.0000 0.55729  0.67428  0.54680  Biso   1.000  C
  C38      1.0000 0.58258  0.73548  0.65180  Biso   1.000  C
  C39      1.0000 0.57596  0.72312  0.79160  Biso   1.000  C
  H19      1.0000 0.55770  0.67310  0.81940  Biso   1.000  H
  C40      1.0000 0.62064  0.84745  0.84810  Biso   1.000  C
  C41      1.0000 0.63126  0.86390  0.71180  Biso   1.000  C
  H20      1.0000 0.65170  0.91280  0.68740  Biso   1.000  H
  C42      1.0000 0.61122  0.80700  0.61280  Biso   1.000  C
  H21      1.0000 0.61710  0.81680  0.51820  Biso   1.000  H
  C43      1.0000 0.74021  0.00632  0.86340  Biso   1.000  C
  C44      1.0000 0.82839  0.93460  0.87930  Biso   1.000  C
  H22      1.0000 0.85210  0.89020  0.91650  Biso   1.000  H
  C45      1.0000 0.85272  0.99124  0.79220  Biso   1.000  C
  C46      1.0000 0.81830  0.05748  0.74410  Biso   1.000  C
  H23      1.0000 0.83410  0.09730  0.68440  Biso   1.000  H
  C47      1.0000 0.76167  0.06642  0.78150  Biso   1.000  C
  H24      1.0000 0.73820  0.11290  0.75150  Biso   1.000  H
  C48      1.0000 0.91366  0.97708  0.74660  Biso   1.000  C
  N7       1.0000 0.59397  0.77815  0.88860  Biso   1.000  N
  N8       1.0000 0.77150  0.94048  0.91350  Biso   1.000  N
  O13      1.0000 0.53280  0.61114  0.59220  Biso   1.000  O
  O14      1.0000 0.56086  0.69244  0.42200  Biso   1.000  O
  O15      1.0000 0.94786  0.93310  0.82883  Biso   1.000  O
  O16      1.0000 0.92578  0.00641  0.63316  Biso   1.000  O
  S9       1.0000 0.14113  0.58564  0.48971  Biso   1.000  S
  S10      1.0000 0.16496  0.47814  0.39989  Biso   1.000  S
  C49      1.0000 0.05729  0.82572  0.04680  Biso   1.000  C
  C50      1.0000 0.08258  0.76452  0.15180  Biso   1.000  C
  C51      1.0000 0.07596  0.77688  0.29160  Biso   1.000  C
  H25      1.0000 0.05770  0.82690  0.31940  Biso   1.000  H
  C52      1.0000 0.12064  0.65255  0.34810  Biso   1.000  C
  C53      1.0000 0.13126  0.63610  0.21180  Biso   1.000  C
  H26      1.0000 0.15170  0.58720  0.18740  Biso   1.000  H
  C54      1.0000 0.11122  0.69300  0.11280  Biso   1.000  C
  H27      1.0000 0.11710  0.68320  0.01820  Biso   1.000  H
  C55      1.0000 0.24021  0.49368  0.36340  Biso   1.000  C
  C56      1.0000 0.32839  0.56540  0.37930  Biso   1.000  C
  H28      1.0000 0.35210  0.60980  0.41650  Biso   1.000  H
  C57      1.0000 0.35272  0.50876  0.29220  Biso   1.000  C
  C58      1.0000 0.31830  0.44252  0.24410  Biso   1.000  C
  H29      1.0000 0.33410  0.40270  0.18440  Biso   1.000  H
  C59      1.0000 0.26167  0.43358  0.28150  Biso   1.000  C
  H30      1.0000 0.23820  0.38710  0.25150  Biso   1.000  H
  C60      1.0000 0.41366  0.52292  0.24660  Biso   1.000  C
  N9       1.0000 0.09397  0.72185  0.38860  Biso   1.000  N
  N10      1.0000 0.27150  0.55952  0.41350  Biso   1.000  N
  O17      1.0000 0.03280  0.88886  0.09220  Biso   1.000  O
  O18      1.0000 0.06086  0.80756  0.92200  Biso   1.000  O
  O19      1.0000 0.44786  0.56690  0.32883  Biso   1.000  O
  O20      1.0000 0.42578  0.49359  0.13316  Biso   1.000  O
  S11      1.0000 0.64113  0.08564  0.48971  Biso   1.000  S
  S12      1.0000 0.66496  0.97814  0.39989  Biso   1.000  S
  C61      1.0000 0.55729  0.32572  0.04680  Biso   1.000  C
  C62      1.0000 0.58258  0.26452  0.15180  Biso   1.000  C
  C63      1.0000 0.57596  0.27688  0.29160  Biso   1.000  C
  H31      1.0000 0.55770  0.32690  0.31940  Biso   1.000  H
  C64      1.0000 0.62064  0.15255  0.34810  Biso   1.000  C
  C65      1.0000 0.63126  0.13610  0.21180  Biso   1.000  C
  H32      1.0000 0.65170  0.08720  0.18740  Biso   1.000  H
  C66      1.0000 0.61122  0.19300  0.11280  Biso   1.000  C
  H33      1.0000 0.61710  0.18320  0.01820  Biso   1.000  H
  C67      1.0000 0.74021  0.99368  0.36340  Biso   1.000  C
  C68      1.0000 0.82839  0.06540  0.37930  Biso   1.000  C
  H34      1.0000 0.85210  0.10980  0.41650  Biso   1.000  H
  C69      1.0000 0.85272  0.00876  0.29220  Biso   1.000  C
  C70      1.0000 0.81830  0.94252  0.24410  Biso   1.000  C
  H35      1.0000 0.83410  0.90270  0.18440  Biso   1.000  H
  C71      1.0000 0.76167  0.93358  0.28150  Biso   1.000  C
  H36      1.0000 0.73820  0.88710  0.25150  Biso   1.000  H
  C72      1.0000 0.91366  0.02292  0.24660  Biso   1.000  C
  N11      1.0000 0.59397  0.22185  0.38860  Biso   1.000  N
  N12      1.0000 0.77150  0.05952  0.41350  Biso   1.000  N
  O21      1.0000 0.53280  0.38886  0.09220  Biso   1.000  O
  O22      1.0000 0.56086  0.30756  0.92200  Biso   1.000  O
  O23      1.0000 0.94786  0.06690  0.32883  Biso   1.000  O
  O24      1.0000 0.92578  0.99359  0.13316  Biso   1.000  O
  S13      1.0000 0.85887  0.58564  0.01029  Biso   1.000  S
  S14      1.0000 0.83504  0.47814  0.10011  Biso   1.000  S
  C73      1.0000 0.94271  0.82572  0.45320  Biso   1.000  C
  C74      1.0000 0.91742  0.76452  0.34820  Biso   1.000  C
  C75      1.0000 0.92404  0.77688  0.20840  Biso   1.000  C
  H37      1.0000 0.94230  0.82690  0.18060  Biso   1.000  H
  C76      1.0000 0.87936  0.65255  0.15190  Biso   1.000  C
  C77      1.0000 0.86874  0.63610  0.28820  Biso   1.000  C
  H38      1.0000 0.84830  0.58720  0.31260  Biso   1.000  H
  C78      1.0000 0.88878  0.69300  0.38720  Biso   1.000  C
  H39      1.0000 0.88290  0.68320  0.48180  Biso   1.000  H
  C79      1.0000 0.75979  0.49368  0.13660  Biso   1.000  C
  C80      1.0000 0.67161  0.56540  0.12070  Biso   1.000  C
  H40      1.0000 0.64790  0.60980  0.08350  Biso   1.000  H
  C81      1.0000 0.64728  0.50876  0.20780  Biso   1.000  C
  C82      1.0000 0.68170  0.44252  0.25590  Biso   1.000  C
  H41      1.0000 0.66590  0.40270  0.31560  Biso   1.000  H
  C83      1.0000 0.73833  0.43358  0.21850  Biso   1.000  C
  H42      1.0000 0.76180  0.38710  0.24850  Biso   1.000  H
  C84      1.0000 0.58634  0.52292  0.25340  Biso   1.000  C
  N13      1.0000 0.90603  0.72185  0.11140  Biso   1.000  N
  N14      1.0000 0.72850  0.55952  0.08650  Biso   1.000  N
  O25      1.0000 0.96720  0.88886  0.40780  Biso   1.000  O
  O26      1.0000 0.93914  0.80756  0.57800  Biso   1.000  O
  O27      1.0000 0.55214  0.56690  0.17117  Biso   1.000  O
  O28      1.0000 0.57422  0.49359  0.36684  Biso   1.000  O
  S15      1.0000 0.35887  0.08564  0.01029  Biso   1.000  S
  S16      1.0000 0.33504  0.97814  0.10011  Biso   1.000  S
  C85      1.0000 0.44271  0.32572  0.45320  Biso   1.000  C
  C86      1.0000 0.41742  0.26452  0.34820  Biso   1.000  C
  C87      1.0000 0.42404  0.27688  0.20840  Biso   1.000  C
  H43      1.0000 0.44230  0.32690  0.18060  Biso   1.000  H
  C88      1.0000 0.37936  0.15255  0.15190  Biso   1.000  C
  C89      1.0000 0.36874  0.13610  0.28820  Biso   1.000  C
  H44      1.0000 0.34830  0.08720  0.31260  Biso   1.000  H
  C90      1.0000 0.38878  0.19300  0.38720  Biso   1.000  C
  H45      1.0000 0.38290  0.18320  0.48180  Biso   1.000  H
  C91      1.0000 0.25979  0.99368  0.13660  Biso   1.000  C
  C92      1.0000 0.17161  0.06540  0.12070  Biso   1.000  C
  H46      1.0000 0.14790  0.10980  0.08350  Biso   1.000  H
  C93      1.0000 0.14728  0.00876  0.20780  Biso   1.000  C
  C94      1.0000 0.18170  0.94252  0.25590  Biso   1.000  C
  H47      1.0000 0.16590  0.90270  0.31560  Biso   1.000  H
  C95      1.0000 0.23833  0.93358  0.21850  Biso   1.000  C
  H48      1.0000 0.26180  0.88710  0.24850  Biso   1.000  H
  C96      1.0000 0.08634  0.02292  0.25340  Biso   1.000  C
  N15      1.0000 0.40603  0.22185  0.11140  Biso   1.000  N
  N16      1.0000 0.22850  0.05952  0.08650  Biso   1.000  N
  O29      1.0000 0.46720  0.38886  0.40780  Biso   1.000  O
  O30      1.0000 0.43914  0.30756  0.57800  Biso   1.000  O
  O31      1.0000 0.05214  0.06690  0.17117  Biso   1.000  O
  O32      1.0000 0.07422  0.99359  0.36684  Biso   1.000  O
  Mn1      1.0000 0.00000  0.00000  0.00000  Biso   1.000  Mn
  Mn2      1.0000 0.50000  0.50000  0.00000  Biso   1.000  Mn
  Mn3      1.0000 0.00000  0.00000  0.50000  Biso   1.000  Mn
  Mn4      1.0000 0.50000  0.50000  0.50000  Biso   1.000  Mn
  Mn5      1.0000 0.00000  0.16922  0.25000  Biso   1.000  Mn
  Mn6      1.0000 0.50000  0.66922  0.25000  Biso   1.000  Mn
  Mn7      1.0000 0.00000  0.83078  0.75000  Biso   1.000  Mn
  Mn8      1.0000 0.50000  0.33078  0.75000  Biso   1.000  Mn
