data_RUBHUS_clean
_audit_creation_date              2014-07-02
_audit_creation_method            'Materials Studio'
_symmetry_space_group_name_H-M    'P1'
_symmetry_Int_Tables_number       1
_symmetry_cell_setting            triclinic
loop_
_symmetry_equiv_pos_as_xyz
  x,y,z
_cell_length_a                    9.0990
_cell_length_b                    9.6732
_cell_length_c                    22.2990
_cell_angle_alpha                 90.0000
_cell_angle_beta                  90.0000
_cell_angle_gamma                 117.8740
loop_
_atom_site_label
_atom_site_type_symbol
_atom_site_fract_x
_atom_site_fract_y
_atom_site_fract_z
_atom_site_U_iso_or_equiv
_atom_site_adp_type
_atom_site_occupancy
Tb1    Tb    0.35588   0.11751   0.00853   0.01267  Uiso   1.00
Tb2    Tb    0.64412   0.38249   0.50853   0.01267  Uiso   1.00
Tb3    Tb    0.64412   0.88249   0.99147   0.01267  Uiso   1.00
Tb4    Tb    0.35588   0.61751   0.49147   0.01267  Uiso   1.00
Ag1    Ag    0.32053   0.98093   0.35157   0.01267  Uiso   1.00
Ag2    Ag    0.67947   0.51907   0.85157   0.01267  Uiso   1.00
Ag3    Ag    0.67947   0.01907   0.64843   0.01267  Uiso   1.00
Ag4    Ag    0.32053   0.48093   0.14843   0.01267  Uiso   1.00
H1     H     0.59880   0.89530   0.33200   0.01267  Uiso   1.00
H2     H     0.74970   0.86840   0.25680   0.01267  Uiso   1.00
H3     H     0.69400   0.89910   0.15850   0.01267  Uiso   1.00
H4     H     0.35910   0.01230   0.21760   0.01267  Uiso   1.00
H5     H     0.81660   0.28560   0.83740   0.01267  Uiso   1.00
H6     H     0.03270   0.24830   0.86750   0.01267  Uiso   1.00
H7     H     0.22910   0.44440   0.92790   0.01267  Uiso   1.00
H8     H     0.96670   0.67750   0.93280   0.01267  Uiso   1.00
H9     H     0.40120   0.60470   0.83200   0.01267  Uiso   1.00
H10    H     0.25030   0.63160   0.75680   0.01267  Uiso   1.00
H11    H     0.30600   0.60090   0.65850   0.01267  Uiso   1.00
H12    H     0.64090   0.48770   0.71760   0.01267  Uiso   1.00
H13    H     0.18340   0.21440   0.33740   0.01267  Uiso   1.00
H14    H     0.96730   0.25170   0.36750   0.01267  Uiso   1.00
H15    H     0.77090   0.05560   0.42790   0.01267  Uiso   1.00
H16    H     0.03330   0.82250   0.43280   0.01267  Uiso   1.00
H17    H     0.40120   0.10470   0.66800   0.01267  Uiso   1.00
H18    H     0.25030   0.13160   0.74320   0.01267  Uiso   1.00
H19    H     0.30600   0.10090   0.84150   0.01267  Uiso   1.00
H20    H     0.64090   0.98770   0.78240   0.01267  Uiso   1.00
H21    H     0.18340   0.71440   0.16260   0.01267  Uiso   1.00
H22    H     0.96730   0.75170   0.13250   0.01267  Uiso   1.00
H23    H     0.77090   0.55560   0.07210   0.01267  Uiso   1.00
H24    H     0.03330   0.32250   0.06720   0.01267  Uiso   1.00
H25    H     0.59880   0.39530   0.16800   0.01267  Uiso   1.00
H26    H     0.74970   0.36840   0.24320   0.01267  Uiso   1.00
H27    H     0.69400   0.39910   0.34150   0.01267  Uiso   1.00
H28    H     0.35910   0.51230   0.28240   0.01267  Uiso   1.00
H29    H     0.81660   0.78560   0.66260   0.01267  Uiso   1.00
H30    H     0.03270   0.74830   0.63250   0.01267  Uiso   1.00
H31    H     0.22910   0.94440   0.57210   0.01267  Uiso   1.00
H32    H     0.96670   0.17750   0.56720   0.01267  Uiso   1.00
C1     C     0.57810   0.91320   0.29270   0.01267  Uiso   1.00
C2     C     0.66660   0.89540   0.24790   0.01267  Uiso   1.00
C3     C     0.63600   0.91660   0.18940   0.01267  Uiso   1.00
C4     C     0.52130   0.96300   0.17720   0.01267  Uiso   1.00
C5     C     0.43920   0.98030   0.22510   0.01267  Uiso   1.00
C6     C     0.48170   0.99220   0.11480   0.01267  Uiso   1.00
C7     C     0.89610   0.35790   0.86300   0.01267  Uiso   1.00
C8     C     0.02140   0.33500   0.87930   0.01267  Uiso   1.00
C9     C     0.13540   0.45200   0.91580   0.01267  Uiso   1.00
C10    C     0.11730   0.58480   0.93580   0.01267  Uiso   1.00
C11    C     0.98520   0.59600   0.91930   0.01267  Uiso   1.00
C12    C     0.24310   0.71970   0.97320   0.01267  Uiso   1.00
C13    C     0.48010   0.50330   0.03320   0.01267  Uiso   1.00
C14    C     0.99180   0.99220   0.03460   0.01267  Uiso   1.00
C15    C     0.42190   0.58680   0.79270   0.01267  Uiso   1.00
C16    C     0.33340   0.60460   0.74790   0.01267  Uiso   1.00
C17    C     0.36400   0.58340   0.68940   0.01267  Uiso   1.00
C18    C     0.47870   0.53700   0.67720   0.01267  Uiso   1.00
C19    C     0.56080   0.51970   0.72510   0.01267  Uiso   1.00
C20    C     0.51830   0.50780   0.61480   0.01267  Uiso   1.00
C21    C     0.10390   0.14210   0.36300   0.01267  Uiso   1.00
C22    C     0.97860   0.16500   0.37930   0.01267  Uiso   1.00
C23    C     0.86460   0.04800   0.41580   0.01267  Uiso   1.00
C24    C     0.88270   0.91520   0.43580   0.01267  Uiso   1.00
C25    C     0.01480   0.90400   0.41930   0.01267  Uiso   1.00
C26    C     0.75690   0.78030   0.47320   0.01267  Uiso   1.00
C27    C     0.51990   0.99670   0.53320   0.01267  Uiso   1.00
C28    C     0.00820   0.50780   0.53460   0.01267  Uiso   1.00
C29    C     0.42190   0.08680   0.70730   0.01267  Uiso   1.00
C30    C     0.33340   0.10460   0.75210   0.01267  Uiso   1.00
C31    C     0.36400   0.08340   0.81060   0.01267  Uiso   1.00
C32    C     0.47870   0.03700   0.82280   0.01267  Uiso   1.00
C33    C     0.56080   0.01970   0.77490   0.01267  Uiso   1.00
C34    C     0.51830   0.00780   0.88520   0.01267  Uiso   1.00
C35    C     0.10390   0.64210   0.13700   0.01267  Uiso   1.00
C36    C     0.97860   0.66500   0.12070   0.01267  Uiso   1.00
C37    C     0.86460   0.54800   0.08420   0.01267  Uiso   1.00
C38    C     0.88270   0.41520   0.06420   0.01267  Uiso   1.00
C39    C     0.01480   0.40400   0.08070   0.01267  Uiso   1.00
C40    C     0.75690   0.28030   0.02680   0.01267  Uiso   1.00
C41    C     0.51990   0.49670   0.96680   0.01267  Uiso   1.00
C42    C     0.00820   0.00780   0.96540   0.01267  Uiso   1.00
C43    C     0.57810   0.41320   0.20730   0.01267  Uiso   1.00
C44    C     0.66660   0.39540   0.25210   0.01267  Uiso   1.00
C45    C     0.63600   0.41660   0.31060   0.01267  Uiso   1.00
C46    C     0.52130   0.46300   0.32280   0.01267  Uiso   1.00
C47    C     0.43920   0.48030   0.27490   0.01267  Uiso   1.00
C48    C     0.48170   0.49220   0.38520   0.01267  Uiso   1.00
C49    C     0.89610   0.85790   0.63700   0.01267  Uiso   1.00
C50    C     0.02140   0.83500   0.62070   0.01267  Uiso   1.00
C51    C     0.13540   0.95200   0.58420   0.01267  Uiso   1.00
C52    C     0.11730   0.08480   0.56420   0.01267  Uiso   1.00
C53    C     0.98520   0.09600   0.58070   0.01267  Uiso   1.00
C54    C     0.24310   0.21970   0.52680   0.01267  Uiso   1.00
C55    C     0.48010   0.00330   0.46680   0.01267  Uiso   1.00
C56    C     0.99180   0.49220   0.46540   0.01267  Uiso   1.00
N1     N     0.46470   0.95480   0.28210   0.01267  Uiso   1.00
N2     N     0.87650   0.48500   0.88210   0.01267  Uiso   1.00
N3     N     0.53530   0.54520   0.78210   0.01267  Uiso   1.00
N4     N     0.12350   0.01500   0.38210   0.01267  Uiso   1.00
N5     N     0.53530   0.04520   0.71790   0.01267  Uiso   1.00
N6     N     0.12350   0.51500   0.11790   0.01267  Uiso   1.00
N7     N     0.46470   0.45480   0.21790   0.01267  Uiso   1.00
N8     N     0.87650   0.98500   0.61790   0.01267  Uiso   1.00
O1     O     0.54140   0.95490   0.07209   0.01267  Uiso   1.00
O2     O     0.39110   0.05440   0.10909   0.01267  Uiso   1.00
O3     O     0.21090   0.82320   0.99849   0.01267  Uiso   1.00
O4     O     0.37060   0.71780   0.97500   0.01267  Uiso   1.00
O5     O     0.38350   0.36570   0.05648   0.01267  Uiso   1.00
O6     O     0.54270   0.63900   0.05910   0.01267  Uiso   1.00
O7     O     0.11710   0.04840   0.06369   0.01267  Uiso   1.00
O8     O     0.85640   0.92360   0.05591   0.01267  Uiso   1.00
O9     O     0.45860   0.54510   0.57209   0.01267  Uiso   1.00
O10    O     0.60890   0.44560   0.60909   0.01267  Uiso   1.00
O11    O     0.78910   0.67680   0.49849   0.01267  Uiso   1.00
O12    O     0.62940   0.78220   0.47500   0.01267  Uiso   1.00
O13    O     0.61650   0.13430   0.55648   0.01267  Uiso   1.00
O14    O     0.45730   0.86100   0.55910   0.01267  Uiso   1.00
O15    O     0.88290   0.45160   0.56369   0.01267  Uiso   1.00
O16    O     0.14360   0.57640   0.55591   0.01267  Uiso   1.00
O17    O     0.45860   0.04510   0.92791   0.01267  Uiso   1.00
O18    O     0.60890   0.94560   0.89091   0.01267  Uiso   1.00
O19    O     0.78910   0.17680   0.00151   0.01267  Uiso   1.00
O20    O     0.62940   0.28220   0.02500   0.01267  Uiso   1.00
O21    O     0.61650   0.63430   0.94352   0.01267  Uiso   1.00
O22    O     0.45730   0.36100   0.94090   0.01267  Uiso   1.00
O23    O     0.88290   0.95160   0.93631   0.01267  Uiso   1.00
O24    O     0.14360   0.07640   0.94409   0.01267  Uiso   1.00
O25    O     0.54140   0.45490   0.42791   0.01267  Uiso   1.00
O26    O     0.39110   0.55440   0.39091   0.01267  Uiso   1.00
O27    O     0.21090   0.32320   0.50151   0.01267  Uiso   1.00
O28    O     0.37060   0.21780   0.52500   0.01267  Uiso   1.00
O29    O     0.38350   0.86570   0.44352   0.01267  Uiso   1.00
O30    O     0.54270   0.13900   0.44090   0.01267  Uiso   1.00
O31    O     0.11710   0.54840   0.43631   0.01267  Uiso   1.00
O32    O     0.85640   0.42360   0.44409   0.01267  Uiso   1.00
