data_RUBHOM_clean
_audit_creation_date              2014-07-02
_audit_creation_method            'Materials Studio'
_symmetry_space_group_name_H-M    'P1'
_symmetry_Int_Tables_number       1
_symmetry_cell_setting            triclinic
loop_
_symmetry_equiv_pos_as_xyz
  x,y,z
_cell_length_a                    9.2864
_cell_length_b                    9.8840
_cell_length_c                    22.4460
_cell_angle_alpha                 90.0000
_cell_angle_beta                  90.0000
_cell_angle_gamma                 116.5640
loop_
_atom_site_label
_atom_site_type_symbol
_atom_site_fract_x
_atom_site_fract_y
_atom_site_fract_z
_atom_site_U_iso_or_equiv
_atom_site_adp_type
_atom_site_occupancy
La1    La    0.35977   0.11562   0.00884   0.01267  Uiso   1.00
La2    La    0.64023   0.38438   0.50884   0.01267  Uiso   1.00
La3    La    0.64023   0.88438   0.99116   0.01267  Uiso   1.00
La4    La    0.35977   0.61562   0.49116   0.01267  Uiso   1.00
Ag1    Ag    0.31779   0.97450   0.35346   0.01267  Uiso   1.00
Ag2    Ag    0.68221   0.52550   0.85346   0.01267  Uiso   1.00
Ag3    Ag    0.68221   0.02550   0.64654   0.01267  Uiso   1.00
Ag4    Ag    0.31779   0.47450   0.14654   0.01267  Uiso   1.00
H1     H     0.59880   0.89010   0.33190   0.01267  Uiso   1.00
H2     H     0.73800   0.86080   0.25510   0.01267  Uiso   1.00
H3     H     0.68190   0.89820   0.15760   0.01267  Uiso   1.00
H4     H     0.35730   0.01030   0.22220   0.01267  Uiso   1.00
H5     H     0.81100   0.28910   0.84030   0.01267  Uiso   1.00
H6     H     0.02180   0.24560   0.86970   0.01267  Uiso   1.00
H7     H     0.21660   0.43570   0.92690   0.01267  Uiso   1.00
H8     H     0.96990   0.67890   0.92920   0.01267  Uiso   1.00
H9     H     0.40120   0.60990   0.83190   0.01267  Uiso   1.00
H10    H     0.26200   0.63920   0.75510   0.01267  Uiso   1.00
H11    H     0.31810   0.60180   0.65760   0.01267  Uiso   1.00
H12    H     0.64270   0.48970   0.72220   0.01267  Uiso   1.00
H13    H     0.18900   0.21090   0.34030   0.01267  Uiso   1.00
H14    H     0.97820   0.25440   0.36970   0.01267  Uiso   1.00
H15    H     0.78340   0.06430   0.42690   0.01267  Uiso   1.00
H16    H     0.03010   0.82110   0.42920   0.01267  Uiso   1.00
H17    H     0.40120   0.10990   0.66810   0.01267  Uiso   1.00
H18    H     0.26200   0.13920   0.74490   0.01267  Uiso   1.00
H19    H     0.31810   0.10180   0.84240   0.01267  Uiso   1.00
H20    H     0.64270   0.98970   0.77780   0.01267  Uiso   1.00
H21    H     0.18900   0.71090   0.15970   0.01267  Uiso   1.00
H22    H     0.97820   0.75440   0.13030   0.01267  Uiso   1.00
H23    H     0.78340   0.56430   0.07310   0.01267  Uiso   1.00
H24    H     0.03010   0.32110   0.07080   0.01267  Uiso   1.00
H25    H     0.59880   0.39010   0.16810   0.01267  Uiso   1.00
H26    H     0.73800   0.36080   0.24490   0.01267  Uiso   1.00
H27    H     0.68190   0.39820   0.34240   0.01267  Uiso   1.00
H28    H     0.35730   0.51030   0.27780   0.01267  Uiso   1.00
H29    H     0.81100   0.78910   0.65970   0.01267  Uiso   1.00
H30    H     0.02180   0.74560   0.63030   0.01267  Uiso   1.00
H31    H     0.21660   0.93570   0.57310   0.01267  Uiso   1.00
H32    H     0.96990   0.17890   0.57080   0.01267  Uiso   1.00
C1     C     0.57580   0.90870   0.29330   0.01267  Uiso   1.00
C2     C     0.65770   0.89040   0.24750   0.01267  Uiso   1.00
C3     C     0.62650   0.91430   0.18920   0.01267  Uiso   1.00
C4     C     0.51340   0.96140   0.17990   0.01267  Uiso   1.00
C5     C     0.43610   0.97820   0.22840   0.01267  Uiso   1.00
C6     C     0.47030   0.99700   0.11960   0.01267  Uiso   1.00
C7     C     0.89070   0.35940   0.86450   0.01267  Uiso   1.00
C8     C     0.01310   0.33250   0.88050   0.01267  Uiso   1.00
C9     C     0.12610   0.44580   0.91490   0.01267  Uiso   1.00
C10    C     0.11210   0.58080   0.93360   0.01267  Uiso   1.00
C11    C     0.98500   0.59610   0.91710   0.01267  Uiso   1.00
C12    C     0.23810   0.71310   0.96950   0.01267  Uiso   1.00
C13    C     0.47510   0.49810   0.03340   0.01267  Uiso   1.00
C14    C     0.99260   0.99200   0.03352   0.01267  Uiso   1.00
C15    C     0.42420   0.59130   0.79330   0.01267  Uiso   1.00
C16    C     0.34230   0.60960   0.74750   0.01267  Uiso   1.00
C17    C     0.37350   0.58570   0.68920   0.01267  Uiso   1.00
C18    C     0.48660   0.53860   0.67990   0.01267  Uiso   1.00
C19    C     0.56390   0.52180   0.72840   0.01267  Uiso   1.00
C20    C     0.52970   0.50300   0.61960   0.01267  Uiso   1.00
C21    C     0.10930   0.14060   0.36450   0.01267  Uiso   1.00
C22    C     0.98690   0.16750   0.38050   0.01267  Uiso   1.00
C23    C     0.87390   0.05420   0.41490   0.01267  Uiso   1.00
C24    C     0.88790   0.91920   0.43360   0.01267  Uiso   1.00
C25    C     0.01500   0.90390   0.41710   0.01267  Uiso   1.00
C26    C     0.76190   0.78690   0.46950   0.01267  Uiso   1.00
C27    C     0.52490   0.00190   0.53340   0.01267  Uiso   1.00
C28    C     0.00740   0.50800   0.53352   0.01267  Uiso   1.00
C29    C     0.42420   0.09130   0.70670   0.01267  Uiso   1.00
C30    C     0.34230   0.10960   0.75250   0.01267  Uiso   1.00
C31    C     0.37350   0.08570   0.81080   0.01267  Uiso   1.00
C32    C     0.48660   0.03860   0.82010   0.01267  Uiso   1.00
C33    C     0.56390   0.02180   0.77160   0.01267  Uiso   1.00
C34    C     0.52970   0.00300   0.88040   0.01267  Uiso   1.00
C35    C     0.10930   0.64060   0.13550   0.01267  Uiso   1.00
C36    C     0.98690   0.66750   0.11950   0.01267  Uiso   1.00
C37    C     0.87390   0.55420   0.08510   0.01267  Uiso   1.00
C38    C     0.88790   0.41920   0.06640   0.01267  Uiso   1.00
C39    C     0.01500   0.40390   0.08290   0.01267  Uiso   1.00
C40    C     0.76190   0.28690   0.03050   0.01267  Uiso   1.00
C41    C     0.52490   0.50190   0.96660   0.01267  Uiso   1.00
C42    C     0.00740   0.00800   0.96648   0.01267  Uiso   1.00
C43    C     0.57580   0.40870   0.20670   0.01267  Uiso   1.00
C44    C     0.65770   0.39040   0.25250   0.01267  Uiso   1.00
C45    C     0.62650   0.41430   0.31080   0.01267  Uiso   1.00
C46    C     0.51340   0.46140   0.32010   0.01267  Uiso   1.00
C47    C     0.43610   0.47820   0.27160   0.01267  Uiso   1.00
C48    C     0.47030   0.49700   0.38040   0.01267  Uiso   1.00
C49    C     0.89070   0.85940   0.63550   0.01267  Uiso   1.00
C50    C     0.01310   0.83250   0.61950   0.01267  Uiso   1.00
C51    C     0.12610   0.94580   0.58510   0.01267  Uiso   1.00
C52    C     0.11210   0.08080   0.56640   0.01267  Uiso   1.00
C53    C     0.98500   0.09610   0.58290   0.01267  Uiso   1.00
C54    C     0.23810   0.21310   0.53050   0.01267  Uiso   1.00
C55    C     0.47510   0.99810   0.46660   0.01267  Uiso   1.00
C56    C     0.99260   0.49200   0.46648   0.01267  Uiso   1.00
N1     N     0.46400   0.95220   0.28430   0.01267  Uiso   1.00
N2     N     0.87580   0.48650   0.88180   0.01267  Uiso   1.00
N3     N     0.53600   0.54780   0.78430   0.01267  Uiso   1.00
N4     N     0.12420   0.01350   0.38180   0.01267  Uiso   1.00
N5     N     0.53600   0.04780   0.71570   0.01267  Uiso   1.00
N6     N     0.12420   0.51350   0.11820   0.01267  Uiso   1.00
N7     N     0.46400   0.45220   0.21570   0.01267  Uiso   1.00
N8     N     0.87580   0.98650   0.61820   0.01267  Uiso   1.00
O1     O     0.52010   0.96060   0.07337   0.01267  Uiso   1.00
O2     O     0.38370   0.06220   0.11804   0.01267  Uiso   1.00
O3     O     0.20870   0.81740   0.99345   0.01267  Uiso   1.00
O4     O     0.36210   0.70700   0.97100   0.01267  Uiso   1.00
O5     O     0.38180   0.37280   0.05519   0.01267  Uiso   1.00
O6     O     0.53900   0.63550   0.05903   0.01267  Uiso   1.00
O7     O     0.11460   0.05120   0.06415   0.01267  Uiso   1.00
O8     O     0.85930   0.92190   0.05590   0.01267  Uiso   1.00
O9     O     0.47990   0.53940   0.57337   0.01267  Uiso   1.00
O10    O     0.61630   0.43780   0.61804   0.01267  Uiso   1.00
O11    O     0.79130   0.68260   0.49345   0.01267  Uiso   1.00
O12    O     0.63790   0.79300   0.47100   0.01267  Uiso   1.00
O13    O     0.61820   0.12720   0.55519   0.01267  Uiso   1.00
O14    O     0.46100   0.86450   0.55903   0.01267  Uiso   1.00
O15    O     0.88540   0.44880   0.56415   0.01267  Uiso   1.00
O16    O     0.14070   0.57810   0.55590   0.01267  Uiso   1.00
O17    O     0.47990   0.03940   0.92663   0.01267  Uiso   1.00
O18    O     0.61630   0.93780   0.88196   0.01267  Uiso   1.00
O19    O     0.79130   0.18260   0.00655   0.01267  Uiso   1.00
O20    O     0.63790   0.29300   0.02900   0.01267  Uiso   1.00
O21    O     0.61820   0.62720   0.94481   0.01267  Uiso   1.00
O22    O     0.46100   0.36450   0.94097   0.01267  Uiso   1.00
O23    O     0.88540   0.94880   0.93585   0.01267  Uiso   1.00
O24    O     0.14070   0.07810   0.94410   0.01267  Uiso   1.00
O25    O     0.52010   0.46060   0.42663   0.01267  Uiso   1.00
O26    O     0.38370   0.56220   0.38196   0.01267  Uiso   1.00
O27    O     0.20870   0.31740   0.50655   0.01267  Uiso   1.00
O28    O     0.36210   0.20700   0.52900   0.01267  Uiso   1.00
O29    O     0.38180   0.87280   0.44481   0.01267  Uiso   1.00
O30    O     0.53900   0.13550   0.44097   0.01267  Uiso   1.00
O31    O     0.11460   0.55120   0.43585   0.01267  Uiso   1.00
O32    O     0.85930   0.42190   0.44410   0.01267  Uiso   1.00
