data_RUCGOM_clean
_audit_creation_date              2014-07-02
_audit_creation_method            'Materials Studio'
_symmetry_space_group_name_H-M    'P1'
_symmetry_Int_Tables_number       1
_symmetry_cell_setting            triclinic
loop_
_symmetry_equiv_pos_as_xyz
  x,y,z
_cell_length_a                    12.4580
_cell_length_b                    12.4580
_cell_length_c                    24.6730
_cell_angle_alpha                 90.0000
_cell_angle_beta                  90.0000
_cell_angle_gamma                 120.0000
loop_
_atom_site_label
_atom_site_type_symbol
_atom_site_fract_x
_atom_site_fract_y
_atom_site_fract_z
_atom_site_U_iso_or_equiv
_atom_site_adp_type
_atom_site_occupancy
Zn1    Zn    0.00000   0.00000   0.66667   0.01267  Uiso   1.00
Zn2    Zn    0.00000   0.00000   0.33333   0.01267  Uiso   1.00
Zn3    Zn    0.00000   0.00000   0.00000   0.01267  Uiso   1.00
H1     H     0.35220   0.07710   0.75530   0.01267  Uiso   1.00
H2     H     0.32830   0.02510   0.69960   0.01267  Uiso   1.00
H3     H     0.23300   0.89130   0.79500   0.01267  Uiso   1.00
H4     H     0.13360   0.66570   0.79450   0.01267  Uiso   1.00
H5     H     0.11850   0.59090   0.73960   0.01267  Uiso   1.00
H6     H     0.03720   0.65600   0.74920   0.01267  Uiso   1.00
H7     H     0.20710   0.70570   0.65240   0.01267  Uiso   1.00
H8     H     0.27080   0.85350   0.65150   0.01267  Uiso   1.00
H9     H     0.12370   0.76960   0.65800   0.01267  Uiso   1.00
H10    H     0.72490   0.64780   0.42197   0.01267  Uiso   1.00
H11    H     0.69680   0.67170   0.36627   0.01267  Uiso   1.00
H12    H     0.65830   0.76700   0.46167   0.01267  Uiso   1.00
H13    H     0.53210   0.86640   0.46117   0.01267  Uiso   1.00
H14    H     0.47240   0.88150   0.40627   0.01267  Uiso   1.00
H15    H     0.61880   0.96280   0.41587   0.01267  Uiso   1.00
H16    H     0.49860   0.79290   0.31907   0.01267  Uiso   1.00
H17    H     0.58270   0.72920   0.31817   0.01267  Uiso   1.00
H18    H     0.64590   0.87630   0.32467   0.01267  Uiso   1.00
H19    H     0.92290   0.27510   0.08863   0.01267  Uiso   1.00
H20    H     0.97490   0.30320   0.03293   0.01267  Uiso   1.00
H21    H     0.10870   0.34170   0.12833   0.01267  Uiso   1.00
H22    H     0.33430   0.46790   0.12783   0.01267  Uiso   1.00
H23    H     0.40910   0.52760   0.07293   0.01267  Uiso   1.00
H24    H     0.34400   0.38120   0.08253   0.01267  Uiso   1.00
H25    H     0.29430   0.50140   0.98573   0.01267  Uiso   1.00
H26    H     0.14650   0.41730   0.98483   0.01267  Uiso   1.00
H27    H     0.23040   0.35410   0.99133   0.01267  Uiso   1.00
H28    H     0.64780   0.92290   0.75530   0.01267  Uiso   1.00
H29    H     0.67170   0.97490   0.69960   0.01267  Uiso   1.00
H30    H     0.76700   0.10870   0.79500   0.01267  Uiso   1.00
H31    H     0.86640   0.33430   0.79450   0.01267  Uiso   1.00
H32    H     0.88150   0.40910   0.73960   0.01267  Uiso   1.00
H33    H     0.96280   0.34400   0.74920   0.01267  Uiso   1.00
H34    H     0.79290   0.29430   0.65240   0.01267  Uiso   1.00
H35    H     0.72920   0.14650   0.65150   0.01267  Uiso   1.00
H36    H     0.87630   0.23040   0.65800   0.01267  Uiso   1.00
H37    H     0.27510   0.35220   0.42197   0.01267  Uiso   1.00
H38    H     0.30320   0.32830   0.36627   0.01267  Uiso   1.00
H39    H     0.34170   0.23300   0.46167   0.01267  Uiso   1.00
H40    H     0.46790   0.13360   0.46117   0.01267  Uiso   1.00
H41    H     0.52760   0.11850   0.40627   0.01267  Uiso   1.00
H42    H     0.38120   0.03720   0.41587   0.01267  Uiso   1.00
H43    H     0.50140   0.20710   0.31907   0.01267  Uiso   1.00
H44    H     0.41730   0.27080   0.31817   0.01267  Uiso   1.00
H45    H     0.35410   0.12370   0.32467   0.01267  Uiso   1.00
H46    H     0.07710   0.72490   0.08863   0.01267  Uiso   1.00
H47    H     0.02510   0.69680   0.03293   0.01267  Uiso   1.00
H48    H     0.89130   0.65830   0.12833   0.01267  Uiso   1.00
H49    H     0.66570   0.53210   0.12783   0.01267  Uiso   1.00
H50    H     0.59090   0.47240   0.07293   0.01267  Uiso   1.00
H51    H     0.65600   0.61880   0.08253   0.01267  Uiso   1.00
H52    H     0.70570   0.49860   0.98573   0.01267  Uiso   1.00
H53    H     0.85350   0.58270   0.98483   0.01267  Uiso   1.00
H54    H     0.76960   0.64590   0.99133   0.01267  Uiso   1.00
H55    H     0.27510   0.92290   0.91137   0.01267  Uiso   1.00
H56    H     0.30320   0.97490   0.96707   0.01267  Uiso   1.00
H57    H     0.34170   0.10870   0.87167   0.01267  Uiso   1.00
H58    H     0.46790   0.33430   0.87217   0.01267  Uiso   1.00
H59    H     0.52760   0.40910   0.92707   0.01267  Uiso   1.00
H60    H     0.38120   0.34400   0.91747   0.01267  Uiso   1.00
H61    H     0.50140   0.29430   0.01427   0.01267  Uiso   1.00
H62    H     0.41730   0.14650   0.01517   0.01267  Uiso   1.00
H63    H     0.35410   0.23040   0.00867   0.01267  Uiso   1.00
H64    H     0.07710   0.35220   0.24470   0.01267  Uiso   1.00
H65    H     0.02510   0.32830   0.30040   0.01267  Uiso   1.00
H66    H     0.89130   0.23300   0.20500   0.01267  Uiso   1.00
H67    H     0.66570   0.13360   0.20550   0.01267  Uiso   1.00
H68    H     0.59090   0.11850   0.26040   0.01267  Uiso   1.00
H69    H     0.65600   0.03720   0.25080   0.01267  Uiso   1.00
H70    H     0.70570   0.20710   0.34760   0.01267  Uiso   1.00
H71    H     0.85350   0.27080   0.34850   0.01267  Uiso   1.00
H72    H     0.76960   0.12370   0.34200   0.01267  Uiso   1.00
H73    H     0.64780   0.72490   0.57803   0.01267  Uiso   1.00
H74    H     0.67170   0.69680   0.63373   0.01267  Uiso   1.00
H75    H     0.76700   0.65830   0.53833   0.01267  Uiso   1.00
H76    H     0.86640   0.53210   0.53883   0.01267  Uiso   1.00
H77    H     0.88150   0.47240   0.59373   0.01267  Uiso   1.00
H78    H     0.96280   0.61880   0.58413   0.01267  Uiso   1.00
H79    H     0.79290   0.49860   0.68093   0.01267  Uiso   1.00
H80    H     0.72920   0.58270   0.68183   0.01267  Uiso   1.00
H81    H     0.87630   0.64590   0.67533   0.01267  Uiso   1.00
H82    H     0.72490   0.07710   0.91137   0.01267  Uiso   1.00
H83    H     0.69680   0.02510   0.96707   0.01267  Uiso   1.00
H84    H     0.65830   0.89130   0.87167   0.01267  Uiso   1.00
H85    H     0.53210   0.66570   0.87217   0.01267  Uiso   1.00
H86    H     0.47240   0.59090   0.92707   0.01267  Uiso   1.00
H87    H     0.61880   0.65600   0.91747   0.01267  Uiso   1.00
H88    H     0.49860   0.70570   0.01427   0.01267  Uiso   1.00
H89    H     0.58270   0.85350   0.01517   0.01267  Uiso   1.00
H90    H     0.64590   0.76960   0.00867   0.01267  Uiso   1.00
H91    H     0.92290   0.64780   0.24470   0.01267  Uiso   1.00
H92    H     0.97490   0.67170   0.30040   0.01267  Uiso   1.00
H93    H     0.10870   0.76700   0.20500   0.01267  Uiso   1.00
H94    H     0.33430   0.86640   0.20550   0.01267  Uiso   1.00
H95    H     0.40910   0.88150   0.26040   0.01267  Uiso   1.00
H96    H     0.34400   0.96280   0.25080   0.01267  Uiso   1.00
H97    H     0.29430   0.79290   0.34760   0.01267  Uiso   1.00
H98    H     0.14650   0.72920   0.34850   0.01267  Uiso   1.00
H99    H     0.23040   0.87630   0.34200   0.01267  Uiso   1.00
H100   H     0.35220   0.27510   0.57803   0.01267  Uiso   1.00
H101   H     0.32830   0.30320   0.63373   0.01267  Uiso   1.00
H102   H     0.23300   0.34170   0.53833   0.01267  Uiso   1.00
H103   H     0.13360   0.46790   0.53883   0.01267  Uiso   1.00
H104   H     0.11850   0.52760   0.59373   0.01267  Uiso   1.00
H105   H     0.03720   0.38120   0.58413   0.01267  Uiso   1.00
H106   H     0.20710   0.50140   0.68093   0.01267  Uiso   1.00
H107   H     0.27080   0.41730   0.68183   0.01267  Uiso   1.00
H108   H     0.12370   0.35410   0.67533   0.01267  Uiso   1.00
Pt1    Pt    0.50000  -0.00000   0.73834   0.01267  Uiso   1.00
Pt2    Pt    0.50000   0.50000   0.40501   0.01267  Uiso   1.00
Pt3    Pt    1.00000   0.50000   0.07167   0.01267  Uiso   1.00
Pt4    Pt    0.50000  -0.00000   0.92833   0.01267  Uiso   1.00
Pt5    Pt    1.00000   0.50000   0.26166   0.01267  Uiso   1.00
Pt6    Pt    0.50000   0.50000   0.59499   0.01267  Uiso   1.00
Au1    Au    0.39311   0.78622   0.83333   0.01267  Uiso   1.00
Au2    Au    0.39311   0.60690   0.50000   0.01267  Uiso   1.00
Au3    Au    0.21379   0.60690   0.16667   0.01267  Uiso   1.00
Au4    Au    0.60689   0.21378   0.83333   0.01267  Uiso   1.00
Au5    Au    0.60689   0.39310   0.50000   0.01267  Uiso   1.00
Au6    Au    0.78621   0.39310   0.16667   0.01267  Uiso   1.00
C1     C     0.21830   0.78010   0.72920   0.01267  Uiso   1.00
C2     C     0.22740   0.89640   0.75470   0.01267  Uiso   1.00
C3     C     0.11810   0.66290   0.75550   0.01267  Uiso   1.00
C4     C     0.20360   0.77690   0.66710   0.01267  Uiso   1.00
C5     C     0.11240   0.90640   0.74100   0.01267  Uiso   1.00
C6     C     0.56180   0.78170   0.39587   0.01267  Uiso   1.00
C7     C     0.66900   0.77260   0.42137   0.01267  Uiso   1.00
C8     C     0.54480   0.88190   0.42217   0.01267  Uiso   1.00
C9     C     0.57330   0.79640   0.33377   0.01267  Uiso   1.00
C10    C     0.79400   0.88760   0.40767   0.01267  Uiso   1.00
C11    C     0.21990   0.43820   0.06253   0.01267  Uiso   1.00
C12    C     0.10360   0.33100   0.08803   0.01267  Uiso   1.00
C13    C     0.33710   0.45520   0.08883   0.01267  Uiso   1.00
C14    C     0.22310   0.42670   0.00043   0.01267  Uiso   1.00
C15    C     0.09360   0.20600   0.07433   0.01267  Uiso   1.00
C16    C     0.78170   0.21990   0.72920   0.01267  Uiso   1.00
C17    C     0.77260   0.10360   0.75470   0.01267  Uiso   1.00
C18    C     0.88190   0.33710   0.75550   0.01267  Uiso   1.00
C19    C     0.79640   0.22310   0.66710   0.01267  Uiso   1.00
C20    C     0.88760   0.09360   0.74100   0.01267  Uiso   1.00
C21    C     0.43820   0.21830   0.39587   0.01267  Uiso   1.00
C22    C     0.33100   0.22740   0.42137   0.01267  Uiso   1.00
C23    C     0.45520   0.11810   0.42217   0.01267  Uiso   1.00
C24    C     0.42670   0.20360   0.33377   0.01267  Uiso   1.00
C25    C     0.20600   0.11240   0.40767   0.01267  Uiso   1.00
C26    C     0.78010   0.56180   0.06253   0.01267  Uiso   1.00
C27    C     0.89640   0.66900   0.08803   0.01267  Uiso   1.00
C28    C     0.66290   0.54480   0.08883   0.01267  Uiso   1.00
C29    C     0.77690   0.57330   0.00043   0.01267  Uiso   1.00
C30    C     0.90640   0.79400   0.07433   0.01267  Uiso   1.00
C31    C     0.43820   0.21990   0.93747   0.01267  Uiso   1.00
C32    C     0.33100   0.10360   0.91197   0.01267  Uiso   1.00
C33    C     0.45520   0.33710   0.91117   0.01267  Uiso   1.00
C34    C     0.42670   0.22310   0.99957   0.01267  Uiso   1.00
C35    C     0.20600   0.09360   0.92567   0.01267  Uiso   1.00
C36    C     0.78010   0.21830   0.27080   0.01267  Uiso   1.00
C37    C     0.89640   0.22740   0.24530   0.01267  Uiso   1.00
C38    C     0.66290   0.11810   0.24450   0.01267  Uiso   1.00
C39    C     0.77690   0.20360   0.33290   0.01267  Uiso   1.00
C40    C     0.90640   0.11240   0.25900   0.01267  Uiso   1.00
C41    C     0.78170   0.56180   0.60413   0.01267  Uiso   1.00
C42    C     0.77260   0.66900   0.57863   0.01267  Uiso   1.00
C43    C     0.88190   0.54480   0.57783   0.01267  Uiso   1.00
C44    C     0.79640   0.57330   0.66623   0.01267  Uiso   1.00
C45    C     0.88760   0.79400   0.59233   0.01267  Uiso   1.00
C46    C     0.56180   0.78010   0.93747   0.01267  Uiso   1.00
C47    C     0.66900   0.89640   0.91197   0.01267  Uiso   1.00
C48    C     0.54480   0.66290   0.91117   0.01267  Uiso   1.00
C49    C     0.57330   0.77690   0.99957   0.01267  Uiso   1.00
C50    C     0.79400   0.90640   0.92567   0.01267  Uiso   1.00
C51    C     0.21990   0.78170   0.27080   0.01267  Uiso   1.00
C52    C     0.10360   0.77260   0.24530   0.01267  Uiso   1.00
C53    C     0.33710   0.88190   0.24450   0.01267  Uiso   1.00
C54    C     0.22310   0.79640   0.33290   0.01267  Uiso   1.00
C55    C     0.09360   0.88760   0.25900   0.01267  Uiso   1.00
C56    C     0.21830   0.43820   0.60413   0.01267  Uiso   1.00
C57    C     0.22740   0.33100   0.57863   0.01267  Uiso   1.00
C58    C     0.11810   0.45520   0.57783   0.01267  Uiso   1.00
C59    C     0.20360   0.42670   0.66623   0.01267  Uiso   1.00
C60    C     0.11240   0.20600   0.59233   0.01267  Uiso   1.00
S1     S     0.37051   0.78842   0.74110   0.01267  Uiso   1.00
S2     S     0.41791   0.62949   0.40777   0.01267  Uiso   1.00
S3     S     0.21158   0.58209   0.07443   0.01267  Uiso   1.00
S4     S     0.62949   0.21158   0.74110   0.01267  Uiso   1.00
S5     S     0.58209   0.37051   0.40777   0.01267  Uiso   1.00
S6     S     0.78842   0.41791   0.07443   0.01267  Uiso   1.00
S7     S     0.58209   0.21158   0.92557   0.01267  Uiso   1.00
S8     S     0.78842   0.37051   0.25890   0.01267  Uiso   1.00
S9     S     0.62949   0.41791   0.59223   0.01267  Uiso   1.00
S10    S     0.41791   0.78842   0.92557   0.01267  Uiso   1.00
S11    S     0.21158   0.62949   0.25890   0.01267  Uiso   1.00
S12    S     0.37051   0.58209   0.59223   0.01267  Uiso   1.00
N1     N     0.34120   0.01060   0.73490   0.01267  Uiso   1.00
N2     N     0.66940   0.65880   0.40157   0.01267  Uiso   1.00
N3     N     0.98940   0.33060   0.06823   0.01267  Uiso   1.00
N4     N     0.65880   0.98940   0.73490   0.01267  Uiso   1.00
N5     N     0.33060   0.34120   0.40157   0.01267  Uiso   1.00
N6     N     0.01060   0.66940   0.06823   0.01267  Uiso   1.00
N7     N     0.33060   0.98940   0.93177   0.01267  Uiso   1.00
N8     N     0.01060   0.34120   0.26510   0.01267  Uiso   1.00
N9     N     0.65880   0.66940   0.59843   0.01267  Uiso   1.00
N10    N     0.66940   0.01060   0.93177   0.01267  Uiso   1.00
N11    N     0.98940   0.65880   0.26510   0.01267  Uiso   1.00
N12    N     0.34120   0.33060   0.59843   0.01267  Uiso   1.00
O1     O     0.12440   0.97200   0.69940   0.01267  Uiso   1.00
O2     O     0.01880   0.84940   0.76850   0.01267  Uiso   1.00
O3     O     0.84760   0.87560   0.36607   0.01267  Uiso   1.00
O4     O     0.83060   0.98120   0.43517   0.01267  Uiso   1.00
O5     O     0.02800   0.15240   0.03273   0.01267  Uiso   1.00
O6     O     0.15060   0.16940   0.10183   0.01267  Uiso   1.00
O7     O     0.87560   0.02800   0.69940   0.01267  Uiso   1.00
O8     O     0.98120   0.15060   0.76850   0.01267  Uiso   1.00
O9     O     0.15240   0.12440   0.36607   0.01267  Uiso   1.00
O10    O     0.16940   0.01880   0.43517   0.01267  Uiso   1.00
O11    O     0.97200   0.84760   0.03273   0.01267  Uiso   1.00
O12    O     0.84940   0.83060   0.10183   0.01267  Uiso   1.00
O13    O     0.15240   0.02800   0.96727   0.01267  Uiso   1.00
O14    O     0.16940   0.15060   0.89817   0.01267  Uiso   1.00
O15    O     0.97200   0.12440   0.30060   0.01267  Uiso   1.00
O16    O     0.84940   0.01880   0.23150   0.01267  Uiso   1.00
O17    O     0.87560   0.84760   0.63393   0.01267  Uiso   1.00
O18    O     0.98120   0.83060   0.56483   0.01267  Uiso   1.00
O19    O     0.84760   0.97200   0.96727   0.01267  Uiso   1.00
O20    O     0.83060   0.84940   0.89817   0.01267  Uiso   1.00
O21    O     0.02800   0.87560   0.30060   0.01267  Uiso   1.00
O22    O     0.15060   0.98120   0.23150   0.01267  Uiso   1.00
O23    O     0.12440   0.15240   0.63393   0.01267  Uiso   1.00
O24    O     0.01880   0.16940   0.56483   0.01267  Uiso   1.00
