data_image0
_cell_length_a       15.5239
_cell_length_b       16.0613
_cell_length_c       17.2322
_cell_angle_alpha    90
_cell_angle_beta     90
_cell_angle_gamma    90

_symmetry_space_group_name_H-M    "P 1"
_symmetry_int_tables_number       1

loop_
  _symmetry_equiv_pos_as_xyz
  'x, y, z'

loop_
  _atom_site_label
  _atom_site_occupancy
  _atom_site_fract_x
  _atom_site_fract_y
  _atom_site_fract_z
  _atom_site_thermal_displace_type
  _atom_site_B_iso_or_equiv
  _atom_site_type_symbol
  Ag1      1.0000 0.74151  0.54672  0.59753  Biso   1.000  Ag
  Ag2      1.0000 0.28100  0.79719  0.48171  Biso   1.000  Ag
  Ag3      1.0000 0.31157  0.68434  0.81665  Biso   1.000  Ag
  Ag4      1.0000 0.69010  0.82417  0.64168  Biso   1.000  Ag
  N1       1.0000 0.38570  0.74720  0.57120  Biso   1.000  N
  N2       1.0000 0.38940  0.70330  0.70330  Biso   1.000  N
  C1       1.0000 0.68680  0.67040  0.62050  Biso   1.000  C
  C2       1.0000 0.61050  0.68860  0.62260  Biso   1.000  C
  C3       1.0000 0.51870  0.70260  0.62830  Biso   1.000  C
  C4       1.0000 0.47010  0.73250  0.56560  Biso   1.000  C
  H1       1.0000 0.49760  0.74240  0.51850  Biso   1.000  H
  C5       1.0000 0.34920  0.73200  0.64010  Biso   1.000  C
  H2       1.0000 0.29040  0.74230  0.64450  Biso   1.000  H
  C6       1.0000 0.47390  0.68820  0.69700  Biso   1.000  C
  H3       1.0000 0.50350  0.66750  0.73980  Biso   1.000  H
  O1       1.0000 0.93420  0.58290  0.64350  Biso   1.000  O
  O2       1.0000 0.86165  0.46480  0.62890  Biso   1.000  O
  C7       1.0000 0.92720  0.50770  0.63500  Biso   1.000  C
  C8       1.0000 0.01150  0.45970  0.63310  Biso   1.000  C
  F1       1.0000 0.02060  0.42650  0.56040  Biso   1.000  F
  F2       1.0000 0.07810  0.50240  0.62580  Biso   1.000  F
  F3       1.0000 0.01310  0.39320  0.67600  Biso   1.000  F
  Ag5      1.0000 0.75849  0.45328  0.09753  Biso   1.000  Ag
  Ag6      1.0000 0.21900  0.20281  0.98171  Biso   1.000  Ag
  Ag7      1.0000 0.18843  0.31566  0.31665  Biso   1.000  Ag
  Ag8      1.0000 0.80990  0.17583  0.14168  Biso   1.000  Ag
  N3       1.0000 0.11430  0.25280  0.07120  Biso   1.000  N
  N4       1.0000 0.11060  0.29670  0.20330  Biso   1.000  N
  C9       1.0000 0.81320  0.32960  0.12050  Biso   1.000  C
  C10      1.0000 0.88950  0.31140  0.12260  Biso   1.000  C
  C11      1.0000 0.98130  0.29740  0.12830  Biso   1.000  C
  C12      1.0000 0.02990  0.26750  0.06560  Biso   1.000  C
  H4       1.0000 0.00240  0.25760  0.01850  Biso   1.000  H
  C13      1.0000 0.15080  0.26800  0.14010  Biso   1.000  C
  H5       1.0000 0.20960  0.25770  0.14450  Biso   1.000  H
  C14      1.0000 0.02610  0.31180  0.19700  Biso   1.000  C
  H6       1.0000 0.99650  0.33250  0.23980  Biso   1.000  H
  O3       1.0000 0.56580  0.41710  0.14350  Biso   1.000  O
  O4       1.0000 0.63835  0.53520  0.12890  Biso   1.000  O
  C15      1.0000 0.57280  0.49230  0.13500  Biso   1.000  C
  C16      1.0000 0.48850  0.54030  0.13310  Biso   1.000  C
  F4       1.0000 0.47940  0.57350  0.06040  Biso   1.000  F
  F5       1.0000 0.42190  0.49760  0.12580  Biso   1.000  F
  F6       1.0000 0.48690  0.60680  0.17600  Biso   1.000  F
  Ag9      1.0000 0.25849  0.04672  0.90247  Biso   1.000  Ag
  Ag10     1.0000 0.71900  0.29719  0.01829  Biso   1.000  Ag
  Ag11     1.0000 0.68843  0.18434  0.68335  Biso   1.000  Ag
  Ag12     1.0000 0.30990  0.32417  0.85832  Biso   1.000  Ag
  N5       1.0000 0.61430  0.24720  0.92880  Biso   1.000  N
  N6       1.0000 0.61060  0.20330  0.79670  Biso   1.000  N
  C17      1.0000 0.31320  0.17040  0.87950  Biso   1.000  C
  C18      1.0000 0.38950  0.18860  0.87740  Biso   1.000  C
  C19      1.0000 0.48130  0.20260  0.87170  Biso   1.000  C
  C20      1.0000 0.52990  0.23250  0.93440  Biso   1.000  C
  H7       1.0000 0.50240  0.24240  0.98150  Biso   1.000  H
  C21      1.0000 0.65080  0.23200  0.85990  Biso   1.000  C
  H8       1.0000 0.70960  0.24230  0.85550  Biso   1.000  H
  C22      1.0000 0.52610  0.18820  0.80300  Biso   1.000  C
  H9       1.0000 0.49650  0.16750  0.76020  Biso   1.000  H
  O5       1.0000 0.06580  0.08290  0.85650  Biso   1.000  O
  O6       1.0000 0.13835  0.96480  0.87110  Biso   1.000  O
  C23      1.0000 0.07280  0.00770  0.86500  Biso   1.000  C
  C24      1.0000 0.98850  0.95970  0.86690  Biso   1.000  C
  F7       1.0000 0.97940  0.92650  0.93960  Biso   1.000  F
  F8       1.0000 0.92190  0.00240  0.87420  Biso   1.000  F
  F9       1.0000 0.98690  0.89320  0.82400  Biso   1.000  F
  Ag13     1.0000 0.24151  0.95328  0.40247  Biso   1.000  Ag
  Ag14     1.0000 0.78100  0.70281  0.51829  Biso   1.000  Ag
  Ag15     1.0000 0.81157  0.81566  0.18335  Biso   1.000  Ag
  Ag16     1.0000 0.19010  0.67583  0.35832  Biso   1.000  Ag
  N7       1.0000 0.88570  0.75280  0.42880  Biso   1.000  N
  N8       1.0000 0.88940  0.79670  0.29670  Biso   1.000  N
  C25      1.0000 0.18680  0.82960  0.37950  Biso   1.000  C
  C26      1.0000 0.11050  0.81140  0.37740  Biso   1.000  C
  C27      1.0000 0.01870  0.79740  0.37170  Biso   1.000  C
  C28      1.0000 0.97010  0.76750  0.43440  Biso   1.000  C
  H10      1.0000 0.99760  0.75760  0.48150  Biso   1.000  H
  C29      1.0000 0.84920  0.76800  0.35990  Biso   1.000  C
  H11      1.0000 0.79040  0.75770  0.35550  Biso   1.000  H
  C30      1.0000 0.97390  0.81180  0.30300  Biso   1.000  C
  H12      1.0000 0.00350  0.83250  0.26020  Biso   1.000  H
  O7       1.0000 0.43420  0.91710  0.35650  Biso   1.000  O
  O8       1.0000 0.36165  0.03520  0.37110  Biso   1.000  O
  C31      1.0000 0.42720  0.99230  0.36500  Biso   1.000  C
  C32      1.0000 0.51150  0.04030  0.36690  Biso   1.000  C
  F10      1.0000 0.52060  0.07350  0.43960  Biso   1.000  F
  F11      1.0000 0.57810  0.99760  0.37420  Biso   1.000  F
  F12      1.0000 0.51310  0.10680  0.32400  Biso   1.000  F
  Ag17     1.0000 0.25849  0.45328  0.40247  Biso   1.000  Ag
  Ag18     1.0000 0.71900  0.20281  0.51829  Biso   1.000  Ag
  Ag19     1.0000 0.68843  0.31566  0.18335  Biso   1.000  Ag
  Ag20     1.0000 0.30990  0.17583  0.35832  Biso   1.000  Ag
  N9       1.0000 0.61430  0.25280  0.42880  Biso   1.000  N
  N10      1.0000 0.61060  0.29670  0.29670  Biso   1.000  N
  C33      1.0000 0.31320  0.32960  0.37950  Biso   1.000  C
  C34      1.0000 0.38950  0.31140  0.37740  Biso   1.000  C
  C35      1.0000 0.48130  0.29740  0.37170  Biso   1.000  C
  C36      1.0000 0.52990  0.26750  0.43440  Biso   1.000  C
  H13      1.0000 0.50240  0.25760  0.48150  Biso   1.000  H
  C37      1.0000 0.65080  0.26800  0.35990  Biso   1.000  C
  H14      1.0000 0.70960  0.25770  0.35550  Biso   1.000  H
  C38      1.0000 0.52610  0.31180  0.30300  Biso   1.000  C
  H15      1.0000 0.49650  0.33250  0.26020  Biso   1.000  H
  O9       1.0000 0.06580  0.41710  0.35650  Biso   1.000  O
  O10      1.0000 0.13835  0.53520  0.37110  Biso   1.000  O
  C39      1.0000 0.07280  0.49230  0.36500  Biso   1.000  C
  C40      1.0000 0.98850  0.54030  0.36690  Biso   1.000  C
  F13      1.0000 0.97940  0.57350  0.43960  Biso   1.000  F
  F14      1.0000 0.92190  0.49760  0.37420  Biso   1.000  F
  F15      1.0000 0.98690  0.60680  0.32400  Biso   1.000  F
  Ag21     1.0000 0.24151  0.54672  0.90247  Biso   1.000  Ag
  Ag22     1.0000 0.78100  0.79719  0.01829  Biso   1.000  Ag
  Ag23     1.0000 0.81157  0.68434  0.68335  Biso   1.000  Ag
  Ag24     1.0000 0.19010  0.82417  0.85832  Biso   1.000  Ag
  N11      1.0000 0.88570  0.74720  0.92880  Biso   1.000  N
  N12      1.0000 0.88940  0.70330  0.79670  Biso   1.000  N
  C41      1.0000 0.18680  0.67040  0.87950  Biso   1.000  C
  C42      1.0000 0.11050  0.68860  0.87740  Biso   1.000  C
  C43      1.0000 0.01870  0.70260  0.87170  Biso   1.000  C
  C44      1.0000 0.97010  0.73250  0.93440  Biso   1.000  C
  H16      1.0000 0.99760  0.74240  0.98150  Biso   1.000  H
  C45      1.0000 0.84920  0.73200  0.85990  Biso   1.000  C
  H17      1.0000 0.79040  0.74230  0.85550  Biso   1.000  H
  C46      1.0000 0.97390  0.68820  0.80300  Biso   1.000  C
  H18      1.0000 0.00350  0.66750  0.76020  Biso   1.000  H
  O11      1.0000 0.43420  0.58290  0.85650  Biso   1.000  O
  O12      1.0000 0.36165  0.46480  0.87110  Biso   1.000  O
  C47      1.0000 0.42720  0.50770  0.86500  Biso   1.000  C
  C48      1.0000 0.51150  0.45970  0.86690  Biso   1.000  C
  F16      1.0000 0.52060  0.42650  0.93960  Biso   1.000  F
  F17      1.0000 0.57810  0.50240  0.87420  Biso   1.000  F
  F18      1.0000 0.51310  0.39320  0.82400  Biso   1.000  F
  Ag25     1.0000 0.74151  0.95328  0.09753  Biso   1.000  Ag
  Ag26     1.0000 0.28100  0.70281  0.98171  Biso   1.000  Ag
  Ag27     1.0000 0.31157  0.81566  0.31665  Biso   1.000  Ag
  Ag28     1.0000 0.69010  0.67583  0.14168  Biso   1.000  Ag
  N13      1.0000 0.38570  0.75280  0.07120  Biso   1.000  N
  N14      1.0000 0.38940  0.79670  0.20330  Biso   1.000  N
  C49      1.0000 0.68680  0.82960  0.12050  Biso   1.000  C
  C50      1.0000 0.61050  0.81140  0.12260  Biso   1.000  C
  C51      1.0000 0.51870  0.79740  0.12830  Biso   1.000  C
  C52      1.0000 0.47010  0.76750  0.06560  Biso   1.000  C
  H19      1.0000 0.49760  0.75760  0.01850  Biso   1.000  H
  C53      1.0000 0.34920  0.76800  0.14010  Biso   1.000  C
  H20      1.0000 0.29040  0.75770  0.14450  Biso   1.000  H
  C54      1.0000 0.47390  0.81180  0.19700  Biso   1.000  C
  H21      1.0000 0.50350  0.83250  0.23980  Biso   1.000  H
  O13      1.0000 0.93420  0.91710  0.14350  Biso   1.000  O
  O14      1.0000 0.86165  0.03520  0.12890  Biso   1.000  O
  C55      1.0000 0.92720  0.99230  0.13500  Biso   1.000  C
  C56      1.0000 0.01150  0.04030  0.13310  Biso   1.000  C
  F19      1.0000 0.02060  0.07350  0.06040  Biso   1.000  F
  F20      1.0000 0.07810  0.99760  0.12580  Biso   1.000  F
  F21      1.0000 0.01310  0.10680  0.17600  Biso   1.000  F
  Ag29     1.0000 0.75849  0.04672  0.59753  Biso   1.000  Ag
  Ag30     1.0000 0.21900  0.29719  0.48171  Biso   1.000  Ag
  Ag31     1.0000 0.18843  0.18434  0.81665  Biso   1.000  Ag
  Ag32     1.0000 0.80990  0.32417  0.64168  Biso   1.000  Ag
  N15      1.0000 0.11430  0.24720  0.57120  Biso   1.000  N
  N16      1.0000 0.11060  0.20330  0.70330  Biso   1.000  N
  C57      1.0000 0.81320  0.17040  0.62050  Biso   1.000  C
  C58      1.0000 0.88950  0.18860  0.62260  Biso   1.000  C
  C59      1.0000 0.98130  0.20260  0.62830  Biso   1.000  C
  C60      1.0000 0.02990  0.23250  0.56560  Biso   1.000  C
  H22      1.0000 0.00240  0.24240  0.51850  Biso   1.000  H
  C61      1.0000 0.15080  0.23200  0.64010  Biso   1.000  C
  H23      1.0000 0.20960  0.24230  0.64450  Biso   1.000  H
  C62      1.0000 0.02610  0.18820  0.69700  Biso   1.000  C
  H24      1.0000 0.99650  0.16750  0.73980  Biso   1.000  H
  O15      1.0000 0.56580  0.08290  0.64350  Biso   1.000  O
  O16      1.0000 0.63835  0.96480  0.62890  Biso   1.000  O
  C63      1.0000 0.57280  0.00770  0.63500  Biso   1.000  C
  C64      1.0000 0.48850  0.95970  0.63310  Biso   1.000  C
  F22      1.0000 0.47940  0.92650  0.56040  Biso   1.000  F
  F23      1.0000 0.42190  0.00240  0.62580  Biso   1.000  F
  F24      1.0000 0.48690  0.89320  0.67600  Biso   1.000  F
