data_image0
_cell_length_a       18.7958
_cell_length_b       8.2622
_cell_length_c       18.855
_cell_angle_alpha    90
_cell_angle_beta     90
_cell_angle_gamma    90

_symmetry_space_group_name_H-M    "P 1"
_symmetry_int_tables_number       1

loop_
  _symmetry_equiv_pos_as_xyz
  'x, y, z'

loop_
  _atom_site_label
  _atom_site_occupancy
  _atom_site_fract_x
  _atom_site_fract_y
  _atom_site_fract_z
  _atom_site_thermal_displace_type
  _atom_site_B_iso_or_equiv
  _atom_site_type_symbol
  Ni1      1.0000 0.06364  0.98636  0.24743  Biso   1.000  Ni
  P1       1.0000 0.97321  0.79840  0.36017  Biso   1.000  P
  P2       1.0000 0.95890  0.16290  0.34609  Biso   1.000  P
  O1       1.0000 0.94000  0.63990  0.33800  Biso   1.000  O
  O2       1.0000 0.96410  0.81540  0.44080  Biso   1.000  O
  O3       1.0000 0.04980  0.82620  0.33600  Biso   1.000  O
  O4       1.0000 0.91180  0.29850  0.31970  Biso   1.000  O
  O5       1.0000 0.03450  0.16940  0.31550  Biso   1.000  O
  O6       1.0000 0.95900  0.15970  0.42670  Biso   1.000  O
  O7       1.0000 0.94958  0.95400  0.24127  Biso   1.000  O
  H1       1.0000 0.93930  0.86270  0.22320  Biso   1.000  H
  N1       1.0000 0.67120  0.03860  0.23347  Biso   1.000  N
  C1       1.0000 0.92517  0.96310  0.31462  Biso   1.000  C
  C2       1.0000 0.84451  0.94040  0.32209  Biso   1.000  C
  H2       1.0000 0.84210  0.03520  0.35140  Biso   1.000  H
  H3       1.0000 0.82570  0.87640  0.36030  Biso   1.000  H
  C3       1.0000 0.79429  0.01890  0.26917  Biso   1.000  C
  C4       1.0000 0.81403  0.11870  0.21329  Biso   1.000  C
  H4       1.0000 0.86300  0.14710  0.20590  Biso   1.000  H
  C5       1.0000 0.76085  0.17690  0.16790  Biso   1.000  C
  H5       1.0000 0.77340  0.24480  0.12850  Biso   1.000  H
  C6       1.0000 0.69032  0.13700  0.17971  Biso   1.000  C
  H6       1.0000 0.65430  0.18030  0.14900  Biso   1.000  H
  C7       1.0000 0.72272  0.98190  0.27660  Biso   1.000  C
  H7       1.0000 0.70900  0.91170  0.31480  Biso   1.000  H
  Ni2      1.0000 0.43636  0.01364  0.74743  Biso   1.000  Ni
  P3       1.0000 0.52679  0.20160  0.86017  Biso   1.000  P
  P4       1.0000 0.54110  0.83710  0.84609  Biso   1.000  P
  O8       1.0000 0.56000  0.36010  0.83800  Biso   1.000  O
  O9       1.0000 0.53590  0.18460  0.94080  Biso   1.000  O
  O10      1.0000 0.45020  0.17380  0.83600  Biso   1.000  O
  O11      1.0000 0.58820  0.70150  0.81970  Biso   1.000  O
  O12      1.0000 0.46550  0.83060  0.81550  Biso   1.000  O
  O13      1.0000 0.54100  0.84030  0.92670  Biso   1.000  O
  O14      1.0000 0.55042  0.04600  0.74127  Biso   1.000  O
  H8       1.0000 0.56070  0.13730  0.72320  Biso   1.000  H
  N2       1.0000 0.82880  0.96140  0.73347  Biso   1.000  N
  C8       1.0000 0.57483  0.03690  0.81462  Biso   1.000  C
  C9       1.0000 0.65549  0.05960  0.82209  Biso   1.000  C
  H9       1.0000 0.65790  0.96480  0.85140  Biso   1.000  H
  H10      1.0000 0.67430  0.12360  0.86030  Biso   1.000  H
  C10      1.0000 0.70571  0.98110  0.76917  Biso   1.000  C
  C11      1.0000 0.68597  0.88130  0.71329  Biso   1.000  C
  H11      1.0000 0.63700  0.85290  0.70590  Biso   1.000  H
  C12      1.0000 0.73915  0.82310  0.66790  Biso   1.000  C
  H12      1.0000 0.72660  0.75520  0.62850  Biso   1.000  H
  C13      1.0000 0.80968  0.86300  0.67971  Biso   1.000  C
  H13      1.0000 0.84570  0.81970  0.64900  Biso   1.000  H
  C14      1.0000 0.77728  0.01810  0.77660  Biso   1.000  C
  H14      1.0000 0.79100  0.08830  0.81480  Biso   1.000  H
  Ni3      1.0000 0.93636  0.48636  0.25257  Biso   1.000  Ni
  P5       1.0000 0.02679  0.29840  0.13983  Biso   1.000  P
  P6       1.0000 0.04110  0.66290  0.15391  Biso   1.000  P
  O15      1.0000 0.06000  0.13990  0.16200  Biso   1.000  O
  O16      1.0000 0.03590  0.31540  0.05920  Biso   1.000  O
  O17      1.0000 0.95020  0.32620  0.16400  Biso   1.000  O
  O18      1.0000 0.08820  0.79850  0.18030  Biso   1.000  O
  O19      1.0000 0.96550  0.66940  0.18450  Biso   1.000  O
  O20      1.0000 0.04100  0.65970  0.07330  Biso   1.000  O
  O21      1.0000 0.05042  0.45400  0.25873  Biso   1.000  O
  H15      1.0000 0.06070  0.36270  0.27680  Biso   1.000  H
  N3       1.0000 0.32880  0.53860  0.26653  Biso   1.000  N
  C15      1.0000 0.07483  0.46310  0.18538  Biso   1.000  C
  C16      1.0000 0.15549  0.44040  0.17791  Biso   1.000  C
  H16      1.0000 0.15790  0.53520  0.14860  Biso   1.000  H
  H17      1.0000 0.17430  0.37640  0.13970  Biso   1.000  H
  C17      1.0000 0.20571  0.51890  0.23083  Biso   1.000  C
  C18      1.0000 0.18597  0.61870  0.28671  Biso   1.000  C
  H18      1.0000 0.13700  0.64710  0.29410  Biso   1.000  H
  C19      1.0000 0.23915  0.67690  0.33210  Biso   1.000  C
  H19      1.0000 0.22660  0.74480  0.37150  Biso   1.000  H
  C20      1.0000 0.30968  0.63700  0.32029  Biso   1.000  C
  H20      1.0000 0.34570  0.68030  0.35100  Biso   1.000  H
  C21      1.0000 0.27728  0.48190  0.22340  Biso   1.000  C
  H21      1.0000 0.29100  0.41170  0.18520  Biso   1.000  H
  Ni4      1.0000 0.56364  0.51364  0.75257  Biso   1.000  Ni
  P7       1.0000 0.47321  0.70160  0.63983  Biso   1.000  P
  P8       1.0000 0.45890  0.33710  0.65391  Biso   1.000  P
  O22      1.0000 0.44000  0.86010  0.66200  Biso   1.000  O
  O23      1.0000 0.46410  0.68460  0.55920  Biso   1.000  O
  O24      1.0000 0.54980  0.67380  0.66400  Biso   1.000  O
  O25      1.0000 0.41180  0.20150  0.68030  Biso   1.000  O
  O26      1.0000 0.53450  0.33060  0.68450  Biso   1.000  O
  O27      1.0000 0.45900  0.34030  0.57330  Biso   1.000  O
  O28      1.0000 0.44958  0.54600  0.75873  Biso   1.000  O
  H22      1.0000 0.43930  0.63730  0.77680  Biso   1.000  H
  N4       1.0000 0.17120  0.46140  0.76653  Biso   1.000  N
  C22      1.0000 0.42517  0.53690  0.68538  Biso   1.000  C
  C23      1.0000 0.34451  0.55960  0.67791  Biso   1.000  C
  H23      1.0000 0.34210  0.46480  0.64860  Biso   1.000  H
  H24      1.0000 0.32570  0.62360  0.63970  Biso   1.000  H
  C24      1.0000 0.29429  0.48110  0.73083  Biso   1.000  C
  C25      1.0000 0.31403  0.38130  0.78671  Biso   1.000  C
  H25      1.0000 0.36300  0.35290  0.79410  Biso   1.000  H
  C26      1.0000 0.26085  0.32310  0.83210  Biso   1.000  C
  H26      1.0000 0.27340  0.25520  0.87150  Biso   1.000  H
  C27      1.0000 0.19032  0.36300  0.82029  Biso   1.000  C
  H27      1.0000 0.15430  0.31970  0.85100  Biso   1.000  H
  C28      1.0000 0.22272  0.51810  0.72340  Biso   1.000  C
  H28      1.0000 0.20900  0.58830  0.68520  Biso   1.000  H
  Ni5      1.0000 0.93636  0.01364  0.75257  Biso   1.000  Ni
  P9       1.0000 0.02679  0.20160  0.63983  Biso   1.000  P
  P10      1.0000 0.04110  0.83710  0.65391  Biso   1.000  P
  O29      1.0000 0.06000  0.36010  0.66200  Biso   1.000  O
  O30      1.0000 0.03590  0.18460  0.55920  Biso   1.000  O
  O31      1.0000 0.95020  0.17380  0.66400  Biso   1.000  O
  O32      1.0000 0.08820  0.70150  0.68030  Biso   1.000  O
  O33      1.0000 0.96550  0.83060  0.68450  Biso   1.000  O
  O34      1.0000 0.04100  0.84030  0.57330  Biso   1.000  O
  O35      1.0000 0.05042  0.04600  0.75873  Biso   1.000  O
  H29      1.0000 0.06070  0.13730  0.77680  Biso   1.000  H
  N5       1.0000 0.32880  0.96140  0.76653  Biso   1.000  N
  C29      1.0000 0.07483  0.03690  0.68538  Biso   1.000  C
  C30      1.0000 0.15549  0.05960  0.67791  Biso   1.000  C
  H30      1.0000 0.15790  0.96480  0.64860  Biso   1.000  H
  H31      1.0000 0.17430  0.12360  0.63970  Biso   1.000  H
  C31      1.0000 0.20571  0.98110  0.73083  Biso   1.000  C
  C32      1.0000 0.18597  0.88130  0.78671  Biso   1.000  C
  H32      1.0000 0.13700  0.85290  0.79410  Biso   1.000  H
  C33      1.0000 0.23915  0.82310  0.83210  Biso   1.000  C
  H33      1.0000 0.22660  0.75520  0.87150  Biso   1.000  H
  C34      1.0000 0.30968  0.86300  0.82029  Biso   1.000  C
  H34      1.0000 0.34570  0.81970  0.85100  Biso   1.000  H
  C35      1.0000 0.27728  0.01810  0.72340  Biso   1.000  C
  H35      1.0000 0.29100  0.08830  0.68520  Biso   1.000  H
  Ni6      1.0000 0.56364  0.98636  0.25257  Biso   1.000  Ni
  P11      1.0000 0.47321  0.79840  0.13983  Biso   1.000  P
  P12      1.0000 0.45890  0.16290  0.15391  Biso   1.000  P
  O36      1.0000 0.44000  0.63990  0.16200  Biso   1.000  O
  O37      1.0000 0.46410  0.81540  0.05920  Biso   1.000  O
  O38      1.0000 0.54980  0.82620  0.16400  Biso   1.000  O
  O39      1.0000 0.41180  0.29850  0.18030  Biso   1.000  O
  O40      1.0000 0.53450  0.16940  0.18450  Biso   1.000  O
  O41      1.0000 0.45900  0.15970  0.07330  Biso   1.000  O
  O42      1.0000 0.44958  0.95400  0.25873  Biso   1.000  O
  H36      1.0000 0.43930  0.86270  0.27680  Biso   1.000  H
  N6       1.0000 0.17120  0.03860  0.26653  Biso   1.000  N
  C36      1.0000 0.42517  0.96310  0.18538  Biso   1.000  C
  C37      1.0000 0.34451  0.94040  0.17791  Biso   1.000  C
  H37      1.0000 0.34210  0.03520  0.14860  Biso   1.000  H
  H38      1.0000 0.32570  0.87640  0.13970  Biso   1.000  H
  C38      1.0000 0.29429  0.01890  0.23083  Biso   1.000  C
  C39      1.0000 0.31403  0.11870  0.28671  Biso   1.000  C
  H39      1.0000 0.36300  0.14710  0.29410  Biso   1.000  H
  C40      1.0000 0.26085  0.17690  0.33210  Biso   1.000  C
  H40      1.0000 0.27340  0.24480  0.37150  Biso   1.000  H
  C41      1.0000 0.19032  0.13700  0.32029  Biso   1.000  C
  H41      1.0000 0.15430  0.18030  0.35100  Biso   1.000  H
  C42      1.0000 0.22272  0.98190  0.22340  Biso   1.000  C
  H42      1.0000 0.20900  0.91170  0.18520  Biso   1.000  H
  Ni7      1.0000 0.06364  0.51364  0.74743  Biso   1.000  Ni
  P13      1.0000 0.97321  0.70160  0.86017  Biso   1.000  P
  P14      1.0000 0.95890  0.33710  0.84609  Biso   1.000  P
  O43      1.0000 0.94000  0.86010  0.83800  Biso   1.000  O
  O44      1.0000 0.96410  0.68460  0.94080  Biso   1.000  O
  O45      1.0000 0.04980  0.67380  0.83600  Biso   1.000  O
  O46      1.0000 0.91180  0.20150  0.81970  Biso   1.000  O
  O47      1.0000 0.03450  0.33060  0.81550  Biso   1.000  O
  O48      1.0000 0.95900  0.34030  0.92670  Biso   1.000  O
  O49      1.0000 0.94958  0.54600  0.74127  Biso   1.000  O
  H43      1.0000 0.93930  0.63730  0.72320  Biso   1.000  H
  N7       1.0000 0.67120  0.46140  0.73347  Biso   1.000  N
  C43      1.0000 0.92517  0.53690  0.81462  Biso   1.000  C
  C44      1.0000 0.84451  0.55960  0.82209  Biso   1.000  C
  H44      1.0000 0.84210  0.46480  0.85140  Biso   1.000  H
  H45      1.0000 0.82570  0.62360  0.86030  Biso   1.000  H
  C45      1.0000 0.79429  0.48110  0.76917  Biso   1.000  C
  C46      1.0000 0.81403  0.38130  0.71329  Biso   1.000  C
  H46      1.0000 0.86300  0.35290  0.70590  Biso   1.000  H
  C47      1.0000 0.76085  0.32310  0.66790  Biso   1.000  C
  H47      1.0000 0.77340  0.25520  0.62850  Biso   1.000  H
  C48      1.0000 0.69032  0.36300  0.67971  Biso   1.000  C
  H48      1.0000 0.65430  0.31970  0.64900  Biso   1.000  H
  C49      1.0000 0.72272  0.51810  0.77660  Biso   1.000  C
  H49      1.0000 0.70900  0.58830  0.81480  Biso   1.000  H
  Ni8      1.0000 0.43636  0.48636  0.24743  Biso   1.000  Ni
  P15      1.0000 0.52679  0.29840  0.36017  Biso   1.000  P
  P16      1.0000 0.54110  0.66290  0.34609  Biso   1.000  P
  O50      1.0000 0.56000  0.13990  0.33800  Biso   1.000  O
  O51      1.0000 0.53590  0.31540  0.44080  Biso   1.000  O
  O52      1.0000 0.45020  0.32620  0.33600  Biso   1.000  O
  O53      1.0000 0.58820  0.79850  0.31970  Biso   1.000  O
  O54      1.0000 0.46550  0.66940  0.31550  Biso   1.000  O
  O55      1.0000 0.54100  0.65970  0.42670  Biso   1.000  O
  O56      1.0000 0.55042  0.45400  0.24127  Biso   1.000  O
  H50      1.0000 0.56070  0.36270  0.22320  Biso   1.000  H
  N8       1.0000 0.82880  0.53860  0.23347  Biso   1.000  N
  C50      1.0000 0.57483  0.46310  0.31462  Biso   1.000  C
  C51      1.0000 0.65549  0.44040  0.32209  Biso   1.000  C
  H51      1.0000 0.65790  0.53520  0.35140  Biso   1.000  H
  H52      1.0000 0.67430  0.37640  0.36030  Biso   1.000  H
  C52      1.0000 0.70571  0.51890  0.26917  Biso   1.000  C
  C53      1.0000 0.68597  0.61870  0.21329  Biso   1.000  C
  H53      1.0000 0.63700  0.64710  0.20590  Biso   1.000  H
  C54      1.0000 0.73915  0.67690  0.16790  Biso   1.000  C
  H54      1.0000 0.72660  0.74480  0.12850  Biso   1.000  H
  C55      1.0000 0.80968  0.63700  0.17971  Biso   1.000  C
  H55      1.0000 0.84570  0.68030  0.14900  Biso   1.000  H
  C56      1.0000 0.77728  0.48190  0.27660  Biso   1.000  C
  H56      1.0000 0.79100  0.41170  0.31480  Biso   1.000  H
  Ni9      1.0000 0.00000  0.00000  0.50000  Biso   1.000  Ni
  Ni10     1.0000 0.50000  0.00000  0.00000  Biso   1.000  Ni
  Ni11     1.0000 0.00000  0.50000  0.00000  Biso   1.000  Ni
  Ni12     1.0000 0.50000  0.50000  0.50000  Biso   1.000  Ni
