data_RUFMUA_clean
_audit_creation_date              2014-07-02
_audit_creation_method            'Materials Studio'
_symmetry_space_group_name_H-M    'P1'
_symmetry_Int_Tables_number       1
_symmetry_cell_setting            triclinic
loop_
_symmetry_equiv_pos_as_xyz
  x,y,z
_cell_length_a                    6.8530
_cell_length_b                    9.0070
_cell_length_c                    9.9870
_cell_angle_alpha                 102.1300
_cell_angle_beta                  100.5300
_cell_angle_gamma                 110.2100
loop_
_atom_site_label
_atom_site_type_symbol
_atom_site_fract_x
_atom_site_fract_y
_atom_site_fract_z
_atom_site_U_iso_or_equiv
_atom_site_adp_type
_atom_site_occupancy
Ca1    Ca    0.68520   0.41532   0.39009   0.01267  Uiso   1.00
Ca2    Ca    0.31480   0.58468   0.60991   0.01267  Uiso   1.00
H1     H     0.49480   0.22910   0.04160   0.01267  Uiso   1.00
H2     H     0.70440   0.49120   0.90930   0.01267  Uiso   1.00
H3     H     0.12670   0.88480   0.24310   0.01267  Uiso   1.00
H4     H     0.15590   0.87580   0.83850   0.01267  Uiso   1.00
H5     H     0.50520   0.77090   0.95840   0.01267  Uiso   1.00
H6     H     0.29560   0.50880   0.09070   0.01267  Uiso   1.00
H7     H     0.87330   0.11520   0.75690   0.01267  Uiso   1.00
H8     H     0.84410   0.12420   0.16150   0.01267  Uiso   1.00
C1     C     0.91530   0.67230   0.85070   0.01267  Uiso   1.00
C2     C     0.82260   0.59630   0.94500   0.01267  Uiso   1.00
C3     C     0.90370   0.67450   0.09150   0.01267  Uiso   1.00
C4     C     0.07380   0.83010   0.14350   0.01267  Uiso   1.00
C5     C     0.16650   0.90560   0.04920   0.01267  Uiso   1.00
C6     C     0.08960   0.82570   0.90240   0.01267  Uiso   1.00
C7     C     0.83220   0.58980   0.69330   0.01267  Uiso   1.00
C8     C     0.80630   0.59140   0.19310   0.01267  Uiso   1.00
C9     C     0.34420   0.07420   0.10580   0.01267  Uiso   1.00
C10    C     0.08470   0.32770   0.14930   0.01267  Uiso   1.00
C11    C     0.17740   0.40370   0.05500   0.01267  Uiso   1.00
C12    C     0.09630   0.32550   0.90850   0.01267  Uiso   1.00
C13    C     0.92620   0.16990   0.85650   0.01267  Uiso   1.00
C14    C     0.83350   0.09440   0.95080   0.01267  Uiso   1.00
C15    C     0.91040   0.17430   0.09760   0.01267  Uiso   1.00
C16    C     0.16780   0.41020   0.30670   0.01267  Uiso   1.00
C17    C     0.19370   0.40860   0.80690   0.01267  Uiso   1.00
C18    C     0.65580   0.92580   0.89420   0.01267  Uiso   1.00
O1     O     0.96690   0.59150   0.62230   0.01267  Uiso   1.00
O2     O     0.63130   0.52090   0.63470   0.01267  Uiso   1.00
O3     O     0.67450   0.44220   0.14700   0.01267  Uiso   1.00
O4     O     0.85980   0.67220   0.32360   0.01267  Uiso   1.00
O5     O     0.40630   0.13660   0.00510   0.01267  Uiso   1.00
O6     O     0.42170   0.14750   0.23310   0.01267  Uiso   1.00
O7     O     0.03310   0.40850   0.37770   0.01267  Uiso   1.00
O8     O     0.36870   0.47910   0.36530   0.01267  Uiso   1.00
O9     O     0.32550   0.55780   0.85300   0.01267  Uiso   1.00
O10    O     0.14020   0.32780   0.67640   0.01267  Uiso   1.00
O11    O     0.59370   0.86340   0.99490   0.01267  Uiso   1.00
O12    O     0.57830   0.85250   0.76690   0.01267  Uiso   1.00
