data_image0
_cell_length_a       13.6546
_cell_length_b       14.2126
_cell_length_c       14.6377
_cell_angle_alpha    76.057
_cell_angle_beta     86.39
_cell_angle_gamma    67.91

_symmetry_space_group_name_H-M    "P 1"
_symmetry_int_tables_number       1

loop_
  _symmetry_equiv_pos_as_xyz
  'x, y, z'

loop_
  _atom_site_label
  _atom_site_occupancy
  _atom_site_fract_x
  _atom_site_fract_y
  _atom_site_fract_z
  _atom_site_thermal_displace_type
  _atom_site_B_iso_or_equiv
  _atom_site_type_symbol
  Zn1      1.0000 0.66531  0.14237  0.22925  Biso   1.000  Zn
  Zn2      1.0000 0.01581  0.37062  0.14125  Biso   1.000  Zn
  Zn3      1.0000 0.85043  0.24347  0.22410  Biso   1.000  Zn
  Zn4      1.0000 0.26143  0.23310  0.10812  Biso   1.000  Zn
  Zn5      1.0000 0.51164  0.05299  0.12742  Biso   1.000  Zn
  O1       1.0000 0.81730  0.81850  0.77610  Biso   1.000  O
  O2       1.0000 0.36180  0.07730  0.10020  Biso   1.000  O
  O3       1.0000 0.64410  0.71550  0.99250  Biso   1.000  O
  O4       1.0000 0.15120  0.38530  0.09160  Biso   1.000  O
  O5       1.0000 0.74240  0.81460  0.64490  Biso   1.000  O
  O6       1.0000 0.89760  0.51140  0.08170  Biso   1.000  O
  H1       1.0000 0.86700  0.54800  0.02920  Biso   1.000  H
  O7       1.0000 0.93970  0.31180  0.24640  Biso   1.000  O
  O8       1.0000 0.99540  0.28810  0.05960  Biso   1.000  O
  O9       1.0000 0.47430  0.82090  0.95890  Biso   1.000  O
  O10      1.0000 0.09360  0.88460  0.82020  Biso   1.000  O
  O11      1.0000 0.59310  0.29250  0.19800  Biso   1.000  O
  O12      1.0000 0.16180  0.20860  0.01830  Biso   1.000  O
  O13      1.0000 0.62370  0.94080  0.07120  Biso   1.000  O
  H2       1.0000 0.63700  0.92900  0.01600  Biso   1.000  H
  O14      1.0000 0.55260  0.09010  0.24140  Biso   1.000  O
  O15      1.0000 0.81100  0.19590  0.35540  Biso   1.000  O
  O16      1.0000 0.72600  0.34870  0.15270  Biso   1.000  O
  O17      1.0000 0.22940  0.92110  0.85600  Biso   1.000  O
  O18      1.0000 0.73620  0.08060  0.35290  Biso   1.000  O
  N1       1.0000 0.50780  0.91880  0.23240  Biso   1.000  N
  C1       1.0000 0.13190  0.93850  0.85040  Biso   1.000  C
  C2       1.0000 0.06700  0.22680  0.01630  Biso   1.000  C
  N2       1.0000 0.02650  0.45900  0.23800  Biso   1.000  N
  C3       1.0000 0.58260  0.55040  0.08300  Biso   1.000  C
  H3       1.0000 0.65450  0.53690  0.07610  Biso   1.000  H
  C4       1.0000 0.79670  0.98110  0.54070  Biso   1.000  C
  H4       1.0000 0.75250  0.96060  0.51100  Biso   1.000  H
  C5       1.0000 0.62990  0.36150  0.16250  Biso   1.000  C
  C6       1.0000 0.17100  0.46190  0.12860  Biso   1.000  C
  H5       1.0000 0.13250  0.53120  0.09040  Biso   1.000  H
  H6       1.0000 0.24580  0.44970  0.12590  Biso   1.000  H
  C7       1.0000 0.09470  0.08780  0.92930  Biso   1.000  C
  H7       1.0000 0.16710  0.06770  0.93890  Biso   1.000  H
  C8       1.0000 0.33730  0.98940  0.14770  Biso   1.000  C
  H8       1.0000 0.35520  0.93970  0.10830  Biso   1.000  H
  H9       1.0000 0.26180  0.01200  0.15770  Biso   1.000  H
  C9       1.0000 0.90270  0.95770  0.67370  Biso   1.000  C
  H10      1.0000 0.92930  0.92220  0.73450  Biso   1.000  H
  C10      1.0000 0.83310  0.93030  0.63210  Biso   1.000  C
  C11      1.0000 0.13630  0.45590  0.23040  Biso   1.000  C
  H11      1.0000 0.18340  0.39170  0.27060  Biso   1.000  H
  H12      1.0000 0.14050  0.51410  0.25130  Biso   1.000  H
  C12      1.0000 0.66150  0.84160  0.13960  Biso   1.000  C
  H13      1.0000 0.71300  0.84110  0.18260  Biso   1.000  H
  H14      1.0000 0.69540  0.78550  0.10780  Biso   1.000  H
  C13      1.0000 0.92060  0.36080  0.32500  Biso   1.000  C
  H15      1.0000 0.92020  0.31040  0.38290  Biso   1.000  H
  H16      1.0000 0.85210  0.41770  0.31630  Biso   1.000  H
  C14      1.0000 0.53580  0.02770  0.32750  Biso   1.000  C
  H17      1.0000 0.46270  0.05800  0.34460  Biso   1.000  H
  H18      1.0000 0.58030  0.02740  0.37670  Biso   1.000  H
  C15      1.0000 0.05610  0.03230  0.88310  Biso   1.000  C
  C16      1.0000 0.88120  0.15040  0.89770  Biso   1.000  C
  H19      1.0000 0.80900  0.17450  0.88410  Biso   1.000  H
  C17      1.0000 0.56000  0.91750  0.32080  Biso   1.000  C
  H20      1.0000 0.53410  0.88090  0.37550  Biso   1.000  H
  H21      1.0000 0.63590  0.88120  0.31920  Biso   1.000  H
  C18      1.0000 0.91780  0.20100  0.94450  Biso   1.000  C
  H22      1.0000 0.87040  0.25670  0.96680  Biso   1.000  H
  C19      1.0000 0.82660  0.06340  0.49280  Biso   1.000  C
  C20      1.0000 0.50890  0.65080  0.04830  Biso   1.000  C
  C21      1.0000 0.79460  0.84740  0.68870  Biso   1.000  C
  C22      1.0000 0.02550  0.17170  0.96020  Biso   1.000  C
  C23      1.0000 0.55000  0.47250  0.12660  Biso   1.000  C
  C24      1.0000 0.89490  0.09080  0.53670  Biso   1.000  C
  H23      1.0000 0.91480  0.14570  0.50540  Biso   1.000  H
  C25      1.0000 0.40280  0.67150  0.06030  Biso   1.000  C
  H24      1.0000 0.35290  0.73800  0.03680  Biso   1.000  H
  C26      1.0000 0.93330  0.03790  0.62530  Biso   1.000  C
  H25      1.0000 0.98070  0.05590  0.65370  Biso   1.000  H
  C27      1.0000 0.94870  0.06260  0.86910  Biso   1.000  C
  H26      1.0000 0.92210  0.02480  0.84090  Biso   1.000  H
  C28      1.0000 0.39650  0.93550  0.24260  Biso   1.000  C
  H27      1.0000 0.36660  0.97830  0.28750  Biso   1.000  H
  H28      1.0000 0.38880  0.86890  0.26660  Biso   1.000  H
  C29      1.0000 0.44400  0.49270  0.13980  Biso   1.000  C
  H29      1.0000 0.42180  0.43910  0.17020  Biso   1.000  H
  C30      1.0000 0.56740  0.82540  0.19450  Biso   1.000  C
  H30      1.0000 0.52140  0.81510  0.15320  Biso   1.000  H
  H31      1.0000 0.59260  0.76370  0.24580  Biso   1.000  H
  C31      1.0000 0.85550  0.57310  0.15080  Biso   1.000  C
  H32      1.0000 0.80920  0.54580  0.19230  Biso   1.000  H
  H33      1.0000 0.81510  0.64510  0.11970  Biso   1.000  H
  C32      1.0000 0.94570  0.56730  0.20550  Biso   1.000  C
  H34      1.0000 0.91900  0.59540  0.26020  Biso   1.000  H
  H35      1.0000 0.98000  0.61110  0.16700  Biso   1.000  H
  C33      1.0000 0.78740  0.11880  0.39240  Biso   1.000  C
  C34      1.0000 0.54600  0.73490  0.99650  Biso   1.000  C
  C35      1.0000 0.00590  0.40180  0.33140  Biso   1.000  C
  H36      1.0000 0.98490  0.44820  0.37410  Biso   1.000  H
  H37      1.0000 0.07040  0.34390  0.35700  Biso   1.000  H
  C36      1.0000 0.37190  0.59090  0.10830  Biso   1.000  C
  H38      1.0000 0.30060  0.60430  0.11920  Biso   1.000  H
  Zn6      1.0000 0.33469  0.85763  0.77075  Biso   1.000  Zn
  Zn7      1.0000 0.98419  0.62938  0.85875  Biso   1.000  Zn
  Zn8      1.0000 0.14957  0.75653  0.77590  Biso   1.000  Zn
  Zn9      1.0000 0.73857  0.76690  0.89188  Biso   1.000  Zn
  Zn10     1.0000 0.48836  0.94701  0.87258  Biso   1.000  Zn
  O19      1.0000 0.18270  0.18150  0.22390  Biso   1.000  O
  O20      1.0000 0.63820  0.92270  0.89980  Biso   1.000  O
  O21      1.0000 0.35590  0.28450  0.00750  Biso   1.000  O
  O22      1.0000 0.84880  0.61470  0.90840  Biso   1.000  O
  O23      1.0000 0.25760  0.18540  0.35510  Biso   1.000  O
  O24      1.0000 0.10240  0.48860  0.91830  Biso   1.000  O
  H39      1.0000 0.13300  0.45200  0.97080  Biso   1.000  H
  O25      1.0000 0.06030  0.68820  0.75360  Biso   1.000  O
  O26      1.0000 0.00460  0.71190  0.94040  Biso   1.000  O
  O27      1.0000 0.52570  0.17910  0.04110  Biso   1.000  O
  O28      1.0000 0.90640  0.11540  0.17980  Biso   1.000  O
  O29      1.0000 0.40690  0.70750  0.80200  Biso   1.000  O
  O30      1.0000 0.83820  0.79140  0.98170  Biso   1.000  O
  O31      1.0000 0.37630  0.05920  0.92880  Biso   1.000  O
  H40      1.0000 0.36300  0.07100  0.98400  Biso   1.000  H
  O32      1.0000 0.44740  0.90990  0.75860  Biso   1.000  O
  O33      1.0000 0.18900  0.80410  0.64460  Biso   1.000  O
  O34      1.0000 0.27400  0.65130  0.84730  Biso   1.000  O
  O35      1.0000 0.77060  0.07890  0.14400  Biso   1.000  O
  O36      1.0000 0.26380  0.91940  0.64710  Biso   1.000  O
  N3       1.0000 0.49220  0.08120  0.76760  Biso   1.000  N
  C37      1.0000 0.86810  0.06150  0.14960  Biso   1.000  C
  C38      1.0000 0.93300  0.77320  0.98370  Biso   1.000  C
  N4       1.0000 0.97350  0.54100  0.76200  Biso   1.000  N
  C39      1.0000 0.41740  0.44960  0.91700  Biso   1.000  C
  H41      1.0000 0.34550  0.46310  0.92390  Biso   1.000  H
  C40      1.0000 0.20330  0.01890  0.45930  Biso   1.000  C
  H42      1.0000 0.24750  0.03940  0.48900  Biso   1.000  H
  C41      1.0000 0.37010  0.63850  0.83750  Biso   1.000  C
  C42      1.0000 0.82900  0.53810  0.87140  Biso   1.000  C
  H43      1.0000 0.86750  0.46880  0.90960  Biso   1.000  H
  H44      1.0000 0.75420  0.55030  0.87410  Biso   1.000  H
  C43      1.0000 0.90530  0.91220  0.07070  Biso   1.000  C
  H45      1.0000 0.83290  0.93230  0.06110  Biso   1.000  H
  C44      1.0000 0.66270  0.01060  0.85230  Biso   1.000  C
  H46      1.0000 0.64480  0.06030  0.89170  Biso   1.000  H
  H47      1.0000 0.73820  0.98800  0.84230  Biso   1.000  H
  C45      1.0000 0.09730  0.04230  0.32630  Biso   1.000  C
  H48      1.0000 0.07070  0.07780  0.26550  Biso   1.000  H
  C46      1.0000 0.16690  0.06970  0.36790  Biso   1.000  C
  C47      1.0000 0.86370  0.54410  0.76960  Biso   1.000  C
  H49      1.0000 0.81660  0.60830  0.72940  Biso   1.000  H
  H50      1.0000 0.85950  0.48590  0.74870  Biso   1.000  H
  C48      1.0000 0.33850  0.15840  0.86040  Biso   1.000  C
  H51      1.0000 0.28700  0.15890  0.81740  Biso   1.000  H
  H52      1.0000 0.30460  0.21450  0.89220  Biso   1.000  H
  C49      1.0000 0.07940  0.63920  0.67500  Biso   1.000  C
  H53      1.0000 0.07980  0.68960  0.61710  Biso   1.000  H
  H54      1.0000 0.14790  0.58230  0.68370  Biso   1.000  H
  C50      1.0000 0.46420  0.97230  0.67250  Biso   1.000  C
  H55      1.0000 0.53730  0.94200  0.65540  Biso   1.000  H
  H56      1.0000 0.41970  0.97260  0.62330  Biso   1.000  H
  C51      1.0000 0.94390  0.96770  0.11690  Biso   1.000  C
  C52      1.0000 0.11880  0.84960  0.10230  Biso   1.000  C
  H57      1.0000 0.19100  0.82550  0.11590  Biso   1.000  H
  C53      1.0000 0.44000  0.08250  0.67920  Biso   1.000  C
  H58      1.0000 0.46590  0.11910  0.62450  Biso   1.000  H
  H59      1.0000 0.36410  0.11880  0.68080  Biso   1.000  H
  C54      1.0000 0.08220  0.79900  0.05550  Biso   1.000  C
  H60      1.0000 0.12960  0.74330  0.03320  Biso   1.000  H
  C55      1.0000 0.17340  0.93660  0.50720  Biso   1.000  C
  C56      1.0000 0.49110  0.34920  0.95170  Biso   1.000  C
  C57      1.0000 0.20540  0.15260  0.31130  Biso   1.000  C
  C58      1.0000 0.97450  0.82830  0.03980  Biso   1.000  C
  C59      1.0000 0.45000  0.52750  0.87340  Biso   1.000  C
  C60      1.0000 0.10510  0.90920  0.46330  Biso   1.000  C
  H61      1.0000 0.08520  0.85430  0.49460  Biso   1.000  H
  C61      1.0000 0.59720  0.32850  0.93970  Biso   1.000  C
  H62      1.0000 0.64710  0.26200  0.96320  Biso   1.000  H
  C62      1.0000 0.06670  0.96210  0.37470  Biso   1.000  C
  H63      1.0000 0.01930  0.94410  0.34630  Biso   1.000  H
  C63      1.0000 0.05130  0.93740  0.13090  Biso   1.000  C
  H64      1.0000 0.07790  0.97520  0.15910  Biso   1.000  H
  C64      1.0000 0.60350  0.06450  0.75740  Biso   1.000  C
  H65      1.0000 0.63340  0.02170  0.71250  Biso   1.000  H
  H66      1.0000 0.61120  0.13110  0.73340  Biso   1.000  H
  C65      1.0000 0.55600  0.50730  0.86020  Biso   1.000  C
  H67      1.0000 0.57820  0.56090  0.82980  Biso   1.000  H
  C66      1.0000 0.43260  0.17460  0.80550  Biso   1.000  C
  H68      1.0000 0.47860  0.18490  0.84680  Biso   1.000  H
  H69      1.0000 0.40740  0.23630  0.75420  Biso   1.000  H
  C67      1.0000 0.14450  0.42690  0.84920  Biso   1.000  C
  H70      1.0000 0.19080  0.45420  0.80770  Biso   1.000  H
  H71      1.0000 0.18490  0.35490  0.88030  Biso   1.000  H
  C68      1.0000 0.05430  0.43270  0.79450  Biso   1.000  C
  H72      1.0000 0.08100  0.40460  0.73980  Biso   1.000  H
  H73      1.0000 0.02000  0.38890  0.83300  Biso   1.000  H
  C69      1.0000 0.21260  0.88120  0.60760  Biso   1.000  C
  C70      1.0000 0.45400  0.26510  0.00350  Biso   1.000  C
  C71      1.0000 0.99410  0.59820  0.66860  Biso   1.000  C
  H74      1.0000 0.01510  0.55180  0.62590  Biso   1.000  H
  H75      1.0000 0.92960  0.65610  0.64300  Biso   1.000  H
  C72      1.0000 0.62810  0.40910  0.89170  Biso   1.000  C
  H76      1.0000 0.69940  0.39570  0.88080  Biso   1.000  H
