data_image0
_cell_length_a       27.313
_cell_length_b       22.017
_cell_length_c       15.836
_cell_angle_alpha    90
_cell_angle_beta     103.218
_cell_angle_gamma    90

_symmetry_space_group_name_H-M    "P 1"
_symmetry_int_tables_number       1

loop_
  _symmetry_equiv_pos_as_xyz
  'x, y, z'

loop_
  _atom_site_label
  _atom_site_occupancy
  _atom_site_fract_x
  _atom_site_fract_y
  _atom_site_fract_z
  _atom_site_thermal_displace_type
  _atom_site_B_iso_or_equiv
  _atom_site_type_symbol
  Cu1      1.0000 0.81065  0.42414  0.75286  Biso   1.000  Cu
  N1       1.0000 0.74800  0.41390  0.87510  Biso   1.000  N
  N2       1.0000 0.77740  0.38190  0.83290  Biso   1.000  N
  N3       1.0000 0.75530  0.32190  0.92900  Biso   1.000  N
  N4       1.0000 0.84770  0.46850  0.68230  Biso   1.000  N
  O1       1.0000 0.79760  0.35590  0.67320  Biso   1.000  O
  O2       1.0000 0.72570  0.39480  0.59960  Biso   1.000  O
  O3       1.0000 0.93320  0.43840  0.45550  Biso   1.000  O
  O4       1.0000 0.99670  0.43880  0.38580  Biso   1.000  O
  O5       1.0000 0.78460  0.29500  0.10430  Biso   1.000  O
  O6       1.0000 0.84810  0.25640  0.06340  Biso   1.000  O
  C1       1.0000 0.70360  0.39300  0.99210  Biso   1.000  C
  H1       1.0000 0.69590  0.43560  0.98700  Biso   1.000  H
  H2       1.0000 0.72140  0.38420  0.05040  Biso   1.000  H
  H3       1.0000 0.67300  0.37000  0.97830  Biso   1.000  H
  C2       1.0000 0.73520  0.37680  0.93170  Biso   1.000  C
  C3       1.0000 0.78070  0.32610  0.86490  Biso   1.000  C
  C4       1.0000 0.80890  0.27340  0.83920  Biso   1.000  C
  H4       1.0000 0.83570  0.28820  0.81500  Biso   1.000  H
  H5       1.0000 0.78640  0.24920  0.79690  Biso   1.000  H
  H6       1.0000 0.82250  0.24910  0.88940  Biso   1.000  H
  C5       1.0000 0.88100  0.45170  0.63720  Biso   1.000  C
  C6       1.0000 0.89380  0.38850  0.61800  Biso   1.000  C
  H7       1.0000 0.88020  0.37980  0.55780  Biso   1.000  H
  H8       1.0000 0.87990  0.36080  0.65300  Biso   1.000  H
  H9       1.0000 0.92970  0.38390  0.63070  Biso   1.000  H
  C7       1.0000 0.75790  0.35610  0.61260  Biso   1.000  C
  C8       1.0000 0.75460  0.29990  0.55490  Biso   1.000  C
  C9       1.0000 0.71670  0.29380  0.48650  Biso   1.000  C
  H10      1.0000 0.69250  0.32430  0.47540  Biso   1.000  H
  C10      1.0000 0.78920  0.25660  0.57120  Biso   1.000  C
  H11      1.0000 0.81640  0.25910  0.61860  Biso   1.000  H
  C11      1.0000 0.83100  0.28690  0.11260  Biso   1.000  C
  C12      1.0000 0.86160  0.31820  0.19130  Biso   1.000  C
  C13      1.0000 0.84250  0.34060  0.25550  Biso   1.000  C
  H12      1.0000 0.80850  0.33490  0.25350  Biso   1.000  H
  C14      1.0000 0.91350  0.32320  0.19570  Biso   1.000  C
  H13      1.0000 0.92840  0.30510  0.15480  Biso   1.000  H
  C15      1.0000 0.95300  0.42260  0.39690  Biso   1.000  C
  C16      1.0000 0.92120  0.38290  0.32800  Biso   1.000  C
  C17      1.0000 0.87320  0.37340  0.32800  Biso   1.000  C
  H14      1.0000 0.85960  0.38740  0.37320  Biso   1.000  H
  C18      1.0000 0.94170  0.35750  0.26610  Biso   1.000  C
  H15      1.0000 0.97600  0.36280  0.26990  Biso   1.000  H
  Cu2      1.0000 0.31065  0.92414  0.75286  Biso   1.000  Cu
  N5       1.0000 0.24800  0.91390  0.87510  Biso   1.000  N
  N6       1.0000 0.27740  0.88190  0.83290  Biso   1.000  N
  N7       1.0000 0.25530  0.82190  0.92900  Biso   1.000  N
  N8       1.0000 0.34770  0.96850  0.68230  Biso   1.000  N
  O7       1.0000 0.29760  0.85590  0.67320  Biso   1.000  O
  O8       1.0000 0.22570  0.89480  0.59960  Biso   1.000  O
  O9       1.0000 0.43320  0.93840  0.45550  Biso   1.000  O
  O10      1.0000 0.49670  0.93880  0.38580  Biso   1.000  O
  O11      1.0000 0.28460  0.79500  0.10430  Biso   1.000  O
  O12      1.0000 0.34810  0.75640  0.06340  Biso   1.000  O
  C19      1.0000 0.20360  0.89300  0.99210  Biso   1.000  C
  H16      1.0000 0.19590  0.93560  0.98700  Biso   1.000  H
  H17      1.0000 0.22140  0.88420  0.05040  Biso   1.000  H
  H18      1.0000 0.17300  0.87000  0.97830  Biso   1.000  H
  C20      1.0000 0.23520  0.87680  0.93170  Biso   1.000  C
  C21      1.0000 0.28070  0.82610  0.86490  Biso   1.000  C
  C22      1.0000 0.30890  0.77340  0.83920  Biso   1.000  C
  H19      1.0000 0.33570  0.78820  0.81500  Biso   1.000  H
  H20      1.0000 0.28640  0.74920  0.79690  Biso   1.000  H
  H21      1.0000 0.32250  0.74910  0.88940  Biso   1.000  H
  C23      1.0000 0.38100  0.95170  0.63720  Biso   1.000  C
  C24      1.0000 0.39380  0.88850  0.61800  Biso   1.000  C
  H22      1.0000 0.38020  0.87980  0.55780  Biso   1.000  H
  H23      1.0000 0.37990  0.86080  0.65300  Biso   1.000  H
  H24      1.0000 0.42970  0.88390  0.63070  Biso   1.000  H
  C25      1.0000 0.25790  0.85610  0.61260  Biso   1.000  C
  C26      1.0000 0.25460  0.79990  0.55490  Biso   1.000  C
  C27      1.0000 0.21670  0.79380  0.48650  Biso   1.000  C
  H25      1.0000 0.19250  0.82430  0.47540  Biso   1.000  H
  C28      1.0000 0.28920  0.75660  0.57120  Biso   1.000  C
  H26      1.0000 0.31640  0.75910  0.61860  Biso   1.000  H
  C29      1.0000 0.33100  0.78690  0.11260  Biso   1.000  C
  C30      1.0000 0.36160  0.81820  0.19130  Biso   1.000  C
  C31      1.0000 0.34250  0.84060  0.25550  Biso   1.000  C
  H27      1.0000 0.30850  0.83490  0.25350  Biso   1.000  H
  C32      1.0000 0.41350  0.82320  0.19570  Biso   1.000  C
  H28      1.0000 0.42840  0.80510  0.15480  Biso   1.000  H
  C33      1.0000 0.45300  0.92260  0.39690  Biso   1.000  C
  C34      1.0000 0.42120  0.88290  0.32800  Biso   1.000  C
  C35      1.0000 0.37320  0.87340  0.32800  Biso   1.000  C
  H29      1.0000 0.35960  0.88740  0.37320  Biso   1.000  H
  C36      1.0000 0.44170  0.85750  0.26610  Biso   1.000  C
  H30      1.0000 0.47600  0.86280  0.26990  Biso   1.000  H
  Cu3      1.0000 0.18935  0.42414  0.24714  Biso   1.000  Cu
  N9       1.0000 0.25200  0.41390  0.12490  Biso   1.000  N
  N10      1.0000 0.22260  0.38190  0.16710  Biso   1.000  N
  N11      1.0000 0.24470  0.32190  0.07100  Biso   1.000  N
  N12      1.0000 0.15230  0.46850  0.31770  Biso   1.000  N
  O13      1.0000 0.20240  0.35590  0.32680  Biso   1.000  O
  O14      1.0000 0.27430  0.39480  0.40040  Biso   1.000  O
  O15      1.0000 0.06680  0.43840  0.54450  Biso   1.000  O
  O16      1.0000 0.00330  0.43880  0.61420  Biso   1.000  O
  O17      1.0000 0.21540  0.29500  0.89570  Biso   1.000  O
  O18      1.0000 0.15190  0.25640  0.93660  Biso   1.000  O
  C37      1.0000 0.29640  0.39300  0.00790  Biso   1.000  C
  H31      1.0000 0.30410  0.43560  0.01300  Biso   1.000  H
  H32      1.0000 0.27860  0.38420  0.94960  Biso   1.000  H
  H33      1.0000 0.32700  0.37000  0.02170  Biso   1.000  H
  C38      1.0000 0.26480  0.37680  0.06830  Biso   1.000  C
  C39      1.0000 0.21930  0.32610  0.13510  Biso   1.000  C
  C40      1.0000 0.19110  0.27340  0.16080  Biso   1.000  C
  H34      1.0000 0.16430  0.28820  0.18500  Biso   1.000  H
  H35      1.0000 0.21360  0.24920  0.20310  Biso   1.000  H
  H36      1.0000 0.17750  0.24910  0.11060  Biso   1.000  H
  C41      1.0000 0.11900  0.45170  0.36280  Biso   1.000  C
  C42      1.0000 0.10620  0.38850  0.38200  Biso   1.000  C
  H37      1.0000 0.11980  0.37980  0.44220  Biso   1.000  H
  H38      1.0000 0.12010  0.36080  0.34700  Biso   1.000  H
  H39      1.0000 0.07030  0.38390  0.36930  Biso   1.000  H
  C43      1.0000 0.24210  0.35610  0.38740  Biso   1.000  C
  C44      1.0000 0.24540  0.29990  0.44510  Biso   1.000  C
  C45      1.0000 0.28330  0.29380  0.51350  Biso   1.000  C
  H40      1.0000 0.30750  0.32430  0.52460  Biso   1.000  H
  C46      1.0000 0.21080  0.25660  0.42880  Biso   1.000  C
  H41      1.0000 0.18360  0.25910  0.38140  Biso   1.000  H
  C47      1.0000 0.16900  0.28690  0.88740  Biso   1.000  C
  C48      1.0000 0.13840  0.31820  0.80870  Biso   1.000  C
  C49      1.0000 0.15750  0.34060  0.74450  Biso   1.000  C
  H42      1.0000 0.19150  0.33490  0.74650  Biso   1.000  H
  C50      1.0000 0.08650  0.32320  0.80430  Biso   1.000  C
  H43      1.0000 0.07160  0.30510  0.84520  Biso   1.000  H
  C51      1.0000 0.04700  0.42260  0.60310  Biso   1.000  C
  C52      1.0000 0.07880  0.38290  0.67200  Biso   1.000  C
  C53      1.0000 0.12680  0.37340  0.67200  Biso   1.000  C
  H44      1.0000 0.14040  0.38740  0.62680  Biso   1.000  H
  C54      1.0000 0.05830  0.35750  0.73390  Biso   1.000  C
  H45      1.0000 0.02400  0.36280  0.73010  Biso   1.000  H
  Cu4      1.0000 0.68935  0.92414  0.24714  Biso   1.000  Cu
  N13      1.0000 0.75200  0.91390  0.12490  Biso   1.000  N
  N14      1.0000 0.72260  0.88190  0.16710  Biso   1.000  N
  N15      1.0000 0.74470  0.82190  0.07100  Biso   1.000  N
  N16      1.0000 0.65230  0.96850  0.31770  Biso   1.000  N
  O19      1.0000 0.70240  0.85590  0.32680  Biso   1.000  O
  O20      1.0000 0.77430  0.89480  0.40040  Biso   1.000  O
  O21      1.0000 0.56680  0.93840  0.54450  Biso   1.000  O
  O22      1.0000 0.50330  0.93880  0.61420  Biso   1.000  O
  O23      1.0000 0.71540  0.79500  0.89570  Biso   1.000  O
  O24      1.0000 0.65190  0.75640  0.93660  Biso   1.000  O
  C55      1.0000 0.79640  0.89300  0.00790  Biso   1.000  C
  H46      1.0000 0.80410  0.93560  0.01300  Biso   1.000  H
  H47      1.0000 0.77860  0.88420  0.94960  Biso   1.000  H
  H48      1.0000 0.82700  0.87000  0.02170  Biso   1.000  H
  C56      1.0000 0.76480  0.87680  0.06830  Biso   1.000  C
  C57      1.0000 0.71930  0.82610  0.13510  Biso   1.000  C
  C58      1.0000 0.69110  0.77340  0.16080  Biso   1.000  C
  H49      1.0000 0.66430  0.78820  0.18500  Biso   1.000  H
  H50      1.0000 0.71360  0.74920  0.20310  Biso   1.000  H
  H51      1.0000 0.67750  0.74910  0.11060  Biso   1.000  H
  C59      1.0000 0.61900  0.95170  0.36280  Biso   1.000  C
  C60      1.0000 0.60620  0.88850  0.38200  Biso   1.000  C
  H52      1.0000 0.61980  0.87980  0.44220  Biso   1.000  H
  H53      1.0000 0.62010  0.86080  0.34700  Biso   1.000  H
  H54      1.0000 0.57030  0.88390  0.36930  Biso   1.000  H
  C61      1.0000 0.74210  0.85610  0.38740  Biso   1.000  C
  C62      1.0000 0.74540  0.79990  0.44510  Biso   1.000  C
  C63      1.0000 0.78330  0.79380  0.51350  Biso   1.000  C
  H55      1.0000 0.80750  0.82430  0.52460  Biso   1.000  H
  C64      1.0000 0.71080  0.75660  0.42880  Biso   1.000  C
  H56      1.0000 0.68360  0.75910  0.38140  Biso   1.000  H
  C65      1.0000 0.66900  0.78690  0.88740  Biso   1.000  C
  C66      1.0000 0.63840  0.81820  0.80870  Biso   1.000  C
  C67      1.0000 0.65750  0.84060  0.74450  Biso   1.000  C
  H57      1.0000 0.69150  0.83490  0.74650  Biso   1.000  H
  C68      1.0000 0.58650  0.82320  0.80430  Biso   1.000  C
  H58      1.0000 0.57160  0.80510  0.84520  Biso   1.000  H
  C69      1.0000 0.54700  0.92260  0.60310  Biso   1.000  C
  C70      1.0000 0.57880  0.88290  0.67200  Biso   1.000  C
  C71      1.0000 0.62680  0.87340  0.67200  Biso   1.000  C
  H59      1.0000 0.64040  0.88740  0.62680  Biso   1.000  H
  C72      1.0000 0.55830  0.85750  0.73390  Biso   1.000  C
  H60      1.0000 0.52400  0.86280  0.73010  Biso   1.000  H
  Cu5      1.0000 0.18935  0.57586  0.24714  Biso   1.000  Cu
  N17      1.0000 0.25200  0.58610  0.12490  Biso   1.000  N
  N18      1.0000 0.22260  0.61810  0.16710  Biso   1.000  N
  N19      1.0000 0.24470  0.67810  0.07100  Biso   1.000  N
  N20      1.0000 0.15230  0.53150  0.31770  Biso   1.000  N
  O25      1.0000 0.20240  0.64410  0.32680  Biso   1.000  O
  O26      1.0000 0.27430  0.60520  0.40040  Biso   1.000  O
  O27      1.0000 0.06680  0.56160  0.54450  Biso   1.000  O
  O28      1.0000 0.00330  0.56120  0.61420  Biso   1.000  O
  O29      1.0000 0.21540  0.70500  0.89570  Biso   1.000  O
  O30      1.0000 0.15190  0.74360  0.93660  Biso   1.000  O
  C73      1.0000 0.29640  0.60700  0.00790  Biso   1.000  C
  H61      1.0000 0.30410  0.56440  0.01300  Biso   1.000  H
  H62      1.0000 0.27860  0.61580  0.94960  Biso   1.000  H
  H63      1.0000 0.32700  0.63000  0.02170  Biso   1.000  H
  C74      1.0000 0.26480  0.62320  0.06830  Biso   1.000  C
  C75      1.0000 0.21930  0.67390  0.13510  Biso   1.000  C
  C76      1.0000 0.19110  0.72660  0.16080  Biso   1.000  C
  H64      1.0000 0.16430  0.71180  0.18500  Biso   1.000  H
  H65      1.0000 0.21360  0.75080  0.20310  Biso   1.000  H
  H66      1.0000 0.17750  0.75090  0.11060  Biso   1.000  H
  C77      1.0000 0.11900  0.54830  0.36280  Biso   1.000  C
  C78      1.0000 0.10620  0.61150  0.38200  Biso   1.000  C
  H67      1.0000 0.11980  0.62020  0.44220  Biso   1.000  H
  H68      1.0000 0.12010  0.63920  0.34700  Biso   1.000  H
  H69      1.0000 0.07030  0.61610  0.36930  Biso   1.000  H
  C79      1.0000 0.24210  0.64390  0.38740  Biso   1.000  C
  C80      1.0000 0.24540  0.70010  0.44510  Biso   1.000  C
  C81      1.0000 0.28330  0.70620  0.51350  Biso   1.000  C
  H70      1.0000 0.30750  0.67570  0.52460  Biso   1.000  H
  C82      1.0000 0.21080  0.74340  0.42880  Biso   1.000  C
  H71      1.0000 0.18360  0.74090  0.38140  Biso   1.000  H
  C83      1.0000 0.16900  0.71310  0.88740  Biso   1.000  C
  C84      1.0000 0.13840  0.68180  0.80870  Biso   1.000  C
  C85      1.0000 0.15750  0.65940  0.74450  Biso   1.000  C
  H72      1.0000 0.19150  0.66510  0.74650  Biso   1.000  H
  C86      1.0000 0.08650  0.67680  0.80430  Biso   1.000  C
  H73      1.0000 0.07160  0.69490  0.84520  Biso   1.000  H
  C87      1.0000 0.04700  0.57740  0.60310  Biso   1.000  C
  C88      1.0000 0.07880  0.61710  0.67200  Biso   1.000  C
  C89      1.0000 0.12680  0.62660  0.67200  Biso   1.000  C
  H74      1.0000 0.14040  0.61260  0.62680  Biso   1.000  H
  C90      1.0000 0.05830  0.64250  0.73390  Biso   1.000  C
  H75      1.0000 0.02400  0.63720  0.73010  Biso   1.000  H
  Cu6      1.0000 0.68935  0.07586  0.24714  Biso   1.000  Cu
  N21      1.0000 0.75200  0.08610  0.12490  Biso   1.000  N
  N22      1.0000 0.72260  0.11810  0.16710  Biso   1.000  N
  N23      1.0000 0.74470  0.17810  0.07100  Biso   1.000  N
  N24      1.0000 0.65230  0.03150  0.31770  Biso   1.000  N
  O31      1.0000 0.70240  0.14410  0.32680  Biso   1.000  O
  O32      1.0000 0.77430  0.10520  0.40040  Biso   1.000  O
  O33      1.0000 0.56680  0.06160  0.54450  Biso   1.000  O
  O34      1.0000 0.50330  0.06120  0.61420  Biso   1.000  O
  O35      1.0000 0.71540  0.20500  0.89570  Biso   1.000  O
  O36      1.0000 0.65190  0.24360  0.93660  Biso   1.000  O
  C91      1.0000 0.79640  0.10700  0.00790  Biso   1.000  C
  H76      1.0000 0.80410  0.06440  0.01300  Biso   1.000  H
  H77      1.0000 0.77860  0.11580  0.94960  Biso   1.000  H
  H78      1.0000 0.82700  0.13000  0.02170  Biso   1.000  H
  C92      1.0000 0.76480  0.12320  0.06830  Biso   1.000  C
  C93      1.0000 0.71930  0.17390  0.13510  Biso   1.000  C
  C94      1.0000 0.69110  0.22660  0.16080  Biso   1.000  C
  H79      1.0000 0.66430  0.21180  0.18500  Biso   1.000  H
  H80      1.0000 0.71360  0.25080  0.20310  Biso   1.000  H
  H81      1.0000 0.67750  0.25090  0.11060  Biso   1.000  H
  C95      1.0000 0.61900  0.04830  0.36280  Biso   1.000  C
  C96      1.0000 0.60620  0.11150  0.38200  Biso   1.000  C
  H82      1.0000 0.61980  0.12020  0.44220  Biso   1.000  H
  H83      1.0000 0.62010  0.13920  0.34700  Biso   1.000  H
  H84      1.0000 0.57030  0.11610  0.36930  Biso   1.000  H
  C97      1.0000 0.74210  0.14390  0.38740  Biso   1.000  C
  C98      1.0000 0.74540  0.20010  0.44510  Biso   1.000  C
  C99      1.0000 0.78330  0.20620  0.51350  Biso   1.000  C
  H85      1.0000 0.80750  0.17570  0.52460  Biso   1.000  H
  C100     1.0000 0.71080  0.24340  0.42880  Biso   1.000  C
  H86      1.0000 0.68360  0.24090  0.38140  Biso   1.000  H
  C101     1.0000 0.66900  0.21310  0.88740  Biso   1.000  C
  C102     1.0000 0.63840  0.18180  0.80870  Biso   1.000  C
  C103     1.0000 0.65750  0.15940  0.74450  Biso   1.000  C
  H87      1.0000 0.69150  0.16510  0.74650  Biso   1.000  H
  C104     1.0000 0.58650  0.17680  0.80430  Biso   1.000  C
  H88      1.0000 0.57160  0.19490  0.84520  Biso   1.000  H
  C105     1.0000 0.54700  0.07740  0.60310  Biso   1.000  C
  C106     1.0000 0.57880  0.11710  0.67200  Biso   1.000  C
  C107     1.0000 0.62680  0.12660  0.67200  Biso   1.000  C
  H89      1.0000 0.64040  0.11260  0.62680  Biso   1.000  H
  C108     1.0000 0.55830  0.14250  0.73390  Biso   1.000  C
  H90      1.0000 0.52400  0.13720  0.73010  Biso   1.000  H
  Cu7      1.0000 0.81065  0.57586  0.75286  Biso   1.000  Cu
  N25      1.0000 0.74800  0.58610  0.87510  Biso   1.000  N
  N26      1.0000 0.77740  0.61810  0.83290  Biso   1.000  N
  N27      1.0000 0.75530  0.67810  0.92900  Biso   1.000  N
  N28      1.0000 0.84770  0.53150  0.68230  Biso   1.000  N
  O37      1.0000 0.79760  0.64410  0.67320  Biso   1.000  O
  O38      1.0000 0.72570  0.60520  0.59960  Biso   1.000  O
  O39      1.0000 0.93320  0.56160  0.45550  Biso   1.000  O
  O40      1.0000 0.99670  0.56120  0.38580  Biso   1.000  O
  O41      1.0000 0.78460  0.70500  0.10430  Biso   1.000  O
  O42      1.0000 0.84810  0.74360  0.06340  Biso   1.000  O
  C109     1.0000 0.70360  0.60700  0.99210  Biso   1.000  C
  H91      1.0000 0.69590  0.56440  0.98700  Biso   1.000  H
  H92      1.0000 0.72140  0.61580  0.05040  Biso   1.000  H
  H93      1.0000 0.67300  0.63000  0.97830  Biso   1.000  H
  C110     1.0000 0.73520  0.62320  0.93170  Biso   1.000  C
  C111     1.0000 0.78070  0.67390  0.86490  Biso   1.000  C
  C112     1.0000 0.80890  0.72660  0.83920  Biso   1.000  C
  H94      1.0000 0.83570  0.71180  0.81500  Biso   1.000  H
  H95      1.0000 0.78640  0.75080  0.79690  Biso   1.000  H
  H96      1.0000 0.82250  0.75090  0.88940  Biso   1.000  H
  C113     1.0000 0.88100  0.54830  0.63720  Biso   1.000  C
  C114     1.0000 0.89380  0.61150  0.61800  Biso   1.000  C
  H97      1.0000 0.88020  0.62020  0.55780  Biso   1.000  H
  H98      1.0000 0.87990  0.63920  0.65300  Biso   1.000  H
  H99      1.0000 0.92970  0.61610  0.63070  Biso   1.000  H
  C115     1.0000 0.75790  0.64390  0.61260  Biso   1.000  C
  C116     1.0000 0.75460  0.70010  0.55490  Biso   1.000  C
  C117     1.0000 0.71670  0.70620  0.48650  Biso   1.000  C
  H100     1.0000 0.69250  0.67570  0.47540  Biso   1.000  H
  C118     1.0000 0.78920  0.74340  0.57120  Biso   1.000  C
  H101     1.0000 0.81640  0.74090  0.61860  Biso   1.000  H
  C119     1.0000 0.83100  0.71310  0.11260  Biso   1.000  C
  C120     1.0000 0.86160  0.68180  0.19130  Biso   1.000  C
  C121     1.0000 0.84250  0.65940  0.25550  Biso   1.000  C
  H102     1.0000 0.80850  0.66510  0.25350  Biso   1.000  H
  C122     1.0000 0.91350  0.67680  0.19570  Biso   1.000  C
  H103     1.0000 0.92840  0.69490  0.15480  Biso   1.000  H
  C123     1.0000 0.95300  0.57740  0.39690  Biso   1.000  C
  C124     1.0000 0.92120  0.61710  0.32800  Biso   1.000  C
  C125     1.0000 0.87320  0.62660  0.32800  Biso   1.000  C
  H104     1.0000 0.85960  0.61260  0.37320  Biso   1.000  H
  C126     1.0000 0.94170  0.64250  0.26610  Biso   1.000  C
  H105     1.0000 0.97600  0.63720  0.26990  Biso   1.000  H
  Cu8      1.0000 0.31065  0.07586  0.75286  Biso   1.000  Cu
  N29      1.0000 0.24800  0.08610  0.87510  Biso   1.000  N
  N30      1.0000 0.27740  0.11810  0.83290  Biso   1.000  N
  N31      1.0000 0.25530  0.17810  0.92900  Biso   1.000  N
  N32      1.0000 0.34770  0.03150  0.68230  Biso   1.000  N
  O43      1.0000 0.29760  0.14410  0.67320  Biso   1.000  O
  O44      1.0000 0.22570  0.10520  0.59960  Biso   1.000  O
  O45      1.0000 0.43320  0.06160  0.45550  Biso   1.000  O
  O46      1.0000 0.49670  0.06120  0.38580  Biso   1.000  O
  O47      1.0000 0.28460  0.20500  0.10430  Biso   1.000  O
  O48      1.0000 0.34810  0.24360  0.06340  Biso   1.000  O
  C127     1.0000 0.20360  0.10700  0.99210  Biso   1.000  C
  H106     1.0000 0.19590  0.06440  0.98700  Biso   1.000  H
  H107     1.0000 0.22140  0.11580  0.05040  Biso   1.000  H
  H108     1.0000 0.17300  0.13000  0.97830  Biso   1.000  H
  C128     1.0000 0.23520  0.12320  0.93170  Biso   1.000  C
  C129     1.0000 0.28070  0.17390  0.86490  Biso   1.000  C
  C130     1.0000 0.30890  0.22660  0.83920  Biso   1.000  C
  H109     1.0000 0.33570  0.21180  0.81500  Biso   1.000  H
  H110     1.0000 0.28640  0.25080  0.79690  Biso   1.000  H
  H111     1.0000 0.32250  0.25090  0.88940  Biso   1.000  H
  C131     1.0000 0.38100  0.04830  0.63720  Biso   1.000  C
  C132     1.0000 0.39380  0.11150  0.61800  Biso   1.000  C
  H112     1.0000 0.38020  0.12020  0.55780  Biso   1.000  H
  H113     1.0000 0.37990  0.13920  0.65300  Biso   1.000  H
  H114     1.0000 0.42970  0.11610  0.63070  Biso   1.000  H
  C133     1.0000 0.25790  0.14390  0.61260  Biso   1.000  C
  C134     1.0000 0.25460  0.20010  0.55490  Biso   1.000  C
  C135     1.0000 0.21670  0.20620  0.48650  Biso   1.000  C
  H115     1.0000 0.19250  0.17570  0.47540  Biso   1.000  H
  C136     1.0000 0.28920  0.24340  0.57120  Biso   1.000  C
  H116     1.0000 0.31640  0.24090  0.61860  Biso   1.000  H
  C137     1.0000 0.33100  0.21310  0.11260  Biso   1.000  C
  C138     1.0000 0.36160  0.18180  0.19130  Biso   1.000  C
  C139     1.0000 0.34250  0.15940  0.25550  Biso   1.000  C
  H117     1.0000 0.30850  0.16510  0.25350  Biso   1.000  H
  C140     1.0000 0.41350  0.17680  0.19570  Biso   1.000  C
  H118     1.0000 0.42840  0.19490  0.15480  Biso   1.000  H
  C141     1.0000 0.45300  0.07740  0.39690  Biso   1.000  C
  C142     1.0000 0.42120  0.11710  0.32800  Biso   1.000  C
  C143     1.0000 0.37320  0.12660  0.32800  Biso   1.000  C
  H119     1.0000 0.35960  0.11260  0.37320  Biso   1.000  H
  C144     1.0000 0.44170  0.14250  0.26610  Biso   1.000  C
  H120     1.0000 0.47600  0.13720  0.26990  Biso   1.000  H
  Cu9      1.0000 0.73927  0.50000  0.84891  Biso   1.000  Cu
  Cu10     1.0000 0.96182  0.50000  0.54203  Biso   1.000  Cu
  N33      1.0000 0.90290  0.50000  0.60620  Biso   1.000  N
  O49      1.0000 0.80630  0.50000  0.81830  Biso   1.000  O
  H121     1.0000 0.83330  0.50000  0.86300  Biso   1.000  H
  Cu11     1.0000 0.23927  0.00000  0.84891  Biso   1.000  Cu
  Cu12     1.0000 0.46182  0.00000  0.54203  Biso   1.000  Cu
  N34      1.0000 0.40290  0.00000  0.60620  Biso   1.000  N
  O50      1.0000 0.30630  0.00000  0.81830  Biso   1.000  O
  H122     1.0000 0.33330  0.00000  0.86300  Biso   1.000  H
  Cu13     1.0000 0.26073  0.50000  0.15109  Biso   1.000  Cu
  Cu14     1.0000 0.03818  0.50000  0.45797  Biso   1.000  Cu
  N35      1.0000 0.09710  0.50000  0.39380  Biso   1.000  N
  O51      1.0000 0.19370  0.50000  0.18170  Biso   1.000  O
  H123     1.0000 0.16670  0.50000  0.13700  Biso   1.000  H
  Cu15     1.0000 0.76073  0.00000  0.15109  Biso   1.000  Cu
  Cu16     1.0000 0.53818  0.00000  0.45797  Biso   1.000  Cu
  N36      1.0000 0.59710  0.00000  0.39380  Biso   1.000  N
  O52      1.0000 0.69370  0.00000  0.18170  Biso   1.000  O
  H124     1.0000 0.66670  0.00000  0.13700  Biso   1.000  H
  Cu17     1.0000 0.75000  0.25000  0.00000  Biso   1.000  Cu
  Cu18     1.0000 0.25000  0.25000  0.00000  Biso   1.000  Cu
  Cu19     1.0000 0.25000  0.75000  0.00000  Biso   1.000  Cu
  Cu20     1.0000 0.75000  0.75000  0.00000  Biso   1.000  Cu
