data_image0
_cell_length_a       11.38
_cell_length_b       7.182
_cell_length_c       6.628
_cell_angle_alpha    90
_cell_angle_beta     109.754
_cell_angle_gamma    90

_symmetry_space_group_name_H-M    "P 1"
_symmetry_int_tables_number       1

loop_
  _symmetry_equiv_pos_as_xyz
  'x, y, z'

loop_
  _atom_site_label
  _atom_site_occupancy
  _atom_site_fract_x
  _atom_site_fract_y
  _atom_site_fract_z
  _atom_site_thermal_displace_type
  _atom_site_B_iso_or_equiv
  _atom_site_type_symbol
  O1       1.0000 0.50820  0.30260  0.33760  Biso   1.000  O
  O2       1.0000 0.67300  0.24950  0.11620  Biso   1.000  O
  O3       1.0000 0.84720  0.11260  0.11850  Biso   1.000  O
  C1       1.0000 0.73580  0.15320  0.03500  Biso   1.000  C
  H1       1.0000 0.69510  0.10710  0.89810  Biso   1.000  H
  O4       1.0000 0.00820  0.80260  0.33760  Biso   1.000  O
  O5       1.0000 0.17300  0.74950  0.11620  Biso   1.000  O
  O6       1.0000 0.34720  0.61260  0.11850  Biso   1.000  O
  C2       1.0000 0.23580  0.65320  0.03500  Biso   1.000  C
  H2       1.0000 0.19510  0.60710  0.89810  Biso   1.000  H
  O7       1.0000 0.49180  0.30260  0.66240  Biso   1.000  O
  O8       1.0000 0.32700  0.24950  0.88380  Biso   1.000  O
  O9       1.0000 0.15280  0.11260  0.88150  Biso   1.000  O
  C3       1.0000 0.26420  0.15320  0.96500  Biso   1.000  C
  H3       1.0000 0.30490  0.10710  0.10190  Biso   1.000  H
  O10      1.0000 0.99180  0.80260  0.66240  Biso   1.000  O
  O11      1.0000 0.82700  0.74950  0.88380  Biso   1.000  O
  O12      1.0000 0.65280  0.61260  0.88150  Biso   1.000  O
  C4       1.0000 0.76420  0.65320  0.96500  Biso   1.000  C
  H4       1.0000 0.80490  0.60710  0.10190  Biso   1.000  H
  Gd1      1.0000 0.50000  0.44955  0.00000  Biso   1.000  Gd
  Gd2      1.0000 0.00000  0.94955  0.00000  Biso   1.000  Gd
  C5       1.0000 0.50000  0.38100  0.50000  Biso   1.000  C
  H5       1.0000 0.50000  0.51070  0.50000  Biso   1.000  H
  C6       1.0000 0.00000  0.88100  0.50000  Biso   1.000  C
  H6       1.0000 0.00000  0.01070  0.50000  Biso   1.000  H
