data_image0
_cell_length_a       11.43
_cell_length_b       7.22
_cell_length_c       6.655
_cell_angle_alpha    90
_cell_angle_beta     109.912
_cell_angle_gamma    90

_symmetry_space_group_name_H-M    "P 1"
_symmetry_int_tables_number       1

loop_
  _symmetry_equiv_pos_as_xyz
  'x, y, z'

loop_
  _atom_site_label
  _atom_site_occupancy
  _atom_site_fract_x
  _atom_site_fract_y
  _atom_site_fract_z
  _atom_site_thermal_displace_type
  _atom_site_B_iso_or_equiv
  _atom_site_type_symbol
  O1       1.0000 0.99160  0.27170  0.66270  Biso   1.000  O
  O2       1.0000 0.82740  0.21550  0.88400  Biso   1.000  O
  O3       1.0000 0.65390  0.08000  0.88260  Biso   1.000  O
  C1       1.0000 0.76250  0.12300  0.96200  Biso   1.000  C
  H1       1.0000 0.80250  0.07980  0.10010  Biso   1.000  H
  O4       1.0000 0.49160  0.77170  0.66270  Biso   1.000  O
  O5       1.0000 0.32740  0.71550  0.88400  Biso   1.000  O
  O6       1.0000 0.15390  0.58000  0.88260  Biso   1.000  O
  C2       1.0000 0.26250  0.62300  0.96200  Biso   1.000  C
  H2       1.0000 0.30250  0.57980  0.10010  Biso   1.000  H
  O7       1.0000 0.00840  0.27170  0.33730  Biso   1.000  O
  O8       1.0000 0.17260  0.21550  0.11600  Biso   1.000  O
  O9       1.0000 0.34610  0.08000  0.11740  Biso   1.000  O
  C3       1.0000 0.23750  0.12300  0.03800  Biso   1.000  C
  H3       1.0000 0.19750  0.07980  0.89990  Biso   1.000  H
  O10      1.0000 0.50840  0.77170  0.33730  Biso   1.000  O
  O11      1.0000 0.67260  0.71550  0.11600  Biso   1.000  O
  O12      1.0000 0.84610  0.58000  0.11740  Biso   1.000  O
  C4       1.0000 0.73750  0.62300  0.03800  Biso   1.000  C
  H4       1.0000 0.69750  0.57980  0.89990  Biso   1.000  H
  Sm1      1.0000 0.00000  0.41855  0.00000  Biso   1.000  Sm
  Sm2      1.0000 0.50000  0.91855  0.00000  Biso   1.000  Sm
  C5       1.0000 0.00000  0.34600  0.50000  Biso   1.000  C
  H5       1.0000 0.00000  0.47460  0.50000  Biso   1.000  H
  C6       1.0000 0.50000  0.84600  0.50000  Biso   1.000  C
  H6       1.0000 0.50000  0.97460  0.50000  Biso   1.000  H
