data_image0
_cell_length_a       6.6667
_cell_length_b       18.408
_cell_length_c       8.4468
_cell_angle_alpha    90
_cell_angle_beta     90
_cell_angle_gamma    90

_symmetry_space_group_name_H-M    "P 1"
_symmetry_int_tables_number       1

loop_
  _symmetry_equiv_pos_as_xyz
  'x, y, z'

loop_
  _atom_site_label
  _atom_site_occupancy
  _atom_site_fract_x
  _atom_site_fract_y
  _atom_site_fract_z
  _atom_site_thermal_displace_type
  _atom_site_B_iso_or_equiv
  _atom_site_type_symbol
  O1       1.0000 0.01270  0.54980  0.06960  Biso   1.000  O
  O2       1.0000 0.66480  0.59460  0.22830  Biso   1.000  O
  O3       1.0000 0.68040  0.75780  0.65220  Biso   1.000  O
  O4       1.0000 0.82490  0.68340  0.48180  Biso   1.000  O
  C1       1.0000 0.76410  0.74340  0.52520  Biso   1.000  C
  H1       1.0000 0.78300  0.78190  0.45530  Biso   1.000  H
  O5       1.0000 0.51270  0.04980  0.06960  Biso   1.000  O
  O6       1.0000 0.16480  0.09460  0.22830  Biso   1.000  O
  O7       1.0000 0.18040  0.25780  0.65220  Biso   1.000  O
  O8       1.0000 0.32490  0.18340  0.48180  Biso   1.000  O
  C2       1.0000 0.26410  0.24340  0.52520  Biso   1.000  C
  H2       1.0000 0.28300  0.28190  0.45530  Biso   1.000  H
  O9       1.0000 0.98730  0.45020  0.56960  Biso   1.000  O
  O10      1.0000 0.33520  0.40540  0.72830  Biso   1.000  O
  O11      1.0000 0.31960  0.24220  0.15220  Biso   1.000  O
  O12      1.0000 0.17510  0.31660  0.98180  Biso   1.000  O
  C3       1.0000 0.23590  0.25660  0.02520  Biso   1.000  C
  H3       1.0000 0.21700  0.21810  0.95530  Biso   1.000  H
  O13      1.0000 0.48730  0.95020  0.56960  Biso   1.000  O
  O14      1.0000 0.83520  0.90540  0.72830  Biso   1.000  O
  O15      1.0000 0.81960  0.74220  0.15220  Biso   1.000  O
  O16      1.0000 0.67510  0.81660  0.98180  Biso   1.000  O
  C4       1.0000 0.73590  0.75660  0.02520  Biso   1.000  C
  H4       1.0000 0.71700  0.71810  0.95530  Biso   1.000  H
  O17      1.0000 0.98730  0.54980  0.43040  Biso   1.000  O
  O18      1.0000 0.33520  0.59460  0.27170  Biso   1.000  O
  O19      1.0000 0.31960  0.75780  0.84780  Biso   1.000  O
  O20      1.0000 0.17510  0.68340  0.01820  Biso   1.000  O
  C5       1.0000 0.23590  0.74340  0.97480  Biso   1.000  C
  H5       1.0000 0.21700  0.78190  0.04470  Biso   1.000  H
  O21      1.0000 0.48730  0.04980  0.43040  Biso   1.000  O
  O22      1.0000 0.83520  0.09460  0.27170  Biso   1.000  O
  O23      1.0000 0.81960  0.25780  0.84780  Biso   1.000  O
  O24      1.0000 0.67510  0.18340  0.01820  Biso   1.000  O
  C6       1.0000 0.73590  0.24340  0.97480  Biso   1.000  C
  H6       1.0000 0.71700  0.28190  0.04470  Biso   1.000  H
  O25      1.0000 0.01270  0.45020  0.93040  Biso   1.000  O
  O26      1.0000 0.66480  0.40540  0.77170  Biso   1.000  O
  O27      1.0000 0.68040  0.24220  0.34780  Biso   1.000  O
  O28      1.0000 0.82490  0.31660  0.51820  Biso   1.000  O
  C7       1.0000 0.76410  0.25660  0.47480  Biso   1.000  C
  H7       1.0000 0.78300  0.21810  0.54470  Biso   1.000  H
  O29      1.0000 0.51270  0.95020  0.93040  Biso   1.000  O
  O30      1.0000 0.16480  0.90540  0.77170  Biso   1.000  O
  O31      1.0000 0.18040  0.74220  0.34780  Biso   1.000  O
  O32      1.0000 0.32490  0.81660  0.51820  Biso   1.000  O
  C8       1.0000 0.26410  0.75660  0.47480  Biso   1.000  C
  H8       1.0000 0.28300  0.71810  0.54470  Biso   1.000  H
  Ho1      1.0000 0.00000  0.64269  0.25000  Biso   1.000  Ho
  Ho2      1.0000 0.50000  0.14269  0.25000  Biso   1.000  Ho
  Ho3      1.0000 0.00000  0.35731  0.75000  Biso   1.000  Ho
  Ho4      1.0000 0.50000  0.85731  0.75000  Biso   1.000  Ho
  C9       1.0000 0.50000  0.62560  0.25000  Biso   1.000  C
  H9       1.0000 0.50000  0.67620  0.25000  Biso   1.000  H
  C10      1.0000 0.00000  0.12560  0.25000  Biso   1.000  C
  H10      1.0000 0.00000  0.17620  0.25000  Biso   1.000  H
  C11      1.0000 0.50000  0.37440  0.75000  Biso   1.000  C
  H11      1.0000 0.50000  0.32380  0.75000  Biso   1.000  H
  C12      1.0000 0.00000  0.87440  0.75000  Biso   1.000  C
  H12      1.0000 0.00000  0.82380  0.75000  Biso   1.000  H
  C13      1.0000 0.92530  0.50000  0.00000  Biso   1.000  C
  H13      1.0000 0.78580  0.50000  0.00000  Biso   1.000  H
  C14      1.0000 0.42530  0.00000  0.00000  Biso   1.000  C
  H14      1.0000 0.28580  0.00000  0.00000  Biso   1.000  H
  C15      1.0000 0.07470  0.50000  0.50000  Biso   1.000  C
  H15      1.0000 0.21420  0.50000  0.50000  Biso   1.000  H
  C16      1.0000 0.57470  0.00000  0.50000  Biso   1.000  C
  H16      1.0000 0.71420  0.00000  0.50000  Biso   1.000  H
