data_image0
_cell_length_a       6.6375
_cell_length_b       18.2953
_cell_length_c       8.4058
_cell_angle_alpha    90
_cell_angle_beta     90
_cell_angle_gamma    90

_symmetry_space_group_name_H-M    "P 1"
_symmetry_int_tables_number       1

loop_
  _symmetry_equiv_pos_as_xyz
  'x, y, z'

loop_
  _atom_site_label
  _atom_site_occupancy
  _atom_site_fract_x
  _atom_site_fract_y
  _atom_site_fract_z
  _atom_site_thermal_displace_type
  _atom_site_B_iso_or_equiv
  _atom_site_type_symbol
  O1       1.0000 0.01470  0.05000  0.42920  Biso   1.000  O
  O2       1.0000 0.33520  0.09485  0.22750  Biso   1.000  O
  O3       1.0000 0.17950  0.24207  0.15310  Biso   1.000  O
  O4       1.0000 0.32610  0.31653  0.98090  Biso   1.000  O
  C1       1.0000 0.26450  0.25630  0.02380  Biso   1.000  C
  H1       1.0000 0.28290  0.21770  0.95350  Biso   1.000  H
  O5       1.0000 0.51470  0.55000  0.42920  Biso   1.000  O
  O6       1.0000 0.83520  0.59485  0.22750  Biso   1.000  O
  O7       1.0000 0.67950  0.74207  0.15310  Biso   1.000  O
  O8       1.0000 0.82610  0.81653  0.98090  Biso   1.000  O
  C2       1.0000 0.76450  0.75630  0.02380  Biso   1.000  C
  H2       1.0000 0.78290  0.71770  0.95350  Biso   1.000  H
  O9       1.0000 0.98530  0.95000  0.92920  Biso   1.000  O
  O10      1.0000 0.66480  0.90515  0.72750  Biso   1.000  O
  O11      1.0000 0.82050  0.75793  0.65310  Biso   1.000  O
  O12      1.0000 0.67390  0.68347  0.48090  Biso   1.000  O
  C3       1.0000 0.73550  0.74370  0.52380  Biso   1.000  C
  H3       1.0000 0.71710  0.78230  0.45350  Biso   1.000  H
  O13      1.0000 0.48530  0.45000  0.92920  Biso   1.000  O
  O14      1.0000 0.16480  0.40515  0.72750  Biso   1.000  O
  O15      1.0000 0.32050  0.25793  0.65310  Biso   1.000  O
  O16      1.0000 0.17390  0.18347  0.48090  Biso   1.000  O
  C4       1.0000 0.23550  0.24370  0.52380  Biso   1.000  C
  H4       1.0000 0.21710  0.28230  0.45350  Biso   1.000  H
  O17      1.0000 0.98530  0.05000  0.07080  Biso   1.000  O
  O18      1.0000 0.66480  0.09485  0.27250  Biso   1.000  O
  O19      1.0000 0.82050  0.24207  0.34690  Biso   1.000  O
  O20      1.0000 0.67390  0.31653  0.51910  Biso   1.000  O
  C5       1.0000 0.73550  0.25630  0.47620  Biso   1.000  C
  H5       1.0000 0.71710  0.21770  0.54650  Biso   1.000  H
  O21      1.0000 0.48530  0.55000  0.07080  Biso   1.000  O
  O22      1.0000 0.16480  0.59485  0.27250  Biso   1.000  O
  O23      1.0000 0.32050  0.74207  0.34690  Biso   1.000  O
  O24      1.0000 0.17390  0.81653  0.51910  Biso   1.000  O
  C6       1.0000 0.23550  0.75630  0.47620  Biso   1.000  C
  H6       1.0000 0.21710  0.71770  0.54650  Biso   1.000  H
  O25      1.0000 0.01470  0.95000  0.57080  Biso   1.000  O
  O26      1.0000 0.33520  0.90515  0.77250  Biso   1.000  O
  O27      1.0000 0.17950  0.75793  0.84690  Biso   1.000  O
  O28      1.0000 0.32610  0.68347  0.01910  Biso   1.000  O
  C7       1.0000 0.26450  0.74370  0.97620  Biso   1.000  C
  H7       1.0000 0.28290  0.78230  0.04650  Biso   1.000  H
  O29      1.0000 0.51470  0.45000  0.57080  Biso   1.000  O
  O30      1.0000 0.83520  0.40515  0.77250  Biso   1.000  O
  O31      1.0000 0.67950  0.25793  0.84690  Biso   1.000  O
  O32      1.0000 0.82610  0.18347  0.01910  Biso   1.000  O
  C8       1.0000 0.76450  0.24370  0.97620  Biso   1.000  C
  H8       1.0000 0.78290  0.28230  0.04650  Biso   1.000  H
  Tm1      1.0000 0.00000  0.14281  0.25000  Biso   1.000  Tm
  Tm2      1.0000 0.50000  0.64281  0.25000  Biso   1.000  Tm
  Tm3      1.0000 0.00000  0.85719  0.75000  Biso   1.000  Tm
  Tm4      1.0000 0.50000  0.35719  0.75000  Biso   1.000  Tm
  C9       1.0000 0.50000  0.12600  0.25000  Biso   1.000  C
  H9       1.0000 0.50000  0.17690  0.25000  Biso   1.000  H
  C10      1.0000 0.00000  0.62600  0.25000  Biso   1.000  C
  H10      1.0000 0.00000  0.67690  0.25000  Biso   1.000  H
  C11      1.0000 0.50000  0.87400  0.75000  Biso   1.000  C
  H11      1.0000 0.50000  0.82310  0.75000  Biso   1.000  H
  C12      1.0000 0.00000  0.37400  0.75000  Biso   1.000  C
  H12      1.0000 0.00000  0.32310  0.75000  Biso   1.000  H
  C13      1.0000 0.92430  0.00000  0.50000  Biso   1.000  C
  H13      1.0000 0.78420  0.00000  0.50000  Biso   1.000  H
  C14      1.0000 0.42430  0.50000  0.50000  Biso   1.000  C
  H14      1.0000 0.28420  0.50000  0.50000  Biso   1.000  H
  C15      1.0000 0.07570  0.00000  0.00000  Biso   1.000  C
  H15      1.0000 0.21580  0.00000  0.00000  Biso   1.000  H
  C16      1.0000 0.57570  0.50000  0.00000  Biso   1.000  C
  H16      1.0000 0.71580  0.50000  0.00000  Biso   1.000  H
