data_image0
_cell_length_a       20.1049
_cell_length_b       12.7575
_cell_length_c       14.427
_cell_angle_alpha    90
_cell_angle_beta     90
_cell_angle_gamma    90

_symmetry_space_group_name_H-M    "P 1"
_symmetry_int_tables_number       1

loop_
  _symmetry_equiv_pos_as_xyz
  'x, y, z'

loop_
  _atom_site_label
  _atom_site_occupancy
  _atom_site_fract_x
  _atom_site_fract_y
  _atom_site_fract_z
  _atom_site_thermal_displace_type
  _atom_site_B_iso_or_equiv
  _atom_site_type_symbol
  Zn1      1.0000 0.23262  0.70643  0.33937  Biso   1.000  Zn
  Zn2      1.0000 0.26797  0.53213  0.17437  Biso   1.000  Zn
  N1       1.0000 0.17100  0.56860  0.15690  Biso   1.000  N
  N2       1.0000 0.27510  0.48860  0.30750  Biso   1.000  N
  N3       1.0000 0.18370  0.16900  0.82620  Biso   1.000  N
  N4       1.0000 0.06990  0.56550  0.08340  Biso   1.000  N
  O1       1.0000 0.04740  0.36920  0.96190  Biso   1.000  O
  C1       1.0000 0.07020  0.64040  0.15450  Biso   1.000  C
  N5       1.0000 0.25540  0.55940  0.37390  Biso   1.000  N
  N6       1.0000 0.19890  0.23770  0.75790  Biso   1.000  N
  O2       1.0000 0.26600  0.34550  0.59320  Biso   1.000  O
  O3       1.0000 0.30500  0.23350  0.49290  Biso   1.000  O
  C2       1.0000 0.13970  0.21370  0.88260  Biso   1.000  C
  H1       1.0000 0.12130  0.18230  0.93480  Biso   1.000  H
  C3       1.0000 0.25700  0.50860  0.45590  Biso   1.000  C
  H2       1.0000 0.24610  0.53830  0.51280  Biso   1.000  H
  C4       1.0000 0.27720  0.40690  0.44330  Biso   1.000  C
  C5       1.0000 0.12980  0.63950  0.19790  Biso   1.000  C
  C6       1.0000 0.16490  0.32340  0.77410  Biso   1.000  C
  H3       1.0000 0.16740  0.38320  0.73740  Biso   1.000  H
  C7       1.0000 0.08120  0.39660  0.89170  Biso   1.000  C
  N7       1.0000 0.14430  0.70070  0.27230  Biso   1.000  N
  C8       1.0000 0.13290  0.52480  0.09020  Biso   1.000  C
  H4       1.0000 0.14820  0.47140  0.05190  Biso   1.000  H
  N8       1.0000 0.96210  0.72580  0.13880  Biso   1.000  N
  H5       1.0000 0.93500  0.77410  0.15610  Biso   1.000  H
  H6       1.0000 0.95220  0.68620  0.09250  Biso   1.000  H
  C9       1.0000 0.12530  0.31510  0.85130  Biso   1.000  C
  C10      1.0000 0.09440  0.76300  0.29620  Biso   1.000  C
  H7       1.0000 0.10150  0.80480  0.34810  Biso   1.000  H
  O4       1.0000 0.07960  0.48160  0.86260  Biso   1.000  O
  C11      1.0000 0.28660  0.39970  0.35080  Biso   1.000  C
  H8       1.0000 0.29970  0.33850  0.32090  Biso   1.000  H
  C12      1.0000 0.02100  0.71200  0.18470  Biso   1.000  C
  N9       1.0000 0.03500  0.77330  0.25500  Biso   1.000  N
  C13      1.0000 0.28360  0.32510  0.51070  Biso   1.000  C
  Zn3      1.0000 0.76738  0.29357  0.33937  Biso   1.000  Zn
  Zn4      1.0000 0.73203  0.46787  0.17437  Biso   1.000  Zn
  N10      1.0000 0.82900  0.43140  0.15690  Biso   1.000  N
  N11      1.0000 0.72490  0.51140  0.30750  Biso   1.000  N
  N12      1.0000 0.81630  0.83100  0.82620  Biso   1.000  N
  N13      1.0000 0.93010  0.43450  0.08340  Biso   1.000  N
  O5       1.0000 0.95260  0.63080  0.96190  Biso   1.000  O
  C14      1.0000 0.92980  0.35960  0.15450  Biso   1.000  C
  N14      1.0000 0.74460  0.44060  0.37390  Biso   1.000  N
  N15      1.0000 0.80110  0.76230  0.75790  Biso   1.000  N
  O6       1.0000 0.73400  0.65450  0.59320  Biso   1.000  O
  O7       1.0000 0.69500  0.76650  0.49290  Biso   1.000  O
  C15      1.0000 0.86030  0.78630  0.88260  Biso   1.000  C
  H9       1.0000 0.87870  0.81770  0.93480  Biso   1.000  H
  C16      1.0000 0.74300  0.49140  0.45590  Biso   1.000  C
  H10      1.0000 0.75390  0.46170  0.51280  Biso   1.000  H
  C17      1.0000 0.72280  0.59310  0.44330  Biso   1.000  C
  C18      1.0000 0.87020  0.36050  0.19790  Biso   1.000  C
  C19      1.0000 0.83510  0.67660  0.77410  Biso   1.000  C
  H11      1.0000 0.83260  0.61680  0.73740  Biso   1.000  H
  C20      1.0000 0.91880  0.60340  0.89170  Biso   1.000  C
  N16      1.0000 0.85570  0.29930  0.27230  Biso   1.000  N
  C21      1.0000 0.86710  0.47520  0.09020  Biso   1.000  C
  H12      1.0000 0.85180  0.52860  0.05190  Biso   1.000  H
  N17      1.0000 0.03790  0.27420  0.13880  Biso   1.000  N
  H13      1.0000 0.06500  0.22590  0.15610  Biso   1.000  H
  H14      1.0000 0.04780  0.31380  0.09250  Biso   1.000  H
  C22      1.0000 0.87470  0.68490  0.85130  Biso   1.000  C
  C23      1.0000 0.90560  0.23700  0.29620  Biso   1.000  C
  H15      1.0000 0.89850  0.19520  0.34810  Biso   1.000  H
  O8       1.0000 0.92040  0.51840  0.86260  Biso   1.000  O
  C24      1.0000 0.71340  0.60030  0.35080  Biso   1.000  C
  H16      1.0000 0.70030  0.66150  0.32090  Biso   1.000  H
  C25      1.0000 0.97900  0.28800  0.18470  Biso   1.000  C
  N18      1.0000 0.96500  0.22670  0.25500  Biso   1.000  N
  C26      1.0000 0.71640  0.67490  0.51070  Biso   1.000  C
  Zn5      1.0000 0.26738  0.20643  0.66063  Biso   1.000  Zn
  Zn6      1.0000 0.23203  0.03213  0.82563  Biso   1.000  Zn
  N19      1.0000 0.32900  0.06860  0.84310  Biso   1.000  N
  N20      1.0000 0.22490  0.98860  0.69250  Biso   1.000  N
  N21      1.0000 0.31630  0.66900  0.17380  Biso   1.000  N
  N22      1.0000 0.43010  0.06550  0.91660  Biso   1.000  N
  O9       1.0000 0.45260  0.86920  0.03810  Biso   1.000  O
  C27      1.0000 0.42980  0.14040  0.84550  Biso   1.000  C
  N23      1.0000 0.24460  0.05940  0.62610  Biso   1.000  N
  N24      1.0000 0.30110  0.73770  0.24210  Biso   1.000  N
  O10      1.0000 0.23400  0.84550  0.40680  Biso   1.000  O
  O11      1.0000 0.19500  0.73350  0.50710  Biso   1.000  O
  C28      1.0000 0.36030  0.71370  0.11740  Biso   1.000  C
  H17      1.0000 0.37870  0.68230  0.06520  Biso   1.000  H
  C29      1.0000 0.24300  0.00860  0.54410  Biso   1.000  C
  H18      1.0000 0.25390  0.03830  0.48720  Biso   1.000  H
  C30      1.0000 0.22280  0.90690  0.55670  Biso   1.000  C
  C31      1.0000 0.37020  0.13950  0.80210  Biso   1.000  C
  C32      1.0000 0.33510  0.82340  0.22590  Biso   1.000  C
  H19      1.0000 0.33260  0.88320  0.26260  Biso   1.000  H
  C33      1.0000 0.41880  0.89660  0.10830  Biso   1.000  C
  N25      1.0000 0.35570  0.20070  0.72770  Biso   1.000  N
  C34      1.0000 0.36710  0.02480  0.90980  Biso   1.000  C
  H20      1.0000 0.35180  0.97140  0.94810  Biso   1.000  H
  N26      1.0000 0.53790  0.22580  0.86120  Biso   1.000  N
  H21      1.0000 0.56500  0.27410  0.84390  Biso   1.000  H
  H22      1.0000 0.54780  0.18620  0.90750  Biso   1.000  H
  C35      1.0000 0.37470  0.81510  0.14870  Biso   1.000  C
  C36      1.0000 0.40560  0.26300  0.70380  Biso   1.000  C
  H23      1.0000 0.39850  0.30480  0.65190  Biso   1.000  H
  O12      1.0000 0.42040  0.98160  0.13740  Biso   1.000  O
  C37      1.0000 0.21340  0.89970  0.64920  Biso   1.000  C
  H24      1.0000 0.20030  0.83850  0.67910  Biso   1.000  H
  C38      1.0000 0.47900  0.21200  0.81530  Biso   1.000  C
  N27      1.0000 0.46500  0.27330  0.74500  Biso   1.000  N
  C39      1.0000 0.21640  0.82510  0.48930  Biso   1.000  C
  Zn7      1.0000 0.73262  0.79357  0.66063  Biso   1.000  Zn
  Zn8      1.0000 0.76797  0.96787  0.82563  Biso   1.000  Zn
  N28      1.0000 0.67100  0.93140  0.84310  Biso   1.000  N
  N29      1.0000 0.77510  0.01140  0.69250  Biso   1.000  N
  N30      1.0000 0.68370  0.33100  0.17380  Biso   1.000  N
  N31      1.0000 0.56990  0.93450  0.91660  Biso   1.000  N
  O13      1.0000 0.54740  0.13080  0.03810  Biso   1.000  O
  C40      1.0000 0.57020  0.85960  0.84550  Biso   1.000  C
  N32      1.0000 0.75540  0.94060  0.62610  Biso   1.000  N
  N33      1.0000 0.69890  0.26230  0.24210  Biso   1.000  N
  O14      1.0000 0.76600  0.15450  0.40680  Biso   1.000  O
  O15      1.0000 0.80500  0.26650  0.50710  Biso   1.000  O
  C41      1.0000 0.63970  0.28630  0.11740  Biso   1.000  C
  H25      1.0000 0.62130  0.31770  0.06520  Biso   1.000  H
  C42      1.0000 0.75700  0.99140  0.54410  Biso   1.000  C
  H26      1.0000 0.74610  0.96170  0.48720  Biso   1.000  H
  C43      1.0000 0.77720  0.09310  0.55670  Biso   1.000  C
  C44      1.0000 0.62980  0.86050  0.80210  Biso   1.000  C
  C45      1.0000 0.66490  0.17660  0.22590  Biso   1.000  C
  H27      1.0000 0.66740  0.11680  0.26260  Biso   1.000  H
  C46      1.0000 0.58120  0.10340  0.10830  Biso   1.000  C
  N34      1.0000 0.64430  0.79930  0.72770  Biso   1.000  N
  C47      1.0000 0.63290  0.97520  0.90980  Biso   1.000  C
  H28      1.0000 0.64820  0.02860  0.94810  Biso   1.000  H
  N35      1.0000 0.46210  0.77420  0.86120  Biso   1.000  N
  H29      1.0000 0.43500  0.72590  0.84390  Biso   1.000  H
  H30      1.0000 0.45220  0.81380  0.90750  Biso   1.000  H
  C48      1.0000 0.62530  0.18490  0.14870  Biso   1.000  C
  C49      1.0000 0.59440  0.73700  0.70380  Biso   1.000  C
  H31      1.0000 0.60150  0.69520  0.65190  Biso   1.000  H
  O16      1.0000 0.57960  0.01840  0.13740  Biso   1.000  O
  C50      1.0000 0.78660  0.10030  0.64920  Biso   1.000  C
  H32      1.0000 0.79970  0.16150  0.67910  Biso   1.000  H
  C51      1.0000 0.52100  0.78800  0.81530  Biso   1.000  C
  N36      1.0000 0.53500  0.72670  0.74500  Biso   1.000  N
  C52      1.0000 0.78360  0.17490  0.48930  Biso   1.000  C
  Zn9      1.0000 0.00000  0.50000  0.99806  Biso   1.000  Zn
  Zn10     1.0000 0.50000  0.00000  0.00194  Biso   1.000  Zn
