data_image0
_cell_length_a       6.6174
_cell_length_b       18.2
_cell_length_c       8.3777
_cell_angle_alpha    90
_cell_angle_beta     90
_cell_angle_gamma    90

_symmetry_space_group_name_H-M    "P 1"
_symmetry_int_tables_number       1

loop_
  _symmetry_equiv_pos_as_xyz
  'x, y, z'

loop_
  _atom_site_label
  _atom_site_occupancy
  _atom_site_fract_x
  _atom_site_fract_y
  _atom_site_fract_z
  _atom_site_thermal_displace_type
  _atom_site_B_iso_or_equiv
  _atom_site_type_symbol
  O1       1.0000 0.33370  0.09550  0.27030  Biso   1.000  O
  O2       1.0000 0.98460  0.05060  0.42860  Biso   1.000  O
  O3       1.0000 0.17370  0.18410  0.02030  Biso   1.000  O
  O4       1.0000 0.32030  0.25890  0.84700  Biso   1.000  O
  C1       1.0000 0.23610  0.24400  0.97730  Biso   1.000  C
  H1       1.0000 0.21950  0.28270  0.04860  Biso   1.000  H
  O5       1.0000 0.83370  0.59550  0.27030  Biso   1.000  O
  O6       1.0000 0.48460  0.55060  0.42860  Biso   1.000  O
  O7       1.0000 0.67370  0.68410  0.02030  Biso   1.000  O
  O8       1.0000 0.82030  0.75890  0.84700  Biso   1.000  O
  C2       1.0000 0.73610  0.74400  0.97730  Biso   1.000  C
  H2       1.0000 0.71950  0.78270  0.04860  Biso   1.000  H
  O9       1.0000 0.66630  0.90450  0.77030  Biso   1.000  O
  O10      1.0000 0.01540  0.94940  0.92860  Biso   1.000  O
  O11      1.0000 0.82630  0.81590  0.52030  Biso   1.000  O
  O12      1.0000 0.67970  0.74110  0.34700  Biso   1.000  O
  C3       1.0000 0.76390  0.75600  0.47730  Biso   1.000  C
  H3       1.0000 0.78050  0.71730  0.54860  Biso   1.000  H
  O13      1.0000 0.16630  0.40450  0.77030  Biso   1.000  O
  O14      1.0000 0.51540  0.44940  0.92860  Biso   1.000  O
  O15      1.0000 0.32630  0.31590  0.52030  Biso   1.000  O
  O16      1.0000 0.17970  0.24110  0.34700  Biso   1.000  O
  C4       1.0000 0.26390  0.25600  0.47730  Biso   1.000  C
  H4       1.0000 0.28050  0.21730  0.54860  Biso   1.000  H
  O17      1.0000 0.66630  0.09550  0.22970  Biso   1.000  O
  O18      1.0000 0.01540  0.05060  0.07140  Biso   1.000  O
  O19      1.0000 0.82630  0.18410  0.47970  Biso   1.000  O
  O20      1.0000 0.67970  0.25890  0.65300  Biso   1.000  O
  C5       1.0000 0.76390  0.24400  0.52270  Biso   1.000  C
  H5       1.0000 0.78050  0.28270  0.45140  Biso   1.000  H
  O21      1.0000 0.16630  0.59550  0.22970  Biso   1.000  O
  O22      1.0000 0.51540  0.55060  0.07140  Biso   1.000  O
  O23      1.0000 0.32630  0.68410  0.47970  Biso   1.000  O
  O24      1.0000 0.17970  0.75890  0.65300  Biso   1.000  O
  C6       1.0000 0.26390  0.74400  0.52270  Biso   1.000  C
  H6       1.0000 0.28050  0.78270  0.45140  Biso   1.000  H
  O25      1.0000 0.33370  0.90450  0.72970  Biso   1.000  O
  O26      1.0000 0.98460  0.94940  0.57140  Biso   1.000  O
  O27      1.0000 0.17370  0.81590  0.97970  Biso   1.000  O
  O28      1.0000 0.32030  0.74110  0.15300  Biso   1.000  O
  C7       1.0000 0.23610  0.75600  0.02270  Biso   1.000  C
  H7       1.0000 0.21950  0.71730  0.95140  Biso   1.000  H
  O29      1.0000 0.83370  0.40450  0.72970  Biso   1.000  O
  O30      1.0000 0.48460  0.44940  0.57140  Biso   1.000  O
  O31      1.0000 0.67370  0.31590  0.97970  Biso   1.000  O
  O32      1.0000 0.82030  0.24110  0.15300  Biso   1.000  O
  C8       1.0000 0.73610  0.25600  0.02270  Biso   1.000  C
  H8       1.0000 0.71950  0.21730  0.95140  Biso   1.000  H
  Lu1      1.0000 0.00000  0.14278  0.25000  Biso   1.000  Lu
  Lu2      1.0000 0.50000  0.64278  0.25000  Biso   1.000  Lu
  Lu3      1.0000 0.00000  0.85722  0.75000  Biso   1.000  Lu
  Lu4      1.0000 0.50000  0.35722  0.75000  Biso   1.000  Lu
  C9       1.0000 0.50000  0.12600  0.25000  Biso   1.000  C
  H9       1.0000 0.50000  0.17710  0.25000  Biso   1.000  H
  C10      1.0000 0.00000  0.62600  0.25000  Biso   1.000  C
  H10      1.0000 0.00000  0.67710  0.25000  Biso   1.000  H
  C11      1.0000 0.50000  0.87400  0.75000  Biso   1.000  C
  H11      1.0000 0.50000  0.82290  0.75000  Biso   1.000  H
  C12      1.0000 0.00000  0.37400  0.75000  Biso   1.000  C
  H12      1.0000 0.00000  0.32290  0.75000  Biso   1.000  H
  C13      1.0000 0.07650  0.00000  0.50000  Biso   1.000  C
  H13      1.0000 0.21700  0.00000  0.50000  Biso   1.000  H
  C14      1.0000 0.57650  0.50000  0.50000  Biso   1.000  C
  H14      1.0000 0.71700  0.50000  0.50000  Biso   1.000  H
  C15      1.0000 0.92350  0.00000  0.00000  Biso   1.000  C
  H15      1.0000 0.78300  0.00000  0.00000  Biso   1.000  H
  C16      1.0000 0.42350  0.50000  0.00000  Biso   1.000  C
  H16      1.0000 0.28300  0.50000  0.00000  Biso   1.000  H
