data_image0
_cell_length_a       11.2621
_cell_length_b       7.1374
_cell_length_c       6.5867
_cell_angle_alpha    90
_cell_angle_beta     109.523
_cell_angle_gamma    90

_symmetry_space_group_name_H-M    "P 1"
_symmetry_int_tables_number       1

loop_
  _symmetry_equiv_pos_as_xyz
  'x, y, z'

loop_
  _atom_site_label
  _atom_site_occupancy
  _atom_site_fract_x
  _atom_site_fract_y
  _atom_site_fract_z
  _atom_site_thermal_displace_type
  _atom_site_B_iso_or_equiv
  _atom_site_type_symbol
  O1       1.0000 0.99210  0.80260  0.66430  Biso   1.000  O
  O2       1.0000 0.16990  0.74990  0.11430  Biso   1.000  O
  O3       1.0000 0.34610  0.60850  0.11800  Biso   1.000  O
  C1       1.0000 0.23500  0.65300  0.03360  Biso   1.000  C
  H1       1.0000 0.19510  0.60960  0.89420  Biso   1.000  H
  O4       1.0000 0.49210  0.30260  0.66430  Biso   1.000  O
  O5       1.0000 0.66990  0.24990  0.11430  Biso   1.000  O
  O6       1.0000 0.84610  0.10850  0.11800  Biso   1.000  O
  C2       1.0000 0.73500  0.15300  0.03360  Biso   1.000  C
  H2       1.0000 0.69510  0.10960  0.89420  Biso   1.000  H
  O7       1.0000 0.00790  0.80260  0.33570  Biso   1.000  O
  O8       1.0000 0.83010  0.74990  0.88570  Biso   1.000  O
  O9       1.0000 0.65390  0.60850  0.88200  Biso   1.000  O
  C3       1.0000 0.76500  0.65300  0.96640  Biso   1.000  C
  H3       1.0000 0.80490  0.60960  0.10580  Biso   1.000  H
  O10      1.0000 0.50790  0.30260  0.33570  Biso   1.000  O
  O11      1.0000 0.33010  0.24990  0.88570  Biso   1.000  O
  O12      1.0000 0.15390  0.10850  0.88200  Biso   1.000  O
  C4       1.0000 0.26500  0.15300  0.96640  Biso   1.000  C
  H4       1.0000 0.30490  0.10960  0.10580  Biso   1.000  H
  Y1       1.0000 0.00000  0.94810  0.00000  Biso   1.000  Y
  Y2       1.0000 0.50000  0.44810  0.00000  Biso   1.000  Y
  C5       1.0000 0.00000  0.88310  0.50000  Biso   1.000  C
  H5       1.0000 0.00000  0.01340  0.50000  Biso   1.000  H
  C6       1.0000 0.50000  0.38310  0.50000  Biso   1.000  C
  H6       1.0000 0.50000  0.51340  0.50000  Biso   1.000  H
