data_image0
_cell_length_a       14.6163
_cell_length_b       23.1639
_cell_length_c       15.7113
_cell_angle_alpha    90
_cell_angle_beta     108.061
_cell_angle_gamma    90

_symmetry_space_group_name_H-M    "P 1"
_symmetry_int_tables_number       1

loop_
  _symmetry_equiv_pos_as_xyz
  'x, y, z'

loop_
  _atom_site_label
  _atom_site_occupancy
  _atom_site_fract_x
  _atom_site_fract_y
  _atom_site_fract_z
  _atom_site_thermal_displace_type
  _atom_site_B_iso_or_equiv
  _atom_site_type_symbol
  Cd1      1.0000 0.73518  0.43898  0.08513  Biso   1.000  Cd
  Cd2      1.0000 0.76406  0.30267  0.20212  Biso   1.000  Cd
  O1       1.0000 0.54640  0.40770  0.01720  Biso   1.000  O
  O2       1.0000 0.39350  0.48510  0.06700  Biso   1.000  O
  O3       1.0000 0.83010  0.34513  0.09940  Biso   1.000  O
  O4       1.0000 0.27740  0.54871  0.05800  Biso   1.000  O
  O5       1.0000 0.65030  0.37831  0.14160  Biso   1.000  O
  O6       1.0000 0.39130  0.01854  0.36740  Biso   1.000  O
  O7       1.0000 0.66970  0.27775  0.70310  Biso   1.000  O
  O8       1.0000 0.89800  0.42775  0.11910  Biso   1.000  O
  C1       1.0000 0.28400  0.21300  0.23040  Biso   1.000  C
  O9       1.0000 0.23990  0.02669  0.36340  Biso   1.000  O
  O10      1.0000 0.65430  0.24323  0.56960  Biso   1.000  O
  C2       1.0000 0.35390  0.17450  0.21900  Biso   1.000  C
  H1       1.0000 0.39140  0.18470  0.18310  Biso   1.000  H
  C3       1.0000 0.50610  0.32680  0.19890  Biso   1.000  C
  H2       1.0000 0.56690  0.33000  0.24080  Biso   1.000  H
  N1       1.0000 0.26830  0.26689  0.18610  Biso   1.000  N
  C4       1.0000 0.54940  0.32000  0.58040  Biso   1.000  C
  N2       1.0000 0.34760  0.44841  0.45440  Biso   1.000  N
  C5       1.0000 0.48480  0.31100  0.49680  Biso   1.000  C
  H3       1.0000 0.48800  0.27690  0.46650  Biso   1.000  H
  C6       1.0000 0.48950  0.34954  0.11330  Biso   1.000  C
  C7       1.0000 0.43370  0.29966  0.22230  Biso   1.000  C
  H4       1.0000 0.44590  0.28470  0.27970  Biso   1.000  H
  C8       1.0000 0.33850  0.49457  0.19190  Biso   1.000  C
  C9       1.0000 0.41720  0.46612  0.24720  Biso   1.000  C
  H5       1.0000 0.46810  0.45660  0.22610  Biso   1.000  H
  C10      1.0000 0.31670  0.49090  0.50580  Biso   1.000  C
  C11      1.0000 0.41190  0.40410  0.50030  Biso   1.000  C
  C12      1.0000 0.54190  0.37030  0.62470  Biso   1.000  C
  H6       1.0000 0.58350  0.37630  0.68220  Biso   1.000  H
  C13      1.0000 0.34340  0.29460  0.16130  Biso   1.000  C
  C14      1.0000 0.56570  0.38094  0.08820  Biso   1.000  C
  C15      1.0000 0.42150  0.45160  0.33290  Biso   1.000  C
  H7       1.0000 0.47650  0.43370  0.36990  Biso   1.000  H
  O11      1.0000 0.26270  0.67040  0.66450  Biso   1.000  O
  C16      1.0000 0.26210  0.50720  0.22380  Biso   1.000  C
  H8       1.0000 0.20940  0.52730  0.18750  Biso   1.000  H
  C17      1.0000 0.22960  0.19800  0.28600  Biso   1.000  C
  H9       1.0000 0.18710  0.22420  0.29820  Biso   1.000  H
  C18      1.0000 0.36640  0.12160  0.26130  Biso   1.000  C
  H10      1.0000 0.41520  0.09710  0.25710  Biso   1.000  H
  C19      1.0000 0.62960  0.27780  0.62040  Biso   1.000  C
  C20      1.0000 0.30650  0.10490  0.31020  Biso   1.000  C
  C21      1.0000 0.33620  0.51127  0.09890  Biso   1.000  C
  C22      1.0000 0.00420  0.28860  0.11600  Biso   1.000  C
  H11      1.0000 0.94860  0.26660  0.09410  Biso   1.000  H
  C23      1.0000 0.26320  0.49020  0.30880  Biso   1.000  C
  H12      1.0000 0.20990  0.49680  0.32780  Biso   1.000  H
  C24      1.0000 0.34470  0.46310  0.36560  Biso   1.000  C
  C25      1.0000 0.99750  0.34640  0.13170  Biso   1.000  C
  C26      1.0000 0.39800  0.34410  0.05230  Biso   1.000  C
  H13      1.0000 0.38540  0.35870  0.99460  Biso   1.000  H
  C27      1.0000 0.31550  0.04600  0.35050  Biso   1.000  C
  C28      1.0000 0.47390  0.41190  0.58570  Biso   1.000  C
  H14      1.0000 0.47000  0.44530  0.61720  Biso   1.000  H
  C29      1.0000 0.24010  0.14280  0.32280  Biso   1.000  C
  H15      1.0000 0.20120  0.13150  0.35680  Biso   1.000  H
  C30      1.0000 0.17750  0.29430  0.16620  Biso   1.000  C
  C31      1.0000 0.32510  0.31680  0.07680  Biso   1.000  C
  H16      1.0000 0.26380  0.31370  0.03580  Biso   1.000  H
  C32      1.0000 0.09340  0.26280  0.13270  Biso   1.000  C
  H17      1.0000 0.09700  0.22360  0.12130  Biso   1.000  H
  O12      1.0000 0.18460  0.60280  0.71670  Biso   1.000  O
  C33      1.0000 0.33000  0.54970  0.49520  Biso   1.000  C
  H18      1.0000 0.35840  0.56190  0.45300  Biso   1.000  H
  C34      1.0000 0.41490  0.35160  0.45660  Biso   1.000  C
  H19      1.0000 0.37030  0.34410  0.40100  Biso   1.000  H
  C35      1.0000 0.27570  0.47330  0.57080  Biso   1.000  C
  H20      1.0000 0.26800  0.43430  0.58080  Biso   1.000  H
  C36      1.0000 0.90100  0.37290  0.11560  Biso   1.000  C
  C37      1.0000 0.08240  0.37890  0.16300  Biso   1.000  C
  H21      1.0000 0.07890  0.41840  0.17200  Biso   1.000  H
  C38      1.0000 0.30160  0.58980  0.54630  Biso   1.000  C
  H22      1.0000 0.31010  0.62890  0.53740  Biso   1.000  H
  C39      1.0000 0.17180  0.35250  0.18060  Biso   1.000  C
  H23      1.0000 0.22770  0.37430  0.20220  Biso   1.000  H
  C40      1.0000 0.24630  0.51600  0.62120  Biso   1.000  C
  H24      1.0000 0.21630  0.50470  0.66280  Biso   1.000  H
  C41      1.0000 0.26090  0.57320  0.61030  Biso   1.000  C
  C42      1.0000 0.23220  0.61940  0.66690  Biso   1.000  C
  Cd3      1.0000 0.26482  0.93898  0.41487  Biso   1.000  Cd
  Cd4      1.0000 0.23594  0.80267  0.29788  Biso   1.000  Cd
  O13      1.0000 0.45360  0.90770  0.48280  Biso   1.000  O
  O14      1.0000 0.60650  0.98510  0.43300  Biso   1.000  O
  O15      1.0000 0.16990  0.84513  0.40060  Biso   1.000  O
  O16      1.0000 0.72260  0.04871  0.44200  Biso   1.000  O
  O17      1.0000 0.34970  0.87831  0.35840  Biso   1.000  O
  O18      1.0000 0.60870  0.51854  0.13260  Biso   1.000  O
  O19      1.0000 0.33030  0.77775  0.79690  Biso   1.000  O
  O20      1.0000 0.10200  0.92775  0.38090  Biso   1.000  O
  C43      1.0000 0.71600  0.71300  0.26960  Biso   1.000  C
  O21      1.0000 0.76010  0.52669  0.13660  Biso   1.000  O
  O22      1.0000 0.34570  0.74323  0.93040  Biso   1.000  O
  C44      1.0000 0.64610  0.67450  0.28100  Biso   1.000  C
  H25      1.0000 0.60860  0.68470  0.31690  Biso   1.000  H
  C45      1.0000 0.49390  0.82680  0.30110  Biso   1.000  C
  H26      1.0000 0.43310  0.83000  0.25920  Biso   1.000  H
  N3       1.0000 0.73170  0.76689  0.31390  Biso   1.000  N
  C46      1.0000 0.45060  0.82000  0.91960  Biso   1.000  C
  N4       1.0000 0.65240  0.94841  0.04560  Biso   1.000  N
  C47      1.0000 0.51520  0.81100  0.00320  Biso   1.000  C
  H27      1.0000 0.51200  0.77690  0.03350  Biso   1.000  H
  C48      1.0000 0.51050  0.84954  0.38670  Biso   1.000  C
  C49      1.0000 0.56630  0.79966  0.27770  Biso   1.000  C
  H28      1.0000 0.55410  0.78470  0.22030  Biso   1.000  H
  C50      1.0000 0.66150  0.99457  0.30810  Biso   1.000  C
  C51      1.0000 0.58280  0.96612  0.25280  Biso   1.000  C
  H29      1.0000 0.53190  0.95660  0.27390  Biso   1.000  H
  C52      1.0000 0.68330  0.99090  0.99420  Biso   1.000  C
  C53      1.0000 0.58810  0.90410  0.99970  Biso   1.000  C
  C54      1.0000 0.45810  0.87030  0.87530  Biso   1.000  C
  H30      1.0000 0.41650  0.87630  0.81780  Biso   1.000  H
  C55      1.0000 0.65660  0.79460  0.33870  Biso   1.000  C
  C56      1.0000 0.43430  0.88094  0.41180  Biso   1.000  C
  C57      1.0000 0.57850  0.95160  0.16710  Biso   1.000  C
  H31      1.0000 0.52350  0.93370  0.13010  Biso   1.000  H
  O23      1.0000 0.73730  0.17040  0.83550  Biso   1.000  O
  C58      1.0000 0.73790  0.00720  0.27620  Biso   1.000  C
  H32      1.0000 0.79060  0.02730  0.31250  Biso   1.000  H
  C59      1.0000 0.77040  0.69800  0.21400  Biso   1.000  C
  H33      1.0000 0.81290  0.72420  0.20180  Biso   1.000  H
  C60      1.0000 0.63360  0.62160  0.23870  Biso   1.000  C
  H34      1.0000 0.58480  0.59710  0.24290  Biso   1.000  H
  C61      1.0000 0.37040  0.77780  0.87960  Biso   1.000  C
  C62      1.0000 0.69350  0.60490  0.18980  Biso   1.000  C
  C63      1.0000 0.66380  0.01127  0.40110  Biso   1.000  C
  C64      1.0000 0.99580  0.78860  0.38400  Biso   1.000  C
  H35      1.0000 0.05140  0.76660  0.40590  Biso   1.000  H
  C65      1.0000 0.73680  0.99020  0.19120  Biso   1.000  C
  H36      1.0000 0.79010  0.99680  0.17220  Biso   1.000  H
  C66      1.0000 0.65530  0.96310  0.13440  Biso   1.000  C
  C67      1.0000 0.00250  0.84640  0.36830  Biso   1.000  C
  C68      1.0000 0.60200  0.84410  0.44770  Biso   1.000  C
  H37      1.0000 0.61460  0.85870  0.50540  Biso   1.000  H
  C69      1.0000 0.68450  0.54600  0.14950  Biso   1.000  C
  C70      1.0000 0.52610  0.91190  0.91430  Biso   1.000  C
  H38      1.0000 0.53000  0.94530  0.88280  Biso   1.000  H
  C71      1.0000 0.75990  0.64280  0.17720  Biso   1.000  C
  H39      1.0000 0.79880  0.63150  0.14320  Biso   1.000  H
  C72      1.0000 0.82250  0.79430  0.33380  Biso   1.000  C
  C73      1.0000 0.67490  0.81680  0.42320  Biso   1.000  C
  H40      1.0000 0.73620  0.81370  0.46420  Biso   1.000  H
  C74      1.0000 0.90660  0.76280  0.36730  Biso   1.000  C
  H41      1.0000 0.90300  0.72360  0.37870  Biso   1.000  H
  O24      1.0000 0.81540  0.10280  0.78330  Biso   1.000  O
  C75      1.0000 0.67000  0.04970  0.00480  Biso   1.000  C
  H42      1.0000 0.64160  0.06190  0.04700  Biso   1.000  H
  C76      1.0000 0.58510  0.85160  0.04340  Biso   1.000  C
  H43      1.0000 0.62970  0.84410  0.09900  Biso   1.000  H
  C77      1.0000 0.72430  0.97330  0.92920  Biso   1.000  C
  H44      1.0000 0.73200  0.93430  0.91920  Biso   1.000  H
  C78      1.0000 0.09900  0.87290  0.38440  Biso   1.000  C
  C79      1.0000 0.91760  0.87890  0.33700  Biso   1.000  C
  H45      1.0000 0.92110  0.91840  0.32800  Biso   1.000  H
  C80      1.0000 0.69840  0.08980  0.95370  Biso   1.000  C
  H46      1.0000 0.68990  0.12890  0.96260  Biso   1.000  H
  C81      1.0000 0.82820  0.85250  0.31940  Biso   1.000  C
  H47      1.0000 0.77230  0.87430  0.29780  Biso   1.000  H
  C82      1.0000 0.75370  0.01600  0.87880  Biso   1.000  C
  H48      1.0000 0.78370  0.00470  0.83720  Biso   1.000  H
  C83      1.0000 0.73910  0.07320  0.88970  Biso   1.000  C
  C84      1.0000 0.76780  0.11940  0.83310  Biso   1.000  C
  Cd5      1.0000 0.26482  0.56102  0.91487  Biso   1.000  Cd
  Cd6      1.0000 0.23594  0.69733  0.79788  Biso   1.000  Cd
  O25      1.0000 0.45360  0.59230  0.98280  Biso   1.000  O
  O26      1.0000 0.60650  0.51490  0.93300  Biso   1.000  O
  O27      1.0000 0.16990  0.65487  0.90060  Biso   1.000  O
  O28      1.0000 0.72260  0.45129  0.94200  Biso   1.000  O
  O29      1.0000 0.34970  0.62169  0.85840  Biso   1.000  O
  O30      1.0000 0.60870  0.98146  0.63260  Biso   1.000  O
  O31      1.0000 0.33030  0.72225  0.29690  Biso   1.000  O
  O32      1.0000 0.10200  0.57225  0.88090  Biso   1.000  O
  C85      1.0000 0.71600  0.78700  0.76960  Biso   1.000  C
  O33      1.0000 0.76010  0.97331  0.63660  Biso   1.000  O
  O34      1.0000 0.34570  0.75677  0.43040  Biso   1.000  O
  C86      1.0000 0.64610  0.82550  0.78100  Biso   1.000  C
  H49      1.0000 0.60860  0.81530  0.81690  Biso   1.000  H
  C87      1.0000 0.49390  0.67320  0.80110  Biso   1.000  C
  H50      1.0000 0.43310  0.67000  0.75920  Biso   1.000  H
  N5       1.0000 0.73170  0.73311  0.81390  Biso   1.000  N
  C88      1.0000 0.45060  0.68000  0.41960  Biso   1.000  C
  N6       1.0000 0.65240  0.55159  0.54560  Biso   1.000  N
  C89      1.0000 0.51520  0.68900  0.50320  Biso   1.000  C
  H51      1.0000 0.51200  0.72310  0.53350  Biso   1.000  H
  C90      1.0000 0.51050  0.65046  0.88670  Biso   1.000  C
  C91      1.0000 0.56630  0.70034  0.77770  Biso   1.000  C
  H52      1.0000 0.55410  0.71530  0.72030  Biso   1.000  H
  C92      1.0000 0.66150  0.50543  0.80810  Biso   1.000  C
  C93      1.0000 0.58280  0.53388  0.75280  Biso   1.000  C
  H53      1.0000 0.53190  0.54340  0.77390  Biso   1.000  H
  C94      1.0000 0.68330  0.50910  0.49420  Biso   1.000  C
  C95      1.0000 0.58810  0.59590  0.49970  Biso   1.000  C
  C96      1.0000 0.45810  0.62970  0.37530  Biso   1.000  C
  H54      1.0000 0.41650  0.62370  0.31780  Biso   1.000  H
  C97      1.0000 0.65660  0.70540  0.83870  Biso   1.000  C
  C98      1.0000 0.43430  0.61906  0.91180  Biso   1.000  C
  C99      1.0000 0.57850  0.54840  0.66710  Biso   1.000  C
  H55      1.0000 0.52350  0.56630  0.63010  Biso   1.000  H
  O35      1.0000 0.73730  0.32960  0.33550  Biso   1.000  O
  C100     1.0000 0.73790  0.49280  0.77620  Biso   1.000  C
  H56      1.0000 0.79060  0.47270  0.81250  Biso   1.000  H
  C101     1.0000 0.77040  0.80200  0.71400  Biso   1.000  C
  H57      1.0000 0.81290  0.77580  0.70180  Biso   1.000  H
  C102     1.0000 0.63360  0.87840  0.73870  Biso   1.000  C
  H58      1.0000 0.58480  0.90290  0.74290  Biso   1.000  H
  C103     1.0000 0.37040  0.72220  0.37960  Biso   1.000  C
  C104     1.0000 0.69350  0.89510  0.68980  Biso   1.000  C
  C105     1.0000 0.66380  0.48873  0.90110  Biso   1.000  C
  C106     1.0000 0.99580  0.71140  0.88400  Biso   1.000  C
  H59      1.0000 0.05140  0.73340  0.90590  Biso   1.000  H
  C107     1.0000 0.73680  0.50980  0.69120  Biso   1.000  C
  H60      1.0000 0.79010  0.50320  0.67220  Biso   1.000  H
  C108     1.0000 0.65530  0.53690  0.63440  Biso   1.000  C
  C109     1.0000 0.00250  0.65360  0.86830  Biso   1.000  C
  C110     1.0000 0.60200  0.65590  0.94770  Biso   1.000  C
  H61      1.0000 0.61460  0.64130  0.00540  Biso   1.000  H
  C111     1.0000 0.68450  0.95400  0.64950  Biso   1.000  C
  C112     1.0000 0.52610  0.58810  0.41430  Biso   1.000  C
  H62      1.0000 0.53000  0.55470  0.38280  Biso   1.000  H
  C113     1.0000 0.75990  0.85720  0.67720  Biso   1.000  C
  H63      1.0000 0.79880  0.86850  0.64320  Biso   1.000  H
  C114     1.0000 0.82250  0.70570  0.83380  Biso   1.000  C
  C115     1.0000 0.67490  0.68320  0.92320  Biso   1.000  C
  H64      1.0000 0.73620  0.68630  0.96420  Biso   1.000  H
  C116     1.0000 0.90660  0.73720  0.86730  Biso   1.000  C
  H65      1.0000 0.90300  0.77640  0.87870  Biso   1.000  H
  O36      1.0000 0.81540  0.39720  0.28330  Biso   1.000  O
  C117     1.0000 0.67000  0.45030  0.50480  Biso   1.000  C
  H66      1.0000 0.64160  0.43810  0.54700  Biso   1.000  H
  C118     1.0000 0.58510  0.64840  0.54340  Biso   1.000  C
  H67      1.0000 0.62970  0.65590  0.59900  Biso   1.000  H
  C119     1.0000 0.72430  0.52670  0.42920  Biso   1.000  C
  H68      1.0000 0.73200  0.56570  0.41920  Biso   1.000  H
  C120     1.0000 0.09900  0.62710  0.88440  Biso   1.000  C
  C121     1.0000 0.91760  0.62110  0.83700  Biso   1.000  C
  H69      1.0000 0.92110  0.58160  0.82800  Biso   1.000  H
  C122     1.0000 0.69840  0.41020  0.45370  Biso   1.000  C
  H70      1.0000 0.68990  0.37110  0.46260  Biso   1.000  H
  C123     1.0000 0.82820  0.64750  0.81940  Biso   1.000  C
  H71      1.0000 0.77230  0.62570  0.79780  Biso   1.000  H
  C124     1.0000 0.75370  0.48400  0.37880  Biso   1.000  C
  H72      1.0000 0.78370  0.49530  0.33720  Biso   1.000  H
  C125     1.0000 0.73910  0.42680  0.38970  Biso   1.000  C
  C126     1.0000 0.76780  0.38060  0.33310  Biso   1.000  C
  Cd7      1.0000 0.73518  0.06102  0.58513  Biso   1.000  Cd
  Cd8      1.0000 0.76406  0.19733  0.70212  Biso   1.000  Cd
  O37      1.0000 0.54640  0.09230  0.51720  Biso   1.000  O
  O38      1.0000 0.39350  0.01490  0.56700  Biso   1.000  O
  O39      1.0000 0.83010  0.15487  0.59940  Biso   1.000  O
  O40      1.0000 0.27740  0.95129  0.55800  Biso   1.000  O
  O41      1.0000 0.65030  0.12169  0.64160  Biso   1.000  O
  O42      1.0000 0.39130  0.48146  0.86740  Biso   1.000  O
  O43      1.0000 0.66970  0.22225  0.20310  Biso   1.000  O
  O44      1.0000 0.89800  0.07225  0.61910  Biso   1.000  O
  C127     1.0000 0.28400  0.28700  0.73040  Biso   1.000  C
  O45      1.0000 0.23990  0.47331  0.86340  Biso   1.000  O
  O46      1.0000 0.65430  0.25677  0.06960  Biso   1.000  O
  C128     1.0000 0.35390  0.32550  0.71900  Biso   1.000  C
  H73      1.0000 0.39140  0.31530  0.68310  Biso   1.000  H
  C129     1.0000 0.50610  0.17320  0.69890  Biso   1.000  C
  H74      1.0000 0.56690  0.17000  0.74080  Biso   1.000  H
  N7       1.0000 0.26830  0.23311  0.68610  Biso   1.000  N
  C130     1.0000 0.54940  0.18000  0.08040  Biso   1.000  C
  N8       1.0000 0.34760  0.05159  0.95440  Biso   1.000  N
  C131     1.0000 0.48480  0.18900  0.99680  Biso   1.000  C
  H75      1.0000 0.48800  0.22310  0.96650  Biso   1.000  H
  C132     1.0000 0.48950  0.15046  0.61330  Biso   1.000  C
  C133     1.0000 0.43370  0.20034  0.72230  Biso   1.000  C
  H76      1.0000 0.44590  0.21530  0.77970  Biso   1.000  H
  C134     1.0000 0.33850  0.00543  0.69190  Biso   1.000  C
  C135     1.0000 0.41720  0.03388  0.74720  Biso   1.000  C
  H77      1.0000 0.46810  0.04340  0.72610  Biso   1.000  H
  C136     1.0000 0.31670  0.00910  0.00580  Biso   1.000  C
  C137     1.0000 0.41190  0.09590  0.00030  Biso   1.000  C
  C138     1.0000 0.54190  0.12970  0.12470  Biso   1.000  C
  H78      1.0000 0.58350  0.12370  0.18220  Biso   1.000  H
  C139     1.0000 0.34340  0.20540  0.66130  Biso   1.000  C
  C140     1.0000 0.56570  0.11906  0.58820  Biso   1.000  C
  C141     1.0000 0.42150  0.04840  0.83290  Biso   1.000  C
  H79      1.0000 0.47650  0.06630  0.86990  Biso   1.000  H
  O47      1.0000 0.26270  0.82960  0.16450  Biso   1.000  O
  C142     1.0000 0.26210  0.99280  0.72380  Biso   1.000  C
  H80      1.0000 0.20940  0.97270  0.68750  Biso   1.000  H
  C143     1.0000 0.22960  0.30200  0.78600  Biso   1.000  C
  H81      1.0000 0.18710  0.27580  0.79820  Biso   1.000  H
  C144     1.0000 0.36640  0.37840  0.76130  Biso   1.000  C
  H82      1.0000 0.41520  0.40290  0.75710  Biso   1.000  H
  C145     1.0000 0.62960  0.22220  0.12040  Biso   1.000  C
  C146     1.0000 0.30650  0.39510  0.81020  Biso   1.000  C
  C147     1.0000 0.33620  0.98873  0.59890  Biso   1.000  C
  C148     1.0000 0.00420  0.21140  0.61600  Biso   1.000  C
  H83      1.0000 0.94860  0.23340  0.59410  Biso   1.000  H
  C149     1.0000 0.26320  0.00980  0.80880  Biso   1.000  C
  H84      1.0000 0.20990  0.00320  0.82780  Biso   1.000  H
  C150     1.0000 0.34470  0.03690  0.86560  Biso   1.000  C
  C151     1.0000 0.99750  0.15360  0.63170  Biso   1.000  C
  C152     1.0000 0.39800  0.15590  0.55230  Biso   1.000  C
  H85      1.0000 0.38540  0.14130  0.49460  Biso   1.000  H
  C153     1.0000 0.31550  0.45400  0.85050  Biso   1.000  C
  C154     1.0000 0.47390  0.08810  0.08570  Biso   1.000  C
  H86      1.0000 0.47000  0.05470  0.11720  Biso   1.000  H
  C155     1.0000 0.24010  0.35720  0.82280  Biso   1.000  C
  H87      1.0000 0.20120  0.36850  0.85680  Biso   1.000  H
  C156     1.0000 0.17750  0.20570  0.66620  Biso   1.000  C
  C157     1.0000 0.32510  0.18320  0.57680  Biso   1.000  C
  H88      1.0000 0.26380  0.18630  0.53580  Biso   1.000  H
  C158     1.0000 0.09340  0.23720  0.63270  Biso   1.000  C
  H89      1.0000 0.09700  0.27640  0.62130  Biso   1.000  H
  O48      1.0000 0.18460  0.89720  0.21670  Biso   1.000  O
  C159     1.0000 0.33000  0.95030  0.99520  Biso   1.000  C
  H90      1.0000 0.35840  0.93810  0.95300  Biso   1.000  H
  C160     1.0000 0.41490  0.14840  0.95660  Biso   1.000  C
  H91      1.0000 0.37030  0.15590  0.90100  Biso   1.000  H
  C161     1.0000 0.27570  0.02670  0.07080  Biso   1.000  C
  H92      1.0000 0.26800  0.06570  0.08080  Biso   1.000  H
  C162     1.0000 0.90100  0.12710  0.61560  Biso   1.000  C
  C163     1.0000 0.08240  0.12110  0.66300  Biso   1.000  C
  H93      1.0000 0.07890  0.08160  0.67200  Biso   1.000  H
  C164     1.0000 0.30160  0.91020  0.04630  Biso   1.000  C
  H94      1.0000 0.31010  0.87110  0.03740  Biso   1.000  H
  C165     1.0000 0.17180  0.14750  0.68060  Biso   1.000  C
  H95      1.0000 0.22770  0.12570  0.70220  Biso   1.000  H
  C166     1.0000 0.24630  0.98400  0.12120  Biso   1.000  C
  H96      1.0000 0.21630  0.99530  0.16280  Biso   1.000  H
  C167     1.0000 0.26090  0.92680  0.11030  Biso   1.000  C
  C168     1.0000 0.23220  0.88060  0.16690  Biso   1.000  C
  Cd9      1.0000 0.50000  0.50000  0.00000  Biso   1.000  Cd
  Cd10     1.0000 0.50000  0.00000  0.50000  Biso   1.000  Cd
