data_image0
_cell_length_a       14.7979
_cell_length_b       18.6413
_cell_length_c       22.2879
_cell_angle_alpha    86.672
_cell_angle_beta     79.485
_cell_angle_gamma    75.825

_symmetry_space_group_name_H-M    "P 1"
_symmetry_int_tables_number       1

loop_
  _symmetry_equiv_pos_as_xyz
  'x, y, z'

loop_
  _atom_site_label
  _atom_site_occupancy
  _atom_site_fract_x
  _atom_site_fract_y
  _atom_site_fract_z
  _atom_site_thermal_displace_type
  _atom_site_B_iso_or_equiv
  _atom_site_type_symbol
  Zn1      1.0000 0.40363  0.80348  0.87209  Biso   1.000  Zn
  Zn2      1.0000 0.36145  0.06322  0.69566  Biso   1.000  Zn
  Zn3      1.0000 0.31222  0.70247  0.13319  Biso   1.000  Zn
  Zn4      1.0000 0.27045  0.95898  0.95561  Biso   1.000  Zn
  O1       1.0000 0.14149  0.79778  0.19063  Biso   1.000  O
  O2       1.0000 0.12940  0.03402  0.06348  Biso   1.000  O
  O3       1.0000 0.53778  0.73632  0.76636  Biso   1.000  O
  O4       1.0000 0.44089  0.64721  0.13907  Biso   1.000  O
  O5       1.0000 0.18534  0.15774  0.74954  Biso   1.000  O
  N1       1.0000 0.36100  0.00201  0.77339  Biso   1.000  N
  N2       1.0000 0.27740  0.02136  0.65273  Biso   1.000  N
  N3       1.0000 0.39700  0.67450  0.98475  Biso   1.000  N
  H1       1.0000 0.35180  0.65580  0.97830  Biso   1.000  H
  H2       1.0000 0.43780  0.67260  0.95140  Biso   1.000  H
  O6       1.0000 0.32493  0.17115  0.70336  Biso   1.000  O
  N4       1.0000 0.31950  0.76660  0.05856  Biso   1.000  N
  O7       1.0000 0.53972  0.75867  0.86261  Biso   1.000  O
  C1       1.0000 0.36230  0.74654  0.00089  Biso   1.000  C
  C2       1.0000 0.53440  0.99200  0.62738  Biso   1.000  C
  N5       1.0000 0.37900  0.90307  0.83542  Biso   1.000  N
  C3       1.0000 0.39080  0.92753  0.77820  Biso   1.000  C
  O8       1.0000 0.28150  0.74301  0.21496  Biso   1.000  O
  N6       1.0000 0.22150  0.63967  0.12296  Biso   1.000  N
  N7       1.0000 0.31560  0.86634  0.99787  Biso   1.000  N
  N8       1.0000 0.32540  0.74719  0.83561  Biso   1.000  N
  N9       1.0000 0.33740  0.96717  0.87122  Biso   1.000  N
  N10      1.0000 0.36190  0.80223  0.96281  Biso   1.000  N
  N11      1.0000 0.24890  0.88628  0.10224  Biso   1.000  N
  H3       1.0000 0.20980  0.92420  0.09020  Biso   1.000  H
  H4       1.0000 0.21860  0.86200  0.12930  Biso   1.000  H
  O9       1.0000 0.49512  0.05081  0.65765  Biso   1.000  O
  O10      1.0000 0.43757  0.56097  0.07512  Biso   1.000  O
  N12      1.0000 0.42680  0.88164  0.73021  Biso   1.000  N
  H5       1.0000 0.41400  0.83930  0.73930  Biso   1.000  H
  H6       1.0000 0.40100  0.90080  0.69950  Biso   1.000  H
  C4       1.0000 0.68610  0.91551  0.57324  Biso   1.000  C
  H7       1.0000 0.65150  0.88520  0.56120  Biso   1.000  H
  O11      1.0000 0.21560  0.05878  0.97539  Biso   1.000  O
  C5       1.0000 0.72990  0.65120  0.75636  Biso   1.000  C
  H8       1.0000 0.69440  0.63560  0.73160  Biso   1.000  H
  O12      1.0000 0.49199  0.94638  0.61586  Biso   1.000  O
  N13      1.0000 0.97330  0.88941  0.49975  Biso   1.000  N
  C6       1.0000 0.57960  0.73429  0.80972  Biso   1.000  C
  N14      1.0000 0.92190  0.41932  0.06577  Biso   1.000  N
  C7       1.0000 0.24060  0.19645  0.72761  Biso   1.000  C
  C8       1.0000 0.20470  0.99830  0.68521  Biso   1.000  C
  H9       1.0000 0.19280  0.00400  0.72730  Biso   1.000  H
  C9       1.0000 0.14660  0.66948  0.09585  Biso   1.000  C
  H10      1.0000 0.13500  0.71960  0.08570  Biso   1.000  H
  N15      1.0000 0.01790  0.54518  0.75757  Biso   1.000  N
  C10      1.0000 0.03600  0.85910  0.37478  Biso   1.000  C
  H11      1.0000 0.97340  0.88430  0.38750  Biso   1.000  H
  N16      1.0000 0.29350  0.09505  0.84910  Biso   1.000  N
  H12      1.0000 0.25840  0.11820  0.82370  Biso   1.000  H
  H13      1.0000 0.25990  0.09720  0.88520  Biso   1.000  H
  C11      1.0000 0.82650  0.62277  0.74802  Biso   1.000  C
  H14      1.0000 0.85470  0.58690  0.71860  Biso   1.000  H
  C12      1.0000 0.16130  0.80134  0.29457  Biso   1.000  C
  C13      1.0000 0.29220  0.84219  0.05338  Biso   1.000  C
  C14      1.0000 0.09820  0.84333  0.41619  Biso   1.000  C
  C15      1.0000 0.68500  0.70294  0.80137  Biso   1.000  C
  C16      1.0000 0.16190  0.95713  0.59672  Biso   1.000  C
  C17      1.0000 0.64030  0.97650  0.60805  Biso   1.000  C
  C18      1.0000 0.06740  0.83730  0.31433  Biso   1.000  C
  H15      1.0000 0.02520  0.84700  0.28700  Biso   1.000  H
  C19      1.0000 0.78360  0.89890  0.55604  Biso   1.000  C
  H16      1.0000 0.81360  0.85800  0.53180  Biso   1.000  H
  C20      1.0000 0.17930  0.52369  0.12681  Biso   1.000  C
  H17      1.0000 0.19270  0.47380  0.13770  Biso   1.000  H
  C21      1.0000 0.14550  0.96620  0.65926  Biso   1.000  C
  H18      1.0000 0.09550  0.95090  0.68380  Biso   1.000  H
  C22      1.0000 0.29330  0.63380  0.81357  Biso   1.000  C
  H19      1.0000 0.31230  0.58240  0.81240  Biso   1.000  H
  C23      1.0000 0.08650  0.62979  0.08238  Biso   1.000  C
  H20      1.0000 0.03580  0.65240  0.06310  Biso   1.000  H
  C24      1.0000 0.32740  0.02327  0.83301  Biso   1.000  C
  C25      1.0000 0.01550  0.39255  0.05911  Biso   1.000  C
  C26      1.0000 0.05100  0.31207  0.04563  Biso   1.000  C
  C27      1.0000 0.19150  0.80570  0.39622  Biso   1.000  C
  H21      1.0000 0.23370  0.79490  0.42350  Biso   1.000  H
  C28      1.0000 0.07700  0.43455  0.06896  Biso   1.000  C
  H22      1.0000 0.14170  0.41370  0.06460  Biso   1.000  H
  C29      1.0000 0.88250  0.64652  0.78246  Biso   1.000  C
  C30      1.0000 0.23610  0.56864  0.13909  Biso   1.000  C
  H23      1.0000 0.28620  0.54810  0.15940  Biso   1.000  H
  C31      1.0000 0.98640  0.61607  0.77393  Biso   1.000  C
  C32      1.0000 0.10310  0.55359  0.09836  Biso   1.000  C
  C33      1.0000 0.19520  0.77978  0.22886  Biso   1.000  C
  C34      1.0000 0.06720  0.87385  0.47890  Biso   1.000  C
  C35      1.0000 0.94370  0.53654  0.09031  Biso   1.000  C
  H24      1.0000 0.91730  0.58610  0.09960  Biso   1.000  H
  C36      1.0000 0.14390  0.62830  0.77902  Biso   1.000  C
  C37      1.0000 0.29440  0.01092  0.59172  Biso   1.000  C
  H25      1.0000 0.34560  0.02590  0.56840  Biso   1.000  H
  C38      1.0000 0.74030  0.72560  0.83681  Biso   1.000  C
  H26      1.0000 0.71160  0.75920  0.86790  Biso   1.000  H
  C39      1.0000 0.13070  0.89229  0.51007  Biso   1.000  C
  H27      1.0000 0.19510  0.88040  0.49420  Biso   1.000  H
  C40      1.0000 0.83640  0.69938  0.82690  Biso   1.000  C
  H28      1.0000 0.87200  0.71710  0.85030  Biso   1.000  H
  C41      1.0000 0.79020  0.00320  0.60949  Biso   1.000  C
  H29      1.0000 0.82480  0.03290  0.62250  Biso   1.000  H
  C42      1.0000 0.24650  0.78301  0.81537  Biso   1.000  C
  H30      1.0000 0.23160  0.83450  0.81460  Biso   1.000  H
  C43      1.0000 0.09800  0.92868  0.56528  Biso   1.000  C
  C44      1.0000 0.24060  0.97971  0.56272  Biso   1.000  C
  H31      1.0000 0.25570  0.97330  0.52070  Biso   1.000  H
  C45      1.0000 0.83680  0.94231  0.57440  Biso   1.000  C
  C46      1.0000 0.00170  0.94457  0.58709  Biso   1.000  C
  H32      1.0000 0.97730  0.96850  0.62410  Biso   1.000  H
  C47      1.0000 0.04050  0.50808  0.08534  Biso   1.000  C
  C48      1.0000 0.04720  0.65786  0.78504  Biso   1.000  C
  H33      1.0000 0.02260  0.70680  0.79680  Biso   1.000  H
  C49      1.0000 0.17520  0.55461  0.76087  Biso   1.000  C
  H34      1.0000 0.23960  0.53230  0.75490  Biso   1.000  H
  C50      1.0000 0.78240  0.51685  0.08802  Biso   1.000  C
  C51      1.0000 0.94160  0.92459  0.55353  Biso   1.000  C
  C52      1.0000 0.63510  0.59800  0.13302  Biso   1.000  C
  H35      1.0000 0.60320  0.63660  0.15930  Biso   1.000  H
  C53      1.0000 0.58470  0.56391  0.10215  Biso   1.000  C
  C54      1.0000 0.63400  0.50533  0.06373  Biso   1.000  C
  H36      1.0000 0.60130  0.48230  0.04200  Biso   1.000  H
  C55      1.0000 0.69360  0.02080  0.62543  Biso   1.000  C
  H37      1.0000 0.66340  0.06290  0.64820  Biso   1.000  H
  C56      1.0000 0.88600  0.49048  0.08127  Biso   1.000  C
  C57      1.0000 0.18660  0.74740  0.79572  Biso   1.000  C
  H38      1.0000 0.13180  0.77470  0.78290  Biso   1.000  H
  C58      1.0000 0.20800  0.66994  0.79505  Biso   1.000  C
  C59      1.0000 0.20620  0.28036  0.73044  Biso   1.000  C
  C60      1.0000 0.48060  0.59115  0.10616  Biso   1.000  C
  C61      1.0000 0.14270  0.43360  0.74039  Biso   1.000  C
  C62      1.0000 0.11240  0.51426  0.75157  Biso   1.000  C
  C63      1.0000 0.73120  0.48134  0.05775  Biso   1.000  C
  H39      1.0000 0.76300  0.44100  0.03320  Biso   1.000  H
  C64      1.0000 0.02630  0.18838  0.06058  Biso   1.000  C
  H40      1.0000 0.98800  0.15640  0.07620  Biso   1.000  H
  C65      1.0000 0.99210  0.26492  0.06723  Biso   1.000  C
  H41      1.0000 0.93000  0.28430  0.08610  Biso   1.000  H
  C66      1.0000 0.14140  0.28310  0.01522  Biso   1.000  C
  H42      1.0000 0.18080  0.31440  0.00020  Biso   1.000  H
  C67      1.0000 0.11770  0.16090  0.03048  Biso   1.000  C
  C68      1.0000 0.08150  0.38860  0.75691  Biso   1.000  C
  H43      1.0000 0.01790  0.40960  0.77130  Biso   1.000  H
  C69      1.0000 0.34900  0.67270  0.83327  Biso   1.000  C
  H44      1.0000 0.40510  0.64700  0.84550  Biso   1.000  H
  C70      1.0000 0.22210  0.78430  0.33606  Biso   1.000  C
  H45      1.0000 0.28430  0.75810  0.32350  Biso   1.000  H
  C71      1.0000 0.73280  0.57530  0.12517  Biso   1.000  C
  H46      1.0000 0.76570  0.59990  0.14540  Biso   1.000  H
  C72      1.0000 0.17390  0.20760  0.00697  Biso   1.000  C
  H47      1.0000 0.23430  0.18850  0.98530  Biso   1.000  H
  C73      1.0000 0.23810  0.40060  0.71630  Biso   1.000  C
  H48      1.0000 0.28050  0.43010  0.70330  Biso   1.000  H
  C74      1.0000 0.11250  0.31260  0.75253  Biso   1.000  C
  H49      1.0000 0.06990  0.28300  0.76450  Biso   1.000  H
  C75      1.0000 0.26840  0.32460  0.71200  Biso   1.000  C
  H50      1.0000 0.33150  0.30320  0.69650  Biso   1.000  H
  C76      1.0000 0.15470  0.07910  0.02410  Biso   1.000  C
  Zn5      1.0000 0.59637  0.19652  0.12791  Biso   1.000  Zn
  Zn6      1.0000 0.63855  0.93678  0.30434  Biso   1.000  Zn
  Zn7      1.0000 0.68778  0.29753  0.86681  Biso   1.000  Zn
  Zn8      1.0000 0.72955  0.04102  0.04439  Biso   1.000  Zn
  O13      1.0000 0.85851  0.20222  0.80937  Biso   1.000  O
  O14      1.0000 0.87060  0.96598  0.93652  Biso   1.000  O
  O15      1.0000 0.46222  0.26368  0.23364  Biso   1.000  O
  O16      1.0000 0.55911  0.35279  0.86093  Biso   1.000  O
  O17      1.0000 0.81466  0.84226  0.25046  Biso   1.000  O
  N17      1.0000 0.63900  0.99799  0.22661  Biso   1.000  N
  N18      1.0000 0.72260  0.97864  0.34727  Biso   1.000  N
  N19      1.0000 0.60300  0.32550  0.01525  Biso   1.000  N
  H51      1.0000 0.64820  0.34420  0.02170  Biso   1.000  H
  H52      1.0000 0.56220  0.32740  0.04860  Biso   1.000  H
  O18      1.0000 0.67507  0.82885  0.29664  Biso   1.000  O
  N20      1.0000 0.68050  0.23340  0.94144  Biso   1.000  N
  O19      1.0000 0.46028  0.24133  0.13739  Biso   1.000  O
  C77      1.0000 0.63770  0.25346  0.99911  Biso   1.000  C
  C78      1.0000 0.46560  0.00800  0.37262  Biso   1.000  C
  N21      1.0000 0.62100  0.09693  0.16458  Biso   1.000  N
  C79      1.0000 0.60920  0.07247  0.22180  Biso   1.000  C
  O20      1.0000 0.71850  0.25699  0.78504  Biso   1.000  O
  N22      1.0000 0.77850  0.36033  0.87704  Biso   1.000  N
  N23      1.0000 0.68440  0.13366  0.00213  Biso   1.000  N
  N24      1.0000 0.67460  0.25281  0.16439  Biso   1.000  N
  N25      1.0000 0.66260  0.03283  0.12878  Biso   1.000  N
  N26      1.0000 0.63810  0.19777  0.03719  Biso   1.000  N
  N27      1.0000 0.75110  0.11372  0.89776  Biso   1.000  N
  H53      1.0000 0.79020  0.07580  0.90980  Biso   1.000  H
  H54      1.0000 0.78140  0.13800  0.87070  Biso   1.000  H
  O21      1.0000 0.50488  0.94919  0.34235  Biso   1.000  O
  O22      1.0000 0.56243  0.43903  0.92488  Biso   1.000  O
  N28      1.0000 0.57320  0.11836  0.26979  Biso   1.000  N
  H55      1.0000 0.58600  0.16070  0.26070  Biso   1.000  H
  H56      1.0000 0.59900  0.09920  0.30050  Biso   1.000  H
  C80      1.0000 0.31390  0.08449  0.42676  Biso   1.000  C
  H57      1.0000 0.34850  0.11480  0.43880  Biso   1.000  H
  O23      1.0000 0.78440  0.94122  0.02461  Biso   1.000  O
  C81      1.0000 0.27010  0.34880  0.24364  Biso   1.000  C
  H58      1.0000 0.30560  0.36440  0.26840  Biso   1.000  H
  O24      1.0000 0.50801  0.05362  0.38414  Biso   1.000  O
  N29      1.0000 0.02670  0.11059  0.50025  Biso   1.000  N
  C82      1.0000 0.42040  0.26571  0.19028  Biso   1.000  C
  N30      1.0000 0.07810  0.58068  0.93423  Biso   1.000  N
  C83      1.0000 0.75940  0.80355  0.27239  Biso   1.000  C
  C84      1.0000 0.79530  0.00170  0.31479  Biso   1.000  C
  H59      1.0000 0.80720  0.99600  0.27270  Biso   1.000  H
  C85      1.0000 0.85340  0.33052  0.90415  Biso   1.000  C
  H60      1.0000 0.86500  0.28040  0.91430  Biso   1.000  H
  N31      1.0000 0.98210  0.45482  0.24243  Biso   1.000  N
  C86      1.0000 0.96400  0.14090  0.62522  Biso   1.000  C
  H61      1.0000 0.02660  0.11570  0.61250  Biso   1.000  H
  N32      1.0000 0.70650  0.90495  0.15090  Biso   1.000  N
  H62      1.0000 0.74160  0.88180  0.17630  Biso   1.000  H
  H63      1.0000 0.74010  0.90280  0.11480  Biso   1.000  H
  C87      1.0000 0.17350  0.37723  0.25198  Biso   1.000  C
  H64      1.0000 0.14530  0.41310  0.28140  Biso   1.000  H
  C88      1.0000 0.83870  0.19866  0.70543  Biso   1.000  C
  C89      1.0000 0.70780  0.15781  0.94662  Biso   1.000  C
  C90      1.0000 0.90180  0.15667  0.58381  Biso   1.000  C
  C91      1.0000 0.31500  0.29706  0.19863  Biso   1.000  C
  C92      1.0000 0.83810  0.04287  0.40328  Biso   1.000  C
  C93      1.0000 0.35970  0.02350  0.39195  Biso   1.000  C
  C94      1.0000 0.93260  0.16270  0.68567  Biso   1.000  C
  H65      1.0000 0.97480  0.15300  0.71300  Biso   1.000  H
  C95      1.0000 0.21640  0.10110  0.44396  Biso   1.000  C
  H66      1.0000 0.18640  0.14200  0.46820  Biso   1.000  H
  C96      1.0000 0.82070  0.47631  0.87319  Biso   1.000  C
  H67      1.0000 0.80730  0.52620  0.86230  Biso   1.000  H
  C97      1.0000 0.85450  0.03380  0.34074  Biso   1.000  C
  H68      1.0000 0.90450  0.04910  0.31620  Biso   1.000  H
  C98      1.0000 0.70670  0.36620  0.18643  Biso   1.000  C
  H69      1.0000 0.68770  0.41760  0.18760  Biso   1.000  H
  C99      1.0000 0.91350  0.37021  0.91762  Biso   1.000  C
  H70      1.0000 0.96420  0.34760  0.93690  Biso   1.000  H
  C100     1.0000 0.67260  0.97673  0.16699  Biso   1.000  C
  C101     1.0000 0.98450  0.60745  0.94089  Biso   1.000  C
  C102     1.0000 0.94900  0.68793  0.95437  Biso   1.000  C
  C103     1.0000 0.80850  0.19430  0.60378  Biso   1.000  C
  H71      1.0000 0.76630  0.20510  0.57650  Biso   1.000  H
  C104     1.0000 0.92300  0.56545  0.93104  Biso   1.000  C
  H72      1.0000 0.85830  0.58630  0.93540  Biso   1.000  H
  C105     1.0000 0.11750  0.35348  0.21754  Biso   1.000  C
  C106     1.0000 0.76390  0.43136  0.86091  Biso   1.000  C
  H73      1.0000 0.71380  0.45190  0.84060  Biso   1.000  H
  C107     1.0000 0.01360  0.38393  0.22607  Biso   1.000  C
  C108     1.0000 0.89690  0.44641  0.90164  Biso   1.000  C
  C109     1.0000 0.80480  0.22022  0.77114  Biso   1.000  C
  C110     1.0000 0.93280  0.12615  0.52110  Biso   1.000  C
  C111     1.0000 0.05630  0.46346  0.90969  Biso   1.000  C
  H74      1.0000 0.08270  0.41390  0.90040  Biso   1.000  H
  C112     1.0000 0.85610  0.37170  0.22098  Biso   1.000  C
  C113     1.0000 0.70560  0.98908  0.40828  Biso   1.000  C
  H75      1.0000 0.65440  0.97410  0.43160  Biso   1.000  H
  C114     1.0000 0.25970  0.27440  0.16319  Biso   1.000  C
  H76      1.0000 0.28840  0.24080  0.13210  Biso   1.000  H
  C115     1.0000 0.86930  0.10771  0.48993  Biso   1.000  C
  H77      1.0000 0.80490  0.11960  0.50580  Biso   1.000  H
  C116     1.0000 0.16360  0.30062  0.17310  Biso   1.000  C
  H78      1.0000 0.12800  0.28290  0.14970  Biso   1.000  H
  C117     1.0000 0.20980  0.99680  0.39051  Biso   1.000  C
  H79      1.0000 0.17520  0.96710  0.37750  Biso   1.000  H
  C118     1.0000 0.75350  0.21699  0.18463  Biso   1.000  C
  H80      1.0000 0.76840  0.16550  0.18540  Biso   1.000  H
  C119     1.0000 0.90200  0.07132  0.43472  Biso   1.000  C
  C120     1.0000 0.75940  0.02029  0.43728  Biso   1.000  C
  H81      1.0000 0.74430  0.02670  0.47930  Biso   1.000  H
  C121     1.0000 0.16320  0.05769  0.42560  Biso   1.000  C
  C122     1.0000 0.99830  0.05543  0.41291  Biso   1.000  C
  H82      1.0000 0.02270  0.03150  0.37590  Biso   1.000  H
  C123     1.0000 0.95950  0.49192  0.91466  Biso   1.000  C
  C124     1.0000 0.95280  0.34214  0.21496  Biso   1.000  C
  H83      1.0000 0.97740  0.29320  0.20320  Biso   1.000  H
  C125     1.0000 0.82480  0.44539  0.23913  Biso   1.000  C
  H84      1.0000 0.76040  0.46770  0.24510  Biso   1.000  H
  C126     1.0000 0.21760  0.48315  0.91198  Biso   1.000  C
  C127     1.0000 0.05840  0.07541  0.44647  Biso   1.000  C
  C128     1.0000 0.36490  0.40200  0.86698  Biso   1.000  C
  H85      1.0000 0.39680  0.36340  0.84070  Biso   1.000  H
  C129     1.0000 0.41530  0.43609  0.89785  Biso   1.000  C
  C130     1.0000 0.36600  0.49467  0.93627  Biso   1.000  C
  H86      1.0000 0.39870  0.51770  0.95800  Biso   1.000  H
  C131     1.0000 0.30640  0.97920  0.37457  Biso   1.000  C
  H87      1.0000 0.33660  0.93710  0.35180  Biso   1.000  H
  C132     1.0000 0.11400  0.50952  0.91873  Biso   1.000  C
  C133     1.0000 0.81340  0.25260  0.20428  Biso   1.000  C
  H88      1.0000 0.86820  0.22530  0.21710  Biso   1.000  H
  C134     1.0000 0.79200  0.33006  0.20495  Biso   1.000  C
  C135     1.0000 0.79380  0.71964  0.26956  Biso   1.000  C
  C136     1.0000 0.51940  0.40885  0.89384  Biso   1.000  C
  C137     1.0000 0.85730  0.56640  0.25961  Biso   1.000  C
  C138     1.0000 0.88760  0.48574  0.24843  Biso   1.000  C
  C139     1.0000 0.26880  0.51866  0.94225  Biso   1.000  C
  H89      1.0000 0.23700  0.55900  0.96680  Biso   1.000  H
  C140     1.0000 0.97370  0.81162  0.93942  Biso   1.000  C
  H90      1.0000 0.01200  0.84360  0.92380  Biso   1.000  H
  C141     1.0000 0.00790  0.73508  0.93277  Biso   1.000  C
  H91      1.0000 0.07000  0.71570  0.91390  Biso   1.000  H
  C142     1.0000 0.85860  0.71690  0.98478  Biso   1.000  C
  H92      1.0000 0.81920  0.68560  0.99980  Biso   1.000  H
  C143     1.0000 0.88230  0.83910  0.96952  Biso   1.000  C
  C144     1.0000 0.91850  0.61140  0.24309  Biso   1.000  C
  H93      1.0000 0.98210  0.59040  0.22870  Biso   1.000  H
  C145     1.0000 0.65100  0.32730  0.16673  Biso   1.000  C
  H94      1.0000 0.59490  0.35300  0.15450  Biso   1.000  H
  C146     1.0000 0.77790  0.21570  0.66394  Biso   1.000  C
  H95      1.0000 0.71570  0.24190  0.67650  Biso   1.000  H
  C147     1.0000 0.26720  0.42470  0.87483  Biso   1.000  C
  H96      1.0000 0.23430  0.40010  0.85460  Biso   1.000  H
  C148     1.0000 0.82610  0.79240  0.99303  Biso   1.000  C
  H97      1.0000 0.76570  0.81150  0.01470  Biso   1.000  H
  C149     1.0000 0.76190  0.59940  0.28370  Biso   1.000  C
  H98      1.0000 0.71950  0.56990  0.29670  Biso   1.000  H
  C150     1.0000 0.88750  0.68740  0.24747  Biso   1.000  C
  H99      1.0000 0.93010  0.71700  0.23550  Biso   1.000  H
  C151     1.0000 0.73160  0.67540  0.28800  Biso   1.000  C
  H100     1.0000 0.66850  0.69680  0.30350  Biso   1.000  H
  C152     1.0000 0.84530  0.92090  0.97590  Biso   1.000  C
