data_image0
_cell_length_a       17.618
_cell_length_b       17.618
_cell_length_c       17.618
_cell_angle_alpha    90
_cell_angle_beta     90
_cell_angle_gamma    90

_symmetry_space_group_name_H-M    "P 1"
_symmetry_int_tables_number       1

loop_
  _symmetry_equiv_pos_as_xyz
  'x, y, z'

loop_
  _atom_site_label
  _atom_site_occupancy
  _atom_site_fract_x
  _atom_site_fract_y
  _atom_site_fract_z
  _atom_site_thermal_displace_type
  _atom_site_B_iso_or_equiv
  _atom_site_type_symbol
  C1       1.0000 0.48700  0.25920  0.49690  Biso   1.000  C
  C2       1.0000 0.49040  0.23410  0.41320  Biso   1.000  C
  C3       1.0000 0.41090  0.20840  0.38640  Biso   1.000  C
  O1       1.0000 0.40319  0.14150  0.36720  Biso   1.000  O
  O2       1.0000 0.54404  0.17705  0.40356  Biso   1.000  O
  O3       1.0000 0.36056  0.25713  0.38740  Biso   1.000  O
  O4       1.0000 0.50782  0.29930  0.37120  Biso   1.000  O
  O5       1.0000 0.45060  0.31900  0.50940  Biso   1.000  O
  O6       1.0000 0.51830  0.21850  0.54570  Biso   1.000  O
  Cu1      1.0000 0.49998  0.09204  0.34945  Biso   1.000  Cu
  C4       1.0000 0.01300  0.74080  0.99690  Biso   1.000  C
  C5       1.0000 0.00960  0.76590  0.91320  Biso   1.000  C
  C6       1.0000 0.08910  0.79160  0.88640  Biso   1.000  C
  O7       1.0000 0.09681  0.85850  0.86720  Biso   1.000  O
  O8       1.0000 0.95596  0.82295  0.90356  Biso   1.000  O
  O9       1.0000 0.13944  0.74287  0.88740  Biso   1.000  O
  O10      1.0000 0.99218  0.70070  0.87120  Biso   1.000  O
  O11      1.0000 0.04940  0.68100  0.00940  Biso   1.000  O
  O12      1.0000 0.98170  0.78150  0.04570  Biso   1.000  O
  Cu2      1.0000 0.00002  0.90796  0.84945  Biso   1.000  Cu
  C7       1.0000 0.51300  0.75920  0.00310  Biso   1.000  C
  C8       1.0000 0.50960  0.73410  0.08680  Biso   1.000  C
  C9       1.0000 0.58910  0.70840  0.11360  Biso   1.000  C
  O13      1.0000 0.59681  0.64150  0.13280  Biso   1.000  O
  O14      1.0000 0.45596  0.67705  0.09644  Biso   1.000  O
  O15      1.0000 0.63944  0.75713  0.11260  Biso   1.000  O
  O16      1.0000 0.49218  0.79930  0.12880  Biso   1.000  O
  O17      1.0000 0.54940  0.81900  0.99060  Biso   1.000  O
  O18      1.0000 0.48170  0.71850  0.95430  Biso   1.000  O
  Cu3      1.0000 0.50002  0.59204  0.15055  Biso   1.000  Cu
  C10      1.0000 0.98700  0.24080  0.50310  Biso   1.000  C
  C11      1.0000 0.99040  0.26590  0.58680  Biso   1.000  C
  C12      1.0000 0.91090  0.29160  0.61360  Biso   1.000  C
  O19      1.0000 0.90319  0.35850  0.63280  Biso   1.000  O
  O20      1.0000 0.04404  0.32295  0.59644  Biso   1.000  O
  O21      1.0000 0.86056  0.24287  0.61260  Biso   1.000  O
  O22      1.0000 0.00782  0.20070  0.62880  Biso   1.000  O
  O23      1.0000 0.95060  0.18100  0.49060  Biso   1.000  O
  O24      1.0000 0.01830  0.28150  0.45430  Biso   1.000  O
  Cu4      1.0000 0.99998  0.40796  0.65055  Biso   1.000  Cu
  C13      1.0000 0.49690  0.48700  0.25920  Biso   1.000  C
  C14      1.0000 0.41320  0.49040  0.23410  Biso   1.000  C
  C15      1.0000 0.38640  0.41090  0.20840  Biso   1.000  C
  O25      1.0000 0.36720  0.40319  0.14150  Biso   1.000  O
  O26      1.0000 0.40356  0.54404  0.17705  Biso   1.000  O
  O27      1.0000 0.38740  0.36056  0.25713  Biso   1.000  O
  O28      1.0000 0.37120  0.50782  0.29930  Biso   1.000  O
  O29      1.0000 0.50940  0.45060  0.31900  Biso   1.000  O
  O30      1.0000 0.54570  0.51830  0.21850  Biso   1.000  O
  Cu5      1.0000 0.34945  0.49998  0.09204  Biso   1.000  Cu
  C16      1.0000 0.99690  0.01300  0.74080  Biso   1.000  C
  C17      1.0000 0.91320  0.00960  0.76590  Biso   1.000  C
  C18      1.0000 0.88640  0.08910  0.79160  Biso   1.000  C
  O31      1.0000 0.86720  0.09681  0.85850  Biso   1.000  O
  O32      1.0000 0.90356  0.95596  0.82295  Biso   1.000  O
  O33      1.0000 0.88740  0.13944  0.74287  Biso   1.000  O
  O34      1.0000 0.87120  0.99218  0.70070  Biso   1.000  O
  O35      1.0000 0.00940  0.04940  0.68100  Biso   1.000  O
  O36      1.0000 0.04570  0.98170  0.78150  Biso   1.000  O
  Cu6      1.0000 0.84945  0.00002  0.90796  Biso   1.000  Cu
  C19      1.0000 0.00310  0.51300  0.75920  Biso   1.000  C
  C20      1.0000 0.08680  0.50960  0.73410  Biso   1.000  C
  C21      1.0000 0.11360  0.58910  0.70840  Biso   1.000  C
  O37      1.0000 0.13280  0.59681  0.64150  Biso   1.000  O
  O38      1.0000 0.09644  0.45596  0.67705  Biso   1.000  O
  O39      1.0000 0.11260  0.63944  0.75713  Biso   1.000  O
  O40      1.0000 0.12880  0.49218  0.79930  Biso   1.000  O
  O41      1.0000 0.99060  0.54940  0.81900  Biso   1.000  O
  O42      1.0000 0.95430  0.48170  0.71850  Biso   1.000  O
  Cu7      1.0000 0.15055  0.50002  0.59204  Biso   1.000  Cu
  C22      1.0000 0.50310  0.98700  0.24080  Biso   1.000  C
  C23      1.0000 0.58680  0.99040  0.26590  Biso   1.000  C
  C24      1.0000 0.61360  0.91090  0.29160  Biso   1.000  C
  O43      1.0000 0.63280  0.90319  0.35850  Biso   1.000  O
  O44      1.0000 0.59644  0.04404  0.32295  Biso   1.000  O
  O45      1.0000 0.61260  0.86056  0.24287  Biso   1.000  O
  O46      1.0000 0.62880  0.00782  0.20070  Biso   1.000  O
  O47      1.0000 0.49060  0.95060  0.18100  Biso   1.000  O
  O48      1.0000 0.45430  0.01830  0.28150  Biso   1.000  O
  Cu8      1.0000 0.65055  0.99998  0.40796  Biso   1.000  Cu
  C25      1.0000 0.25920  0.49690  0.48700  Biso   1.000  C
  C26      1.0000 0.23410  0.41320  0.49040  Biso   1.000  C
  C27      1.0000 0.20840  0.38640  0.41090  Biso   1.000  C
  O49      1.0000 0.14150  0.36720  0.40319  Biso   1.000  O
  O50      1.0000 0.17705  0.40356  0.54404  Biso   1.000  O
  O51      1.0000 0.25713  0.38740  0.36056  Biso   1.000  O
  O52      1.0000 0.29930  0.37120  0.50782  Biso   1.000  O
  O53      1.0000 0.31900  0.50940  0.45060  Biso   1.000  O
  O54      1.0000 0.21850  0.54570  0.51830  Biso   1.000  O
  Cu9      1.0000 0.09204  0.34945  0.49998  Biso   1.000  Cu
  C28      1.0000 0.74080  0.99690  0.01300  Biso   1.000  C
  C29      1.0000 0.76590  0.91320  0.00960  Biso   1.000  C
  C30      1.0000 0.79160  0.88640  0.08910  Biso   1.000  C
  O55      1.0000 0.85850  0.86720  0.09681  Biso   1.000  O
  O56      1.0000 0.82295  0.90356  0.95596  Biso   1.000  O
  O57      1.0000 0.74287  0.88740  0.13944  Biso   1.000  O
  O58      1.0000 0.70070  0.87120  0.99218  Biso   1.000  O
  O59      1.0000 0.68100  0.00940  0.04940  Biso   1.000  O
  O60      1.0000 0.78150  0.04570  0.98170  Biso   1.000  O
  Cu10     1.0000 0.90796  0.84945  0.00002  Biso   1.000  Cu
  C31      1.0000 0.75920  0.00310  0.51300  Biso   1.000  C
  C32      1.0000 0.73410  0.08680  0.50960  Biso   1.000  C
  C33      1.0000 0.70840  0.11360  0.58910  Biso   1.000  C
  O61      1.0000 0.64150  0.13280  0.59681  Biso   1.000  O
  O62      1.0000 0.67705  0.09644  0.45596  Biso   1.000  O
  O63      1.0000 0.75713  0.11260  0.63944  Biso   1.000  O
  O64      1.0000 0.79930  0.12880  0.49218  Biso   1.000  O
  O65      1.0000 0.81900  0.99060  0.54940  Biso   1.000  O
  O66      1.0000 0.71850  0.95430  0.48170  Biso   1.000  O
  Cu11     1.0000 0.59204  0.15055  0.50002  Biso   1.000  Cu
  C34      1.0000 0.24080  0.50310  0.98700  Biso   1.000  C
  C35      1.0000 0.26590  0.58680  0.99040  Biso   1.000  C
  C36      1.0000 0.29160  0.61360  0.91090  Biso   1.000  C
  O67      1.0000 0.35850  0.63280  0.90319  Biso   1.000  O
  O68      1.0000 0.32295  0.59644  0.04404  Biso   1.000  O
  O69      1.0000 0.24287  0.61260  0.86056  Biso   1.000  O
  O70      1.0000 0.20070  0.62880  0.00782  Biso   1.000  O
  O71      1.0000 0.18100  0.49060  0.95060  Biso   1.000  O
  O72      1.0000 0.28150  0.45430  0.01830  Biso   1.000  O
  Cu12     1.0000 0.40796  0.65055  0.99998  Biso   1.000  Cu
  Ce1      1.0000 0.39726  0.39726  0.39726  Biso   1.000  Ce
  Ce2      1.0000 0.10274  0.60274  0.89726  Biso   1.000  Ce
  Ce3      1.0000 0.60274  0.89726  0.10274  Biso   1.000  Ce
  Ce4      1.0000 0.89726  0.10274  0.60274  Biso   1.000  Ce
