data_image0
_cell_length_a       17.58
_cell_length_b       17.58
_cell_length_c       17.58
_cell_angle_alpha    90
_cell_angle_beta     90
_cell_angle_gamma    90

_symmetry_space_group_name_H-M    "P 1"
_symmetry_int_tables_number       1

loop_
  _symmetry_equiv_pos_as_xyz
  'x, y, z'

loop_
  _atom_site_label
  _atom_site_occupancy
  _atom_site_fract_x
  _atom_site_fract_y
  _atom_site_fract_z
  _atom_site_thermal_displace_type
  _atom_site_B_iso_or_equiv
  _atom_site_type_symbol
  Cu1      1.0000 0.50127  0.40556  0.84804  Biso   1.000  Cu
  C1       1.0000 0.49230  0.26370  0.90900  Biso   1.000  C
  C2       1.0000 0.41360  0.28980  0.88530  Biso   1.000  C
  C3       1.0000 0.48710  0.24230  0.00040  Biso   1.000  C
  O1       1.0000 0.54610  0.32220  0.90210  Biso   1.000  O
  O2       1.0000 0.50900  0.19870  0.87310  Biso   1.000  O
  O3       1.0000 0.45310  0.17650  0.01210  Biso   1.000  O
  O4       1.0000 0.36080  0.24020  0.88900  Biso   1.000  O
  O5       1.0000 0.40190  0.35600  0.86760  Biso   1.000  O
  O6       1.0000 0.51910  0.28110  0.04630  Biso   1.000  O
  Cu2      1.0000 0.99873  0.59444  0.34804  Biso   1.000  Cu
  C4       1.0000 0.00770  0.73630  0.40900  Biso   1.000  C
  C5       1.0000 0.08640  0.71020  0.38530  Biso   1.000  C
  C6       1.0000 0.01290  0.75770  0.50040  Biso   1.000  C
  O7       1.0000 0.95390  0.67780  0.40210  Biso   1.000  O
  O8       1.0000 0.99100  0.80130  0.37310  Biso   1.000  O
  O9       1.0000 0.04690  0.82350  0.51210  Biso   1.000  O
  O10      1.0000 0.13920  0.75980  0.38900  Biso   1.000  O
  O11      1.0000 0.09810  0.64400  0.36760  Biso   1.000  O
  O12      1.0000 0.98090  0.71890  0.54630  Biso   1.000  O
  Cu3      1.0000 0.49873  0.90556  0.65196  Biso   1.000  Cu
  C7       1.0000 0.50770  0.76370  0.59100  Biso   1.000  C
  C8       1.0000 0.58640  0.78980  0.61470  Biso   1.000  C
  C9       1.0000 0.51290  0.74230  0.49960  Biso   1.000  C
  O13      1.0000 0.45390  0.82220  0.59790  Biso   1.000  O
  O14      1.0000 0.49100  0.69870  0.62690  Biso   1.000  O
  O15      1.0000 0.54690  0.67650  0.48790  Biso   1.000  O
  O16      1.0000 0.63920  0.74020  0.61100  Biso   1.000  O
  O17      1.0000 0.59810  0.85600  0.63240  Biso   1.000  O
  O18      1.0000 0.48090  0.78110  0.45370  Biso   1.000  O
  Cu4      1.0000 0.00127  0.09444  0.15196  Biso   1.000  Cu
  C10      1.0000 0.99230  0.23630  0.09100  Biso   1.000  C
  C11      1.0000 0.91360  0.21020  0.11470  Biso   1.000  C
  C12      1.0000 0.98710  0.25770  0.99960  Biso   1.000  C
  O19      1.0000 0.04610  0.17780  0.09790  Biso   1.000  O
  O20      1.0000 0.00900  0.30130  0.12690  Biso   1.000  O
  O21      1.0000 0.95310  0.32350  0.98790  Biso   1.000  O
  O22      1.0000 0.86080  0.25980  0.11100  Biso   1.000  O
  O23      1.0000 0.90190  0.14400  0.13240  Biso   1.000  O
  O24      1.0000 0.01910  0.21890  0.95370  Biso   1.000  O
  Cu5      1.0000 0.84804  0.50127  0.40556  Biso   1.000  Cu
  C13      1.0000 0.90900  0.49230  0.26370  Biso   1.000  C
  C14      1.0000 0.88530  0.41360  0.28980  Biso   1.000  C
  C15      1.0000 0.00040  0.48710  0.24230  Biso   1.000  C
  O25      1.0000 0.90210  0.54610  0.32220  Biso   1.000  O
  O26      1.0000 0.87310  0.50900  0.19870  Biso   1.000  O
  O27      1.0000 0.01210  0.45310  0.17650  Biso   1.000  O
  O28      1.0000 0.88900  0.36080  0.24020  Biso   1.000  O
  O29      1.0000 0.86760  0.40190  0.35600  Biso   1.000  O
  O30      1.0000 0.04630  0.51910  0.28110  Biso   1.000  O
  Cu6      1.0000 0.34804  0.99873  0.59444  Biso   1.000  Cu
  C16      1.0000 0.40900  0.00770  0.73630  Biso   1.000  C
  C17      1.0000 0.38530  0.08640  0.71020  Biso   1.000  C
  C18      1.0000 0.50040  0.01290  0.75770  Biso   1.000  C
  O31      1.0000 0.40210  0.95390  0.67780  Biso   1.000  O
  O32      1.0000 0.37310  0.99100  0.80130  Biso   1.000  O
  O33      1.0000 0.51210  0.04690  0.82350  Biso   1.000  O
  O34      1.0000 0.38900  0.13920  0.75980  Biso   1.000  O
  O35      1.0000 0.36760  0.09810  0.64400  Biso   1.000  O
  O36      1.0000 0.54630  0.98090  0.71890  Biso   1.000  O
  Cu7      1.0000 0.65196  0.49873  0.90556  Biso   1.000  Cu
  C19      1.0000 0.59100  0.50770  0.76370  Biso   1.000  C
  C20      1.0000 0.61470  0.58640  0.78980  Biso   1.000  C
  C21      1.0000 0.49960  0.51290  0.74230  Biso   1.000  C
  O37      1.0000 0.59790  0.45390  0.82220  Biso   1.000  O
  O38      1.0000 0.62690  0.49100  0.69870  Biso   1.000  O
  O39      1.0000 0.48790  0.54690  0.67650  Biso   1.000  O
  O40      1.0000 0.61100  0.63920  0.74020  Biso   1.000  O
  O41      1.0000 0.63240  0.59810  0.85600  Biso   1.000  O
  O42      1.0000 0.45370  0.48090  0.78110  Biso   1.000  O
  Cu8      1.0000 0.15196  0.00127  0.09444  Biso   1.000  Cu
  C22      1.0000 0.09100  0.99230  0.23630  Biso   1.000  C
  C23      1.0000 0.11470  0.91360  0.21020  Biso   1.000  C
  C24      1.0000 0.99960  0.98710  0.25770  Biso   1.000  C
  O43      1.0000 0.09790  0.04610  0.17780  Biso   1.000  O
  O44      1.0000 0.12690  0.00900  0.30130  Biso   1.000  O
  O45      1.0000 0.98790  0.95310  0.32350  Biso   1.000  O
  O46      1.0000 0.11100  0.86080  0.25980  Biso   1.000  O
  O47      1.0000 0.13240  0.90190  0.14400  Biso   1.000  O
  O48      1.0000 0.95370  0.01910  0.21890  Biso   1.000  O
  Cu9      1.0000 0.40556  0.84804  0.50127  Biso   1.000  Cu
  C25      1.0000 0.26370  0.90900  0.49230  Biso   1.000  C
  C26      1.0000 0.28980  0.88530  0.41360  Biso   1.000  C
  C27      1.0000 0.24230  0.00040  0.48710  Biso   1.000  C
  O49      1.0000 0.32220  0.90210  0.54610  Biso   1.000  O
  O50      1.0000 0.19870  0.87310  0.50900  Biso   1.000  O
  O51      1.0000 0.17650  0.01210  0.45310  Biso   1.000  O
  O52      1.0000 0.24020  0.88900  0.36080  Biso   1.000  O
  O53      1.0000 0.35600  0.86760  0.40190  Biso   1.000  O
  O54      1.0000 0.28110  0.04630  0.51910  Biso   1.000  O
  Cu10     1.0000 0.59444  0.34804  0.99873  Biso   1.000  Cu
  C28      1.0000 0.73630  0.40900  0.00770  Biso   1.000  C
  C29      1.0000 0.71020  0.38530  0.08640  Biso   1.000  C
  C30      1.0000 0.75770  0.50040  0.01290  Biso   1.000  C
  O55      1.0000 0.67780  0.40210  0.95390  Biso   1.000  O
  O56      1.0000 0.80130  0.37310  0.99100  Biso   1.000  O
  O57      1.0000 0.82350  0.51210  0.04690  Biso   1.000  O
  O58      1.0000 0.75980  0.38900  0.13920  Biso   1.000  O
  O59      1.0000 0.64400  0.36760  0.09810  Biso   1.000  O
  O60      1.0000 0.71890  0.54630  0.98090  Biso   1.000  O
  Cu11     1.0000 0.90556  0.65196  0.49873  Biso   1.000  Cu
  C31      1.0000 0.76370  0.59100  0.50770  Biso   1.000  C
  C32      1.0000 0.78980  0.61470  0.58640  Biso   1.000  C
  C33      1.0000 0.74230  0.49960  0.51290  Biso   1.000  C
  O61      1.0000 0.82220  0.59790  0.45390  Biso   1.000  O
  O62      1.0000 0.69870  0.62690  0.49100  Biso   1.000  O
  O63      1.0000 0.67650  0.48790  0.54690  Biso   1.000  O
  O64      1.0000 0.74020  0.61100  0.63920  Biso   1.000  O
  O65      1.0000 0.85600  0.63240  0.59810  Biso   1.000  O
  O66      1.0000 0.78110  0.45370  0.48090  Biso   1.000  O
  Cu12     1.0000 0.09444  0.15196  0.00127  Biso   1.000  Cu
  C34      1.0000 0.23630  0.09100  0.99230  Biso   1.000  C
  C35      1.0000 0.21020  0.11470  0.91360  Biso   1.000  C
  C36      1.0000 0.25770  0.99960  0.98710  Biso   1.000  C
  O67      1.0000 0.17780  0.09790  0.04610  Biso   1.000  O
  O68      1.0000 0.30130  0.12690  0.00900  Biso   1.000  O
  O69      1.0000 0.32350  0.98790  0.95310  Biso   1.000  O
  O70      1.0000 0.25980  0.11100  0.86080  Biso   1.000  O
  O71      1.0000 0.14400  0.13240  0.90190  Biso   1.000  O
  O72      1.0000 0.21890  0.95370  0.01910  Biso   1.000  O
  Pr1      1.0000 0.39864  0.10136  0.89864  Biso   1.000  Pr
  Pr2      1.0000 0.10136  0.89864  0.39864  Biso   1.000  Pr
  Pr3      1.0000 0.60136  0.60136  0.60136  Biso   1.000  Pr
  Pr4      1.0000 0.89864  0.39864  0.10136  Biso   1.000  Pr
