data_image0
_cell_length_a       17.5235
_cell_length_b       17.5235
_cell_length_c       17.5235
_cell_angle_alpha    90
_cell_angle_beta     90
_cell_angle_gamma    90

_symmetry_space_group_name_H-M    "P 1"
_symmetry_int_tables_number       1

loop_
  _symmetry_equiv_pos_as_xyz
  'x, y, z'

loop_
  _atom_site_label
  _atom_site_occupancy
  _atom_site_fract_x
  _atom_site_fract_y
  _atom_site_fract_z
  _atom_site_thermal_displace_type
  _atom_site_B_iso_or_equiv
  _atom_site_type_symbol
  Cu1      1.0000 0.91463  0.35388  0.99524  Biso   1.000  Cu
  C1       1.0000 0.02060  0.24540  0.00030  Biso   1.000  C
  O1       1.0000 0.98920  0.28510  0.95050  Biso   1.000  O
  O2       1.0000 0.05600  0.18460  0.98840  Biso   1.000  O
  C2       1.0000 0.01350  0.27010  0.08390  Biso   1.000  C
  O3       1.0000 0.96130  0.32820  0.09160  Biso   1.000  O
  O4       1.0000 0.99670  0.20570  0.12850  Biso   1.000  O
  C3       1.0000 0.09350  0.29490  0.11140  Biso   1.000  C
  O5       1.0000 0.10230  0.36520  0.12950  Biso   1.000  O
  O6       1.0000 0.14450  0.24580  0.11390  Biso   1.000  O
  Cu2      1.0000 0.58537  0.64612  0.49524  Biso   1.000  Cu
  C4       1.0000 0.47940  0.75460  0.50030  Biso   1.000  C
  O7       1.0000 0.51080  0.71490  0.45050  Biso   1.000  O
  O8       1.0000 0.44400  0.81540  0.48840  Biso   1.000  O
  C5       1.0000 0.48650  0.72990  0.58390  Biso   1.000  C
  O9       1.0000 0.53870  0.67180  0.59160  Biso   1.000  O
  O10      1.0000 0.50330  0.79430  0.62850  Biso   1.000  O
  C6       1.0000 0.40650  0.70510  0.61140  Biso   1.000  C
  O11      1.0000 0.39770  0.63480  0.62950  Biso   1.000  O
  O12      1.0000 0.35550  0.75420  0.61390  Biso   1.000  O
  Cu3      1.0000 0.08537  0.85388  0.50476  Biso   1.000  Cu
  C7       1.0000 0.97940  0.74540  0.49970  Biso   1.000  C
  O13      1.0000 0.01080  0.78510  0.54950  Biso   1.000  O
  O14      1.0000 0.94400  0.68460  0.51160  Biso   1.000  O
  C8       1.0000 0.98650  0.77010  0.41610  Biso   1.000  C
  O15      1.0000 0.03870  0.82820  0.40840  Biso   1.000  O
  O16      1.0000 0.00330  0.70570  0.37150  Biso   1.000  O
  C9       1.0000 0.90650  0.79490  0.38860  Biso   1.000  C
  O17      1.0000 0.89770  0.86520  0.37050  Biso   1.000  O
  O18      1.0000 0.85550  0.74580  0.38610  Biso   1.000  O
  Cu4      1.0000 0.41463  0.14612  0.00476  Biso   1.000  Cu
  C10      1.0000 0.52060  0.25460  0.99970  Biso   1.000  C
  O19      1.0000 0.48920  0.21490  0.04950  Biso   1.000  O
  O20      1.0000 0.55600  0.31540  0.01160  Biso   1.000  O
  C11      1.0000 0.51350  0.22990  0.91610  Biso   1.000  C
  O21      1.0000 0.46130  0.17180  0.90840  Biso   1.000  O
  O22      1.0000 0.49670  0.29430  0.87150  Biso   1.000  O
  C12      1.0000 0.59350  0.20510  0.88860  Biso   1.000  C
  O23      1.0000 0.60230  0.13480  0.87050  Biso   1.000  O
  O24      1.0000 0.64450  0.25420  0.88610  Biso   1.000  O
  Cu5      1.0000 0.99524  0.91463  0.35388  Biso   1.000  Cu
  C13      1.0000 0.00030  0.02060  0.24540  Biso   1.000  C
  O25      1.0000 0.95050  0.98920  0.28510  Biso   1.000  O
  O26      1.0000 0.98840  0.05600  0.18460  Biso   1.000  O
  C14      1.0000 0.08390  0.01350  0.27010  Biso   1.000  C
  O27      1.0000 0.09160  0.96130  0.32820  Biso   1.000  O
  O28      1.0000 0.12850  0.99670  0.20570  Biso   1.000  O
  C15      1.0000 0.11140  0.09350  0.29490  Biso   1.000  C
  O29      1.0000 0.12950  0.10230  0.36520  Biso   1.000  O
  O30      1.0000 0.11390  0.14450  0.24580  Biso   1.000  O
  Cu6      1.0000 0.49524  0.58537  0.64612  Biso   1.000  Cu
  C16      1.0000 0.50030  0.47940  0.75460  Biso   1.000  C
  O31      1.0000 0.45050  0.51080  0.71490  Biso   1.000  O
  O32      1.0000 0.48840  0.44400  0.81540  Biso   1.000  O
  C17      1.0000 0.58390  0.48650  0.72990  Biso   1.000  C
  O33      1.0000 0.59160  0.53870  0.67180  Biso   1.000  O
  O34      1.0000 0.62850  0.50330  0.79430  Biso   1.000  O
  C18      1.0000 0.61140  0.40650  0.70510  Biso   1.000  C
  O35      1.0000 0.62950  0.39770  0.63480  Biso   1.000  O
  O36      1.0000 0.61390  0.35550  0.75420  Biso   1.000  O
  Cu7      1.0000 0.50476  0.08537  0.85388  Biso   1.000  Cu
  C19      1.0000 0.49970  0.97940  0.74540  Biso   1.000  C
  O37      1.0000 0.54950  0.01080  0.78510  Biso   1.000  O
  O38      1.0000 0.51160  0.94400  0.68460  Biso   1.000  O
  C20      1.0000 0.41610  0.98650  0.77010  Biso   1.000  C
  O39      1.0000 0.40840  0.03870  0.82820  Biso   1.000  O
  O40      1.0000 0.37150  0.00330  0.70570  Biso   1.000  O
  C21      1.0000 0.38860  0.90650  0.79490  Biso   1.000  C
  O41      1.0000 0.37050  0.89770  0.86520  Biso   1.000  O
  O42      1.0000 0.38610  0.85550  0.74580  Biso   1.000  O
  Cu8      1.0000 0.00476  0.41463  0.14612  Biso   1.000  Cu
  C22      1.0000 0.99970  0.52060  0.25460  Biso   1.000  C
  O43      1.0000 0.04950  0.48920  0.21490  Biso   1.000  O
  O44      1.0000 0.01160  0.55600  0.31540  Biso   1.000  O
  C23      1.0000 0.91610  0.51350  0.22990  Biso   1.000  C
  O45      1.0000 0.90840  0.46130  0.17180  Biso   1.000  O
  O46      1.0000 0.87150  0.49670  0.29430  Biso   1.000  O
  C24      1.0000 0.88860  0.59350  0.20510  Biso   1.000  C
  O47      1.0000 0.87050  0.60230  0.13480  Biso   1.000  O
  O48      1.0000 0.88610  0.64450  0.25420  Biso   1.000  O
  Cu9      1.0000 0.35388  0.99524  0.91463  Biso   1.000  Cu
  C25      1.0000 0.24540  0.00030  0.02060  Biso   1.000  C
  O49      1.0000 0.28510  0.95050  0.98920  Biso   1.000  O
  O50      1.0000 0.18460  0.98840  0.05600  Biso   1.000  O
  C26      1.0000 0.27010  0.08390  0.01350  Biso   1.000  C
  O51      1.0000 0.32820  0.09160  0.96130  Biso   1.000  O
  O52      1.0000 0.20570  0.12850  0.99670  Biso   1.000  O
  C27      1.0000 0.29490  0.11140  0.09350  Biso   1.000  C
  O53      1.0000 0.36520  0.12950  0.10230  Biso   1.000  O
  O54      1.0000 0.24580  0.11390  0.14450  Biso   1.000  O
  Cu10     1.0000 0.64612  0.49524  0.58537  Biso   1.000  Cu
  C28      1.0000 0.75460  0.50030  0.47940  Biso   1.000  C
  O55      1.0000 0.71490  0.45050  0.51080  Biso   1.000  O
  O56      1.0000 0.81540  0.48840  0.44400  Biso   1.000  O
  C29      1.0000 0.72990  0.58390  0.48650  Biso   1.000  C
  O57      1.0000 0.67180  0.59160  0.53870  Biso   1.000  O
  O58      1.0000 0.79430  0.62850  0.50330  Biso   1.000  O
  C30      1.0000 0.70510  0.61140  0.40650  Biso   1.000  C
  O59      1.0000 0.63480  0.62950  0.39770  Biso   1.000  O
  O60      1.0000 0.75420  0.61390  0.35550  Biso   1.000  O
  Cu11     1.0000 0.85388  0.50476  0.08537  Biso   1.000  Cu
  C31      1.0000 0.74540  0.49970  0.97940  Biso   1.000  C
  O61      1.0000 0.78510  0.54950  0.01080  Biso   1.000  O
  O62      1.0000 0.68460  0.51160  0.94400  Biso   1.000  O
  C32      1.0000 0.77010  0.41610  0.98650  Biso   1.000  C
  O63      1.0000 0.82820  0.40840  0.03870  Biso   1.000  O
  O64      1.0000 0.70570  0.37150  0.00330  Biso   1.000  O
  C33      1.0000 0.79490  0.38860  0.90650  Biso   1.000  C
  O65      1.0000 0.86520  0.37050  0.89770  Biso   1.000  O
  O66      1.0000 0.74580  0.38610  0.85550  Biso   1.000  O
  Cu12     1.0000 0.14612  0.00476  0.41463  Biso   1.000  Cu
  C34      1.0000 0.25460  0.99970  0.52060  Biso   1.000  C
  O67      1.0000 0.21490  0.04950  0.48920  Biso   1.000  O
  O68      1.0000 0.31540  0.01160  0.55600  Biso   1.000  O
  C35      1.0000 0.22990  0.91610  0.51350  Biso   1.000  C
  O69      1.0000 0.17180  0.90840  0.46130  Biso   1.000  O
  O70      1.0000 0.29430  0.87150  0.49670  Biso   1.000  O
  C36      1.0000 0.20510  0.88860  0.59350  Biso   1.000  C
  O71      1.0000 0.13480  0.87050  0.60230  Biso   1.000  O
  O72      1.0000 0.25420  0.88610  0.64450  Biso   1.000  O
  La1      1.0000 0.10547  0.10547  0.10547  Biso   1.000  La
  La2      1.0000 0.39453  0.89453  0.60547  Biso   1.000  La
  La3      1.0000 0.89453  0.60547  0.39453  Biso   1.000  La
  La4      1.0000 0.60547  0.39453  0.89453  Biso   1.000  La
