data_image0
_cell_length_a       17.5154
_cell_length_b       17.5154
_cell_length_c       17.5154
_cell_angle_alpha    90
_cell_angle_beta     90
_cell_angle_gamma    90

_symmetry_space_group_name_H-M    "P 1"
_symmetry_int_tables_number       1

loop_
  _symmetry_equiv_pos_as_xyz
  'x, y, z'

loop_
  _atom_site_label
  _atom_site_occupancy
  _atom_site_fract_x
  _atom_site_fract_y
  _atom_site_fract_z
  _atom_site_thermal_displace_type
  _atom_site_B_iso_or_equiv
  _atom_site_type_symbol
  C1       1.0000 0.74180  0.99710  0.01450  Biso   1.000  C
  C2       1.0000 0.76530  0.91280  0.00890  Biso   1.000  C
  C3       1.0000 0.79090  0.88590  0.09030  Biso   1.000  C
  O1       1.0000 0.85930  0.86720  0.09790  Biso   1.000  O
  O2       1.0000 0.74100  0.88690  0.14030  Biso   1.000  O
  O3       1.0000 0.82180  0.90290  0.95520  Biso   1.000  O
  O4       1.0000 0.69930  0.87070  0.99240  Biso   1.000  O
  O5       1.0000 0.68020  0.00830  0.04960  Biso   1.000  O
  O6       1.0000 0.78010  0.04630  0.98180  Biso   1.000  O
  Cu1      1.0000 0.90772  0.84875  0.00006  Biso   1.000  Cu
  C4       1.0000 0.75820  0.00290  0.51450  Biso   1.000  C
  C5       1.0000 0.73470  0.08720  0.50890  Biso   1.000  C
  C6       1.0000 0.70910  0.11410  0.59030  Biso   1.000  C
  O7       1.0000 0.64070  0.13280  0.59790  Biso   1.000  O
  O8       1.0000 0.75900  0.11310  0.64030  Biso   1.000  O
  O9       1.0000 0.67820  0.09710  0.45520  Biso   1.000  O
  O10      1.0000 0.80070  0.12930  0.49240  Biso   1.000  O
  O11      1.0000 0.81980  0.99170  0.54960  Biso   1.000  O
  O12      1.0000 0.71990  0.95370  0.48180  Biso   1.000  O
  Cu2      1.0000 0.59228  0.15125  0.50006  Biso   1.000  Cu
  C7       1.0000 0.25820  0.49710  0.48550  Biso   1.000  C
  C8       1.0000 0.23470  0.41280  0.49110  Biso   1.000  C
  C9       1.0000 0.20910  0.38590  0.40970  Biso   1.000  C
  O13      1.0000 0.14070  0.36720  0.40210  Biso   1.000  O
  O14      1.0000 0.25900  0.38690  0.35970  Biso   1.000  O
  O15      1.0000 0.17820  0.40290  0.54480  Biso   1.000  O
  O16      1.0000 0.30070  0.37070  0.50760  Biso   1.000  O
  O17      1.0000 0.31980  0.50830  0.45040  Biso   1.000  O
  O18      1.0000 0.21990  0.54630  0.51820  Biso   1.000  O
  Cu3      1.0000 0.09228  0.34875  0.49994  Biso   1.000  Cu
  C10      1.0000 0.24180  0.50290  0.98550  Biso   1.000  C
  C11      1.0000 0.26530  0.58720  0.99110  Biso   1.000  C
  C12      1.0000 0.29090  0.61410  0.90970  Biso   1.000  C
  O19      1.0000 0.35930  0.63280  0.90210  Biso   1.000  O
  O20      1.0000 0.24100  0.61310  0.85970  Biso   1.000  O
  O21      1.0000 0.32180  0.59710  0.04480  Biso   1.000  O
  O22      1.0000 0.19930  0.62930  0.00760  Biso   1.000  O
  O23      1.0000 0.18020  0.49170  0.95040  Biso   1.000  O
  O24      1.0000 0.28010  0.45370  0.01820  Biso   1.000  O
  Cu4      1.0000 0.40772  0.65125  0.99994  Biso   1.000  Cu
  C13      1.0000 0.01450  0.74180  0.99710  Biso   1.000  C
  C14      1.0000 0.00890  0.76530  0.91280  Biso   1.000  C
  C15      1.0000 0.09030  0.79090  0.88590  Biso   1.000  C
  O25      1.0000 0.09790  0.85930  0.86720  Biso   1.000  O
  O26      1.0000 0.14030  0.74100  0.88690  Biso   1.000  O
  O27      1.0000 0.95520  0.82180  0.90290  Biso   1.000  O
  O28      1.0000 0.99240  0.69930  0.87070  Biso   1.000  O
  O29      1.0000 0.04960  0.68020  0.00830  Biso   1.000  O
  O30      1.0000 0.98180  0.78010  0.04630  Biso   1.000  O
  Cu5      1.0000 0.00006  0.90772  0.84875  Biso   1.000  Cu
  C16      1.0000 0.51450  0.75820  0.00290  Biso   1.000  C
  C17      1.0000 0.50890  0.73470  0.08720  Biso   1.000  C
  C18      1.0000 0.59030  0.70910  0.11410  Biso   1.000  C
  O31      1.0000 0.59790  0.64070  0.13280  Biso   1.000  O
  O32      1.0000 0.64030  0.75900  0.11310  Biso   1.000  O
  O33      1.0000 0.45520  0.67820  0.09710  Biso   1.000  O
  O34      1.0000 0.49240  0.80070  0.12930  Biso   1.000  O
  O35      1.0000 0.54960  0.81980  0.99170  Biso   1.000  O
  O36      1.0000 0.48180  0.71990  0.95370  Biso   1.000  O
  Cu6      1.0000 0.50006  0.59228  0.15125  Biso   1.000  Cu
  C19      1.0000 0.48550  0.25820  0.49710  Biso   1.000  C
  C20      1.0000 0.49110  0.23470  0.41280  Biso   1.000  C
  C21      1.0000 0.40970  0.20910  0.38590  Biso   1.000  C
  O37      1.0000 0.40210  0.14070  0.36720  Biso   1.000  O
  O38      1.0000 0.35970  0.25900  0.38690  Biso   1.000  O
  O39      1.0000 0.54480  0.17820  0.40290  Biso   1.000  O
  O40      1.0000 0.50760  0.30070  0.37070  Biso   1.000  O
  O41      1.0000 0.45040  0.31980  0.50830  Biso   1.000  O
  O42      1.0000 0.51820  0.21990  0.54630  Biso   1.000  O
  Cu7      1.0000 0.49994  0.09228  0.34875  Biso   1.000  Cu
  C22      1.0000 0.98550  0.24180  0.50290  Biso   1.000  C
  C23      1.0000 0.99110  0.26530  0.58720  Biso   1.000  C
  C24      1.0000 0.90970  0.29090  0.61410  Biso   1.000  C
  O43      1.0000 0.90210  0.35930  0.63280  Biso   1.000  O
  O44      1.0000 0.85970  0.24100  0.61310  Biso   1.000  O
  O45      1.0000 0.04480  0.32180  0.59710  Biso   1.000  O
  O46      1.0000 0.00760  0.19930  0.62930  Biso   1.000  O
  O47      1.0000 0.95040  0.18020  0.49170  Biso   1.000  O
  O48      1.0000 0.01820  0.28010  0.45370  Biso   1.000  O
  Cu8      1.0000 0.99994  0.40772  0.65125  Biso   1.000  Cu
  C25      1.0000 0.99710  0.01450  0.74180  Biso   1.000  C
  C26      1.0000 0.91280  0.00890  0.76530  Biso   1.000  C
  C27      1.0000 0.88590  0.09030  0.79090  Biso   1.000  C
  O49      1.0000 0.86720  0.09790  0.85930  Biso   1.000  O
  O50      1.0000 0.88690  0.14030  0.74100  Biso   1.000  O
  O51      1.0000 0.90290  0.95520  0.82180  Biso   1.000  O
  O52      1.0000 0.87070  0.99240  0.69930  Biso   1.000  O
  O53      1.0000 0.00830  0.04960  0.68020  Biso   1.000  O
  O54      1.0000 0.04630  0.98180  0.78010  Biso   1.000  O
  Cu9      1.0000 0.84875  0.00006  0.90772  Biso   1.000  Cu
  C28      1.0000 0.00290  0.51450  0.75820  Biso   1.000  C
  C29      1.0000 0.08720  0.50890  0.73470  Biso   1.000  C
  C30      1.0000 0.11410  0.59030  0.70910  Biso   1.000  C
  O55      1.0000 0.13280  0.59790  0.64070  Biso   1.000  O
  O56      1.0000 0.11310  0.64030  0.75900  Biso   1.000  O
  O57      1.0000 0.09710  0.45520  0.67820  Biso   1.000  O
  O58      1.0000 0.12930  0.49240  0.80070  Biso   1.000  O
  O59      1.0000 0.99170  0.54960  0.81980  Biso   1.000  O
  O60      1.0000 0.95370  0.48180  0.71990  Biso   1.000  O
  Cu10     1.0000 0.15125  0.50006  0.59228  Biso   1.000  Cu
  C31      1.0000 0.49710  0.48550  0.25820  Biso   1.000  C
  C32      1.0000 0.41280  0.49110  0.23470  Biso   1.000  C
  C33      1.0000 0.38590  0.40970  0.20910  Biso   1.000  C
  O61      1.0000 0.36720  0.40210  0.14070  Biso   1.000  O
  O62      1.0000 0.38690  0.35970  0.25900  Biso   1.000  O
  O63      1.0000 0.40290  0.54480  0.17820  Biso   1.000  O
  O64      1.0000 0.37070  0.50760  0.30070  Biso   1.000  O
  O65      1.0000 0.50830  0.45040  0.31980  Biso   1.000  O
  O66      1.0000 0.54630  0.51820  0.21990  Biso   1.000  O
  Cu11     1.0000 0.34875  0.49994  0.09228  Biso   1.000  Cu
  C34      1.0000 0.50290  0.98550  0.24180  Biso   1.000  C
  C35      1.0000 0.58720  0.99110  0.26530  Biso   1.000  C
  C36      1.0000 0.61410  0.90970  0.29090  Biso   1.000  C
  O67      1.0000 0.63280  0.90210  0.35930  Biso   1.000  O
  O68      1.0000 0.61310  0.85970  0.24100  Biso   1.000  O
  O69      1.0000 0.59710  0.04480  0.32180  Biso   1.000  O
  O70      1.0000 0.62930  0.00760  0.19930  Biso   1.000  O
  O71      1.0000 0.49170  0.95040  0.18020  Biso   1.000  O
  O72      1.0000 0.45370  0.01820  0.28010  Biso   1.000  O
  Cu12     1.0000 0.65125  0.99994  0.40772  Biso   1.000  Cu
  Nd1      1.0000 0.60324  0.89676  0.10324  Biso   1.000  Nd
  Nd2      1.0000 0.89676  0.10324  0.60324  Biso   1.000  Nd
  Nd3      1.0000 0.39676  0.39676  0.39676  Biso   1.000  Nd
  Nd4      1.0000 0.10324  0.60324  0.89676  Biso   1.000  Nd
