data_image0
_cell_length_a       20.916
_cell_length_b       12.296
_cell_length_c       11.204
_cell_angle_alpha    90
_cell_angle_beta     90
_cell_angle_gamma    90

_symmetry_space_group_name_H-M    "P 1"
_symmetry_int_tables_number       1

loop_
  _symmetry_equiv_pos_as_xyz
  'x, y, z'

loop_
  _atom_site_label
  _atom_site_occupancy
  _atom_site_fract_x
  _atom_site_fract_y
  _atom_site_fract_z
  _atom_site_thermal_displace_type
  _atom_site_B_iso_or_equiv
  _atom_site_type_symbol
  Ag1      1.0000 0.22354  0.63250  0.75593  Biso   1.000  Ag
  C1       1.0000 0.35540  0.75420  0.66720  Biso   1.000  C
  H1       1.0000 0.36750  0.68620  0.62950  Biso   1.000  H
  H2       1.0000 0.36640  0.74950  0.75110  Biso   1.000  H
  C2       1.0000 0.26900  0.77710  0.52620  Biso   1.000  C
  H3       1.0000 0.28080  0.70960  0.48710  Biso   1.000  H
  H4       1.0000 0.22330  0.78710  0.51690  Biso   1.000  H
  C3       1.0000 0.37370  0.85160  0.48300  Biso   1.000  C
  H5       1.0000 0.39680  0.91090  0.44560  Biso   1.000  H
  H6       1.0000 0.38590  0.78460  0.44350  Biso   1.000  H
  C4       1.0000 0.21390  0.52830  0.02870  Biso   1.000  C
  H7       1.0000 0.19090  0.46840  0.99230  Biso   1.000  H
  H8       1.0000 0.25930  0.51500  0.01880  Biso   1.000  H
  C5       1.0000 0.26650  0.87460  0.71250  Biso   1.000  C
  H9       1.0000 0.27590  0.87100  0.79720  Biso   1.000  H
  H10      1.0000 0.22090  0.88600  0.70320  Biso   1.000  H
  C6       1.0000 0.37230  0.94760  0.67050  Biso   1.000  C
  H11      1.0000 0.38360  0.94420  0.75430  Biso   1.000  H
  H12      1.0000 0.39530  0.00800  0.63500  Biso   1.000  H
  N1       1.0000 0.39153  0.84540  0.61130  Biso   1.000  N
  N2       1.0000 0.28490  0.77000  0.65490  Biso   1.000  N
  N3       1.0000 0.19660  0.63050  0.96800  Biso   1.000  N
  N4       1.0000 0.19840  0.46680  0.65870  Biso   1.000  N
  Ag2      1.0000 0.72353  0.13250  0.75593  Biso   1.000  Ag
  C7       1.0000 0.85540  0.25420  0.66720  Biso   1.000  C
  H13      1.0000 0.86750  0.18620  0.62950  Biso   1.000  H
  H14      1.0000 0.86640  0.24950  0.75110  Biso   1.000  H
  C8       1.0000 0.76900  0.27710  0.52620  Biso   1.000  C
  H15      1.0000 0.78080  0.20960  0.48710  Biso   1.000  H
  H16      1.0000 0.72330  0.28710  0.51690  Biso   1.000  H
  C9       1.0000 0.87370  0.35160  0.48300  Biso   1.000  C
  H17      1.0000 0.89680  0.41090  0.44560  Biso   1.000  H
  H18      1.0000 0.88590  0.28460  0.44350  Biso   1.000  H
  C10      1.0000 0.71390  0.02830  0.02870  Biso   1.000  C
  H19      1.0000 0.69090  0.96840  0.99230  Biso   1.000  H
  H20      1.0000 0.75930  0.01500  0.01880  Biso   1.000  H
  C11      1.0000 0.76650  0.37460  0.71250  Biso   1.000  C
  H21      1.0000 0.77590  0.37100  0.79720  Biso   1.000  H
  H22      1.0000 0.72090  0.38600  0.70320  Biso   1.000  H
  C12      1.0000 0.87230  0.44760  0.67050  Biso   1.000  C
  H23      1.0000 0.88360  0.44420  0.75430  Biso   1.000  H
  H24      1.0000 0.89530  0.50800  0.63500  Biso   1.000  H
  N5       1.0000 0.89153  0.34540  0.61130  Biso   1.000  N
  N6       1.0000 0.78490  0.27000  0.65490  Biso   1.000  N
  N7       1.0000 0.69660  0.13050  0.96800  Biso   1.000  N
  N8       1.0000 0.69840  0.96680  0.65870  Biso   1.000  N
  Ag3      1.0000 0.77646  0.36750  0.25593  Biso   1.000  Ag
  C13      1.0000 0.64460  0.24580  0.16720  Biso   1.000  C
  H25      1.0000 0.63250  0.31380  0.12950  Biso   1.000  H
  H26      1.0000 0.63360  0.25050  0.25110  Biso   1.000  H
  C14      1.0000 0.73100  0.22290  0.02620  Biso   1.000  C
  H27      1.0000 0.71920  0.29040  0.98710  Biso   1.000  H
  H28      1.0000 0.77670  0.21290  0.01690  Biso   1.000  H
  C15      1.0000 0.62630  0.14840  0.98300  Biso   1.000  C
  H29      1.0000 0.60320  0.08910  0.94560  Biso   1.000  H
  H30      1.0000 0.61410  0.21540  0.94350  Biso   1.000  H
  C16      1.0000 0.78610  0.47170  0.52870  Biso   1.000  C
  H31      1.0000 0.80910  0.53160  0.49230  Biso   1.000  H
  H32      1.0000 0.74070  0.48500  0.51880  Biso   1.000  H
  C17      1.0000 0.73350  0.12540  0.21250  Biso   1.000  C
  H33      1.0000 0.72410  0.12900  0.29720  Biso   1.000  H
  H34      1.0000 0.77910  0.11400  0.20320  Biso   1.000  H
  C18      1.0000 0.62770  0.05240  0.17050  Biso   1.000  C
  H35      1.0000 0.61640  0.05580  0.25430  Biso   1.000  H
  H36      1.0000 0.60470  0.99200  0.13500  Biso   1.000  H
  N9       1.0000 0.60847  0.15460  0.11130  Biso   1.000  N
  N10      1.0000 0.71510  0.23000  0.15490  Biso   1.000  N
  N11      1.0000 0.80340  0.36950  0.46800  Biso   1.000  N
  N12      1.0000 0.80160  0.53320  0.15870  Biso   1.000  N
  Ag4      1.0000 0.27646  0.86750  0.25593  Biso   1.000  Ag
  C19      1.0000 0.14460  0.74580  0.16720  Biso   1.000  C
  H37      1.0000 0.13250  0.81380  0.12950  Biso   1.000  H
  H38      1.0000 0.13360  0.75050  0.25110  Biso   1.000  H
  C20      1.0000 0.23100  0.72290  0.02620  Biso   1.000  C
  H39      1.0000 0.21920  0.79040  0.98710  Biso   1.000  H
  H40      1.0000 0.27670  0.71290  0.01690  Biso   1.000  H
  C21      1.0000 0.12630  0.64840  0.98300  Biso   1.000  C
  H41      1.0000 0.10320  0.58910  0.94560  Biso   1.000  H
  H42      1.0000 0.11410  0.71540  0.94350  Biso   1.000  H
  C22      1.0000 0.28610  0.97170  0.52870  Biso   1.000  C
  H43      1.0000 0.30910  0.03160  0.49230  Biso   1.000  H
  H44      1.0000 0.24070  0.98500  0.51880  Biso   1.000  H
  C23      1.0000 0.23350  0.62540  0.21250  Biso   1.000  C
  H45      1.0000 0.22410  0.62900  0.29720  Biso   1.000  H
  H46      1.0000 0.27910  0.61400  0.20320  Biso   1.000  H
  C24      1.0000 0.12770  0.55240  0.17050  Biso   1.000  C
  H47      1.0000 0.11640  0.55580  0.25430  Biso   1.000  H
  H48      1.0000 0.10470  0.49200  0.13500  Biso   1.000  H
  N13      1.0000 0.10847  0.65460  0.11130  Biso   1.000  N
  N14      1.0000 0.21510  0.73000  0.15490  Biso   1.000  N
  N15      1.0000 0.30340  0.86950  0.46800  Biso   1.000  N
  N16      1.0000 0.30160  0.03320  0.15870  Biso   1.000  N
  Ag5      1.0000 0.22354  0.36750  0.25593  Biso   1.000  Ag
  C25      1.0000 0.35540  0.24580  0.16720  Biso   1.000  C
  H49      1.0000 0.36750  0.31380  0.12950  Biso   1.000  H
  H50      1.0000 0.36640  0.25050  0.25110  Biso   1.000  H
  C26      1.0000 0.26900  0.22290  0.02620  Biso   1.000  C
  H51      1.0000 0.28080  0.29040  0.98710  Biso   1.000  H
  H52      1.0000 0.22330  0.21290  0.01690  Biso   1.000  H
  C27      1.0000 0.37370  0.14840  0.98300  Biso   1.000  C
  H53      1.0000 0.39680  0.08910  0.94560  Biso   1.000  H
  H54      1.0000 0.38590  0.21540  0.94350  Biso   1.000  H
  C28      1.0000 0.21390  0.47170  0.52870  Biso   1.000  C
  H55      1.0000 0.19090  0.53160  0.49230  Biso   1.000  H
  H56      1.0000 0.25930  0.48500  0.51880  Biso   1.000  H
  C29      1.0000 0.26650  0.12540  0.21250  Biso   1.000  C
  H57      1.0000 0.27590  0.12900  0.29720  Biso   1.000  H
  H58      1.0000 0.22090  0.11400  0.20320  Biso   1.000  H
  C30      1.0000 0.37230  0.05240  0.17050  Biso   1.000  C
  H59      1.0000 0.38360  0.05580  0.25430  Biso   1.000  H
  H60      1.0000 0.39530  0.99200  0.13500  Biso   1.000  H
  N17      1.0000 0.39153  0.15460  0.11130  Biso   1.000  N
  N18      1.0000 0.28490  0.23000  0.15490  Biso   1.000  N
  N19      1.0000 0.19660  0.36950  0.46800  Biso   1.000  N
  N20      1.0000 0.19840  0.53320  0.15870  Biso   1.000  N
  Ag6      1.0000 0.72353  0.86750  0.25593  Biso   1.000  Ag
  C31      1.0000 0.85540  0.74580  0.16720  Biso   1.000  C
  H61      1.0000 0.86750  0.81380  0.12950  Biso   1.000  H
  H62      1.0000 0.86640  0.75050  0.25110  Biso   1.000  H
  C32      1.0000 0.76900  0.72290  0.02620  Biso   1.000  C
  H63      1.0000 0.78080  0.79040  0.98710  Biso   1.000  H
  H64      1.0000 0.72330  0.71290  0.01690  Biso   1.000  H
  C33      1.0000 0.87370  0.64840  0.98300  Biso   1.000  C
  H65      1.0000 0.89680  0.58910  0.94560  Biso   1.000  H
  H66      1.0000 0.88590  0.71540  0.94350  Biso   1.000  H
  C34      1.0000 0.71390  0.97170  0.52870  Biso   1.000  C
  H67      1.0000 0.69090  0.03160  0.49230  Biso   1.000  H
  H68      1.0000 0.75930  0.98500  0.51880  Biso   1.000  H
  C35      1.0000 0.76650  0.62540  0.21250  Biso   1.000  C
  H69      1.0000 0.77590  0.62900  0.29720  Biso   1.000  H
  H70      1.0000 0.72090  0.61400  0.20320  Biso   1.000  H
  C36      1.0000 0.87230  0.55240  0.17050  Biso   1.000  C
  H71      1.0000 0.88360  0.55580  0.25430  Biso   1.000  H
  H72      1.0000 0.89530  0.49200  0.13500  Biso   1.000  H
  N21      1.0000 0.89153  0.65460  0.11130  Biso   1.000  N
  N22      1.0000 0.78490  0.73000  0.15490  Biso   1.000  N
  N23      1.0000 0.69660  0.86950  0.46800  Biso   1.000  N
  N24      1.0000 0.69840  0.03320  0.15870  Biso   1.000  N
  Ag7      1.0000 0.77646  0.63250  0.75593  Biso   1.000  Ag
  C37      1.0000 0.64460  0.75420  0.66720  Biso   1.000  C
  H73      1.0000 0.63250  0.68620  0.62950  Biso   1.000  H
  H74      1.0000 0.63360  0.74950  0.75110  Biso   1.000  H
  C38      1.0000 0.73100  0.77710  0.52620  Biso   1.000  C
  H75      1.0000 0.71920  0.70960  0.48710  Biso   1.000  H
  H76      1.0000 0.77670  0.78710  0.51690  Biso   1.000  H
  C39      1.0000 0.62630  0.85160  0.48300  Biso   1.000  C
  H77      1.0000 0.60320  0.91090  0.44560  Biso   1.000  H
  H78      1.0000 0.61410  0.78460  0.44350  Biso   1.000  H
  C40      1.0000 0.78610  0.52830  0.02870  Biso   1.000  C
  H79      1.0000 0.80910  0.46840  0.99230  Biso   1.000  H
  H80      1.0000 0.74070  0.51500  0.01880  Biso   1.000  H
  C41      1.0000 0.73350  0.87460  0.71250  Biso   1.000  C
  H81      1.0000 0.72410  0.87100  0.79720  Biso   1.000  H
  H82      1.0000 0.77910  0.88600  0.70320  Biso   1.000  H
  C42      1.0000 0.62770  0.94760  0.67050  Biso   1.000  C
  H83      1.0000 0.61640  0.94420  0.75430  Biso   1.000  H
  H84      1.0000 0.60470  0.00800  0.63500  Biso   1.000  H
  N25      1.0000 0.60847  0.84540  0.61130  Biso   1.000  N
  N26      1.0000 0.71510  0.77000  0.65490  Biso   1.000  N
  N27      1.0000 0.80340  0.63050  0.96800  Biso   1.000  N
  N28      1.0000 0.80160  0.46680  0.65870  Biso   1.000  N
  Ag8      1.0000 0.27646  0.13250  0.75593  Biso   1.000  Ag
  C43      1.0000 0.14460  0.25420  0.66720  Biso   1.000  C
  H85      1.0000 0.13250  0.18620  0.62950  Biso   1.000  H
  H86      1.0000 0.13360  0.24950  0.75110  Biso   1.000  H
  C44      1.0000 0.23100  0.27710  0.52620  Biso   1.000  C
  H87      1.0000 0.21920  0.20960  0.48710  Biso   1.000  H
  H88      1.0000 0.27670  0.28710  0.51690  Biso   1.000  H
  C45      1.0000 0.12630  0.35160  0.48300  Biso   1.000  C
  H89      1.0000 0.10320  0.41090  0.44560  Biso   1.000  H
  H90      1.0000 0.11410  0.28460  0.44350  Biso   1.000  H
  C46      1.0000 0.28610  0.02830  0.02870  Biso   1.000  C
  H91      1.0000 0.30910  0.96840  0.99230  Biso   1.000  H
  H92      1.0000 0.24070  0.01500  0.01880  Biso   1.000  H
  C47      1.0000 0.23350  0.37460  0.71250  Biso   1.000  C
  H93      1.0000 0.22410  0.37100  0.79720  Biso   1.000  H
  H94      1.0000 0.27910  0.38600  0.70320  Biso   1.000  H
  C48      1.0000 0.12770  0.44760  0.67050  Biso   1.000  C
  H95      1.0000 0.11640  0.44420  0.75430  Biso   1.000  H
  H96      1.0000 0.10470  0.50800  0.63500  Biso   1.000  H
  N29      1.0000 0.10847  0.34540  0.61130  Biso   1.000  N
  N30      1.0000 0.21510  0.27000  0.65490  Biso   1.000  N
  N31      1.0000 0.30340  0.13050  0.96800  Biso   1.000  N
  N32      1.0000 0.30160  0.96680  0.65870  Biso   1.000  N
  Ag9      1.0000 0.50000  0.83056  0.63046  Biso   1.000  Ag
  Ag10     1.0000 0.00000  0.33056  0.63046  Biso   1.000  Ag
  Ag11     1.0000 0.50000  0.16944  0.13046  Biso   1.000  Ag
  Ag12     1.0000 0.00000  0.66944  0.13046  Biso   1.000  Ag
