data_RULQIY_clean
_audit_creation_date              2014-07-02
_audit_creation_method            'Materials Studio'
_symmetry_space_group_name_H-M    'P1'
_symmetry_Int_Tables_number       1
_symmetry_cell_setting            triclinic
loop_
_symmetry_equiv_pos_as_xyz
  x,y,z
_cell_length_a                    14.3440
_cell_length_b                    14.3440
_cell_length_c                    15.4700
_cell_angle_alpha                 90.0000
_cell_angle_beta                  90.0000
_cell_angle_gamma                 120.0000
loop_
_atom_site_label
_atom_site_type_symbol
_atom_site_fract_x
_atom_site_fract_y
_atom_site_fract_z
_atom_site_U_iso_or_equiv
_atom_site_adp_type
_atom_site_occupancy
Yb1    Yb    0.33333   0.66666   0.75000   0.01267  Uiso   1.00
Yb2    Yb    0.66667   0.33334   0.75000   0.01267  Uiso   1.00
Yb3    Yb    0.66667   0.33334   0.25000   0.01267  Uiso   1.00
Yb4    Yb    0.33333   0.66666   0.25000   0.01267  Uiso   1.00
Cu1    Cu    0.50000   0.50000   0.50000   0.01267  Uiso   1.00
Cu2    Cu    1.00000   0.50000   0.50000   0.01267  Uiso   1.00
Cu3    Cu    0.50000   0.00000   0.50000   0.01267  Uiso   1.00
Cu4    Cu    1.00000   0.50000   0.00000   0.01267  Uiso   1.00
Cu5    Cu    0.50000   0.50000   0.00000   0.01267  Uiso   1.00
Cu6    Cu    0.50000   0.00000   0.00000   0.01267  Uiso   1.00
C1     C     0.26100   0.40900   0.69100   0.01267  Uiso   1.00
C2     C     0.35200   0.48700   0.63700   0.01267  Uiso   1.00
C3     C     0.14800   0.73900   0.69100   0.01267  Uiso   1.00
C4     C     0.13500   0.64800   0.63700   0.01267  Uiso   1.00
C5     C     0.59100   0.85200   0.69100   0.01267  Uiso   1.00
C6     C     0.51300   0.86500   0.63700   0.01267  Uiso   1.00
C7     C     0.73900   0.59100   0.69100   0.01267  Uiso   1.00
C8     C     0.64800   0.51300   0.63700   0.01267  Uiso   1.00
C9     C     0.85200   0.26100   0.69100   0.01267  Uiso   1.00
C10    C     0.86500   0.35200   0.63700   0.01267  Uiso   1.00
C11    C     0.40900   0.14800   0.69100   0.01267  Uiso   1.00
C12    C     0.48700   0.13500   0.63700   0.01267  Uiso   1.00
C13    C     0.85200   0.59100   0.80900   0.01267  Uiso   1.00
C14    C     0.86500   0.51300   0.86300   0.01267  Uiso   1.00
C15    C     0.40900   0.26100   0.80900   0.01267  Uiso   1.00
C16    C     0.48700   0.35200   0.86300   0.01267  Uiso   1.00
C17    C     0.73900   0.14800   0.80900   0.01267  Uiso   1.00
C18    C     0.64800   0.13500   0.86300   0.01267  Uiso   1.00
C19    C     0.14800   0.40900   0.80900   0.01267  Uiso   1.00
C20    C     0.13500   0.48700   0.86300   0.01267  Uiso   1.00
C21    C     0.59100   0.73900   0.80900   0.01267  Uiso   1.00
C22    C     0.51300   0.64800   0.86300   0.01267  Uiso   1.00
C23    C     0.26100   0.85200   0.80900   0.01267  Uiso   1.00
C24    C     0.35200   0.86500   0.86300   0.01267  Uiso   1.00
C25    C     0.73900   0.59100   0.30900   0.01267  Uiso   1.00
C26    C     0.64800   0.51300   0.36300   0.01267  Uiso   1.00
C27    C     0.85200   0.26100   0.30900   0.01267  Uiso   1.00
C28    C     0.86500   0.35200   0.36300   0.01267  Uiso   1.00
C29    C     0.40900   0.14800   0.30900   0.01267  Uiso   1.00
C30    C     0.48700   0.13500   0.36300   0.01267  Uiso   1.00
C31    C     0.26100   0.40900   0.30900   0.01267  Uiso   1.00
C32    C     0.35200   0.48700   0.36300   0.01267  Uiso   1.00
C33    C     0.14800   0.73900   0.30900   0.01267  Uiso   1.00
C34    C     0.13500   0.64800   0.36300   0.01267  Uiso   1.00
C35    C     0.59100   0.85200   0.30900   0.01267  Uiso   1.00
C36    C     0.51300   0.86500   0.36300   0.01267  Uiso   1.00
C37    C     0.14800   0.40900   0.19100   0.01267  Uiso   1.00
C38    C     0.13500   0.48700   0.13700   0.01267  Uiso   1.00
C39    C     0.59100   0.73900   0.19100   0.01267  Uiso   1.00
C40    C     0.51300   0.64800   0.13700   0.01267  Uiso   1.00
C41    C     0.26100   0.85200   0.19100   0.01267  Uiso   1.00
C42    C     0.35200   0.86500   0.13700   0.01267  Uiso   1.00
C43    C     0.85200   0.59100   0.19100   0.01267  Uiso   1.00
C44    C     0.86500   0.51300   0.13700   0.01267  Uiso   1.00
C45    C     0.40900   0.26100   0.19100   0.01267  Uiso   1.00
C46    C     0.48700   0.35200   0.13700   0.01267  Uiso   1.00
C47    C     0.73900   0.14800   0.19100   0.01267  Uiso   1.00
C48    C     0.64800   0.13500   0.13700   0.01267  Uiso   1.00
O1     O     0.38600   0.58230   0.64570   0.01267  Uiso   1.00
O2     O     0.38900   0.44340   0.58900   0.01267  Uiso   1.00
O3     O     0.19630   0.61400   0.64570   0.01267  Uiso   1.00
O4     O     0.05440   0.61100   0.58900   0.01267  Uiso   1.00
O5     O     0.41770   0.80370   0.64570   0.01267  Uiso   1.00
O6     O     0.55660   0.94560   0.58900   0.01267  Uiso   1.00
O7     O     0.61400   0.41770   0.64570   0.01267  Uiso   1.00
O8     O     0.61100   0.55660   0.58900   0.01267  Uiso   1.00
O9     O     0.80370   0.38600   0.64570   0.01267  Uiso   1.00
O10    O     0.94560   0.38900   0.58900   0.01267  Uiso   1.00
O11    O     0.58230   0.19630   0.64570   0.01267  Uiso   1.00
O12    O     0.44340   0.05440   0.58900   0.01267  Uiso   1.00
O13    O     0.80370   0.41770   0.85430   0.01267  Uiso   1.00
O14    O     0.94560   0.55660   0.91100   0.01267  Uiso   1.00
O15    O     0.58230   0.38600   0.85430   0.01267  Uiso   1.00
O16    O     0.44340   0.38900   0.91100   0.01267  Uiso   1.00
O17    O     0.61400   0.19630   0.85430   0.01267  Uiso   1.00
O18    O     0.61100   0.05440   0.91100   0.01267  Uiso   1.00
O19    O     0.19630   0.58230   0.85430   0.01267  Uiso   1.00
O20    O     0.05440   0.44340   0.91100   0.01267  Uiso   1.00
O21    O     0.41770   0.61400   0.85430   0.01267  Uiso   1.00
O22    O     0.55660   0.61100   0.91100   0.01267  Uiso   1.00
O23    O     0.38600   0.80370   0.85430   0.01267  Uiso   1.00
O24    O     0.38900   0.94560   0.91100   0.01267  Uiso   1.00
O25    O     0.61400   0.41770   0.35430   0.01267  Uiso   1.00
O26    O     0.61100   0.55660   0.41100   0.01267  Uiso   1.00
O27    O     0.80370   0.38600   0.35430   0.01267  Uiso   1.00
O28    O     0.94560   0.38900   0.41100   0.01267  Uiso   1.00
O29    O     0.58230   0.19630   0.35430   0.01267  Uiso   1.00
O30    O     0.44340   0.05440   0.41100   0.01267  Uiso   1.00
O31    O     0.38600   0.58230   0.35430   0.01267  Uiso   1.00
O32    O     0.38900   0.44340   0.41100   0.01267  Uiso   1.00
O33    O     0.19630   0.61400   0.35430   0.01267  Uiso   1.00
O34    O     0.05440   0.61100   0.41100   0.01267  Uiso   1.00
O35    O     0.41770   0.80370   0.35430   0.01267  Uiso   1.00
O36    O     0.55660   0.94560   0.41100   0.01267  Uiso   1.00
O37    O     0.19630   0.58230   0.14570   0.01267  Uiso   1.00
O38    O     0.05440   0.44340   0.08900   0.01267  Uiso   1.00
O39    O     0.41770   0.61400   0.14570   0.01267  Uiso   1.00
O40    O     0.55660   0.61100   0.08900   0.01267  Uiso   1.00
O41    O     0.38600   0.80370   0.14570   0.01267  Uiso   1.00
O42    O     0.38900   0.94560   0.08900   0.01267  Uiso   1.00
O43    O     0.80370   0.41770   0.14570   0.01267  Uiso   1.00
O44    O     0.94560   0.55660   0.08900   0.01267  Uiso   1.00
O45    O     0.58230   0.38600   0.14570   0.01267  Uiso   1.00
O46    O     0.44340   0.38900   0.08900   0.01267  Uiso   1.00
O47    O     0.61400   0.19630   0.14570   0.01267  Uiso   1.00
O48    O     0.61100   0.05440   0.08900   0.01267  Uiso   1.00
O49    O     0.23620   0.47240   0.75000   0.01267  Uiso   1.00
O50    O     0.23620   0.76380   0.75000   0.01267  Uiso   1.00
O51    O     0.52760   0.76380   0.75000   0.01267  Uiso   1.00
O52    O     0.76380   0.52760   0.75000   0.01267  Uiso   1.00
O53    O     0.76380   0.23620   0.75000   0.01267  Uiso   1.00
O54    O     0.47240   0.23620   0.75000   0.01267  Uiso   1.00
O55    O     0.76380   0.52760   0.25000   0.01267  Uiso   1.00
O56    O     0.76380   0.23620   0.25000   0.01267  Uiso   1.00
O57    O     0.47240   0.23620   0.25000   0.01267  Uiso   1.00
O58    O     0.23620   0.47240   0.25000   0.01267  Uiso   1.00
O59    O     0.23620   0.76380   0.25000   0.01267  Uiso   1.00
O60    O     0.52760   0.76380   0.25000   0.01267  Uiso   1.00
