data_image0
_cell_length_a       7.31
_cell_length_b       13.144
_cell_length_c       13.8
_cell_angle_alpha    83.46
_cell_angle_beta     82.88
_cell_angle_gamma    84.71

_symmetry_space_group_name_H-M    "P 1"
_symmetry_int_tables_number       1

loop_
  _symmetry_equiv_pos_as_xyz
  'x, y, z'

loop_
  _atom_site_label
  _atom_site_occupancy
  _atom_site_fract_x
  _atom_site_fract_y
  _atom_site_fract_z
  _atom_site_thermal_displace_type
  _atom_site_B_iso_or_equiv
  _atom_site_type_symbol
  N1       1.0000 0.79640  0.78810  0.78960  Biso   1.000  N
  N2       1.0000 0.53540  0.82000  0.60940  Biso   1.000  N
  N3       1.0000 0.90370  0.63320  0.61730  Biso   1.000  N
  N4       1.0000 0.49350  0.62730  0.78070  Biso   1.000  N
  C1       1.0000 0.92600  0.85200  0.75770  Biso   1.000  C
  C2       1.0000 0.99460  0.91360  0.81680  Biso   1.000  C
  C3       1.0000 0.92960  0.91030  0.91530  Biso   1.000  C
  C4       1.0000 0.79610  0.84130  0.94930  Biso   1.000  C
  C5       1.0000 0.73310  0.78370  0.88490  Biso   1.000  C
  C6       1.0000 0.43880  0.79570  0.54080  Biso   1.000  C
  C7       1.0000 0.28820  0.85590  0.50890  Biso   1.000  C
  C8       1.0000 0.23390  0.94900  0.54620  Biso   1.000  C
  C9       1.0000 0.34250  0.97840  0.61270  Biso   1.000  C
  C10      1.0000 0.48790  0.91250  0.64190  Biso   1.000  C
  C11      1.0000 0.06860  0.01400  0.52100  Biso   1.000  C
  C12      1.0000 0.02320  0.56950  0.66770  Biso   1.000  C
  C13      1.0000 0.19180  0.53080  0.62610  Biso   1.000  C
  C14      1.0000 0.24910  0.55710  0.52650  Biso   1.000  C
  C15      1.0000 0.12160  0.61860  0.47470  Biso   1.000  C
  C16      1.0000 0.95360  0.65490  0.52120  Biso   1.000  C
  C17      1.0000 0.42840  0.52310  0.47850  Biso   1.000  C
  C18      1.0000 0.51230  0.52640  0.81090  Biso   1.000  C
  C19      1.0000 0.37790  0.47660  0.87280  Biso   1.000  C
  C20      1.0000 0.21700  0.53130  0.91020  Biso   1.000  C
  C21      1.0000 0.20040  0.63590  0.87960  Biso   1.000  C
  C22      1.0000 0.33820  0.67940  0.81510  Biso   1.000  C
  C23      1.0000 0.07230  0.47810  0.97450  Biso   1.000  C
  C24      1.0000 0.94990  0.95730  0.00920  Biso   1.000  C
  C25      1.0000 0.02830  0.99270  0.95410  Biso   1.000  C
  H1       1.0000 0.97380  0.85550  0.69100  Biso   1.000  H
  H2       1.0000 0.08600  0.95790  0.79000  Biso   1.000  H
  H3       1.0000 0.74930  0.83420  0.01600  Biso   1.000  H
  H4       1.0000 0.64090  0.73900  0.90920  Biso   1.000  H
  H5       1.0000 0.47490  0.73410  0.51240  Biso   1.000  H
  H6       1.0000 0.22250  0.83370  0.46190  Biso   1.000  H
  H7       1.0000 0.31690  0.04260  0.63740  Biso   1.000  H
  H8       1.0000 0.55830  0.93350  0.68750  Biso   1.000  H
  H9       1.0000 0.05980  0.08230  0.53630  Biso   1.000  H
  H10      1.0000 0.98890  0.55070  0.73480  Biso   1.000  H
  H11      1.0000 0.26900  0.48650  0.66460  Biso   1.000  H
  H12      1.0000 0.14990  0.63590  0.40680  Biso   1.000  H
  H13      1.0000 0.87110  0.69650  0.48370  Biso   1.000  H
  H14      1.0000 0.44540  0.53500  0.40960  Biso   1.000  H
  H15      1.0000 0.62150  0.48810  0.78890  Biso   1.000  H
  H16      1.0000 0.39500  0.40540  0.89000  Biso   1.000  H
  H17      1.0000 0.09550  0.67680  0.90290  Biso   1.000  H
  H18      1.0000 0.32160  0.74980  0.79410  Biso   1.000  H
  H19      1.0000 0.08390  0.40590  0.97990  Biso   1.000  H
  Cu1      1.0000 0.68850  0.70770  0.69090  Biso   1.000  Cu
  N5       1.0000 0.20360  0.21190  0.21040  Biso   1.000  N
  N6       1.0000 0.46460  0.18000  0.39060  Biso   1.000  N
  N7       1.0000 0.09630  0.36680  0.38270  Biso   1.000  N
  N8       1.0000 0.50650  0.37270  0.21930  Biso   1.000  N
  C26      1.0000 0.07400  0.14800  0.24230  Biso   1.000  C
  C27      1.0000 0.00540  0.08640  0.18320  Biso   1.000  C
  C28      1.0000 0.07040  0.08970  0.08470  Biso   1.000  C
  C29      1.0000 0.20390  0.15870  0.05070  Biso   1.000  C
  C30      1.0000 0.26690  0.21630  0.11510  Biso   1.000  C
  C31      1.0000 0.56120  0.20430  0.45920  Biso   1.000  C
  C32      1.0000 0.71180  0.14410  0.49110  Biso   1.000  C
  C33      1.0000 0.76610  0.05100  0.45380  Biso   1.000  C
  C34      1.0000 0.65750  0.02160  0.38730  Biso   1.000  C
  C35      1.0000 0.51210  0.08750  0.35810  Biso   1.000  C
  C36      1.0000 0.93140  0.98600  0.47900  Biso   1.000  C
  C37      1.0000 0.97680  0.43050  0.33230  Biso   1.000  C
  C38      1.0000 0.80820  0.46920  0.37390  Biso   1.000  C
  C39      1.0000 0.75090  0.44290  0.47350  Biso   1.000  C
  C40      1.0000 0.87840  0.38140  0.52530  Biso   1.000  C
  C41      1.0000 0.04640  0.34510  0.47880  Biso   1.000  C
  C42      1.0000 0.57160  0.47690  0.52150  Biso   1.000  C
  C43      1.0000 0.48770  0.47360  0.18910  Biso   1.000  C
  C44      1.0000 0.62210  0.52340  0.12720  Biso   1.000  C
  C45      1.0000 0.78300  0.46870  0.08980  Biso   1.000  C
  C46      1.0000 0.79960  0.36410  0.12040  Biso   1.000  C
  C47      1.0000 0.66180  0.32060  0.18490  Biso   1.000  C
  C48      1.0000 0.92770  0.52190  0.02550  Biso   1.000  C
  C49      1.0000 0.05010  0.04270  0.99080  Biso   1.000  C
  C50      1.0000 0.97170  0.00730  0.04590  Biso   1.000  C
  H20      1.0000 0.02620  0.14450  0.30900  Biso   1.000  H
  H21      1.0000 0.91400  0.04210  0.21000  Biso   1.000  H
  H22      1.0000 0.25070  0.16580  0.98400  Biso   1.000  H
  H23      1.0000 0.35910  0.26100  0.09080  Biso   1.000  H
  H24      1.0000 0.52510  0.26590  0.48760  Biso   1.000  H
  H25      1.0000 0.77750  0.16630  0.53810  Biso   1.000  H
  H26      1.0000 0.68310  0.95740  0.36260  Biso   1.000  H
  H27      1.0000 0.44170  0.06650  0.31250  Biso   1.000  H
  H28      1.0000 0.94020  0.91770  0.46370  Biso   1.000  H
  H29      1.0000 0.01110  0.44930  0.26520  Biso   1.000  H
  H30      1.0000 0.73100  0.51350  0.33540  Biso   1.000  H
  H31      1.0000 0.85010  0.36410  0.59320  Biso   1.000  H
  H32      1.0000 0.12890  0.30350  0.51630  Biso   1.000  H
  H33      1.0000 0.55460  0.46500  0.59040  Biso   1.000  H
  H34      1.0000 0.37850  0.51190  0.21110  Biso   1.000  H
  H35      1.0000 0.60500  0.59460  0.11000  Biso   1.000  H
  H36      1.0000 0.90450  0.32320  0.09710  Biso   1.000  H
  H37      1.0000 0.67840  0.25020  0.20590  Biso   1.000  H
  H38      1.0000 0.91610  0.59410  0.02010  Biso   1.000  H
  Cu2      1.0000 0.31150  0.29230  0.30910  Biso   1.000  Cu
