data_image0
_cell_length_a       6.5576
_cell_length_b       9.715
_cell_length_c       8.6358
_cell_angle_alpha    90
_cell_angle_beta     90.579
_cell_angle_gamma    90

_symmetry_space_group_name_H-M    "P 1"
_symmetry_int_tables_number       1

loop_
  _symmetry_equiv_pos_as_xyz
  'x, y, z'

loop_
  _atom_site_label
  _atom_site_occupancy
  _atom_site_fract_x
  _atom_site_fract_y
  _atom_site_fract_z
  _atom_site_thermal_displace_type
  _atom_site_B_iso_or_equiv
  _atom_site_type_symbol
  N1       1.0000 0.14150  0.15570  0.86260  Biso   1.000  N
  N2       1.0000 0.41570  0.25500  0.77670  Biso   1.000  N
  N3       1.0000 0.34800  0.15570  0.86100  Biso   1.000  N
  N4       1.0000 0.25300  0.32410  0.71710  Biso   1.000  N
  C1       1.0000 0.08560  0.26120  0.77280  Biso   1.000  C
  N5       1.0000 0.89050  0.29520  0.73760  Biso   1.000  N
  H1       1.0000 0.79170  0.24720  0.77400  Biso   1.000  H
  H2       1.0000 0.86530  0.36470  0.67880  Biso   1.000  H
  N6       1.0000 0.85850  0.15570  0.13740  Biso   1.000  N
  N7       1.0000 0.58430  0.25500  0.22330  Biso   1.000  N
  N8       1.0000 0.65200  0.15570  0.13900  Biso   1.000  N
  N9       1.0000 0.74700  0.32410  0.28290  Biso   1.000  N
  C2       1.0000 0.91440  0.26120  0.22720  Biso   1.000  C
  N10      1.0000 0.10950  0.29520  0.26240  Biso   1.000  N
  H3       1.0000 0.20830  0.24720  0.22600  Biso   1.000  H
  H4       1.0000 0.13470  0.36470  0.32120  Biso   1.000  H
  N11      1.0000 0.85850  0.84430  0.13740  Biso   1.000  N
  N12      1.0000 0.58430  0.74500  0.22330  Biso   1.000  N
  N13      1.0000 0.65200  0.84430  0.13900  Biso   1.000  N
  N14      1.0000 0.74700  0.67590  0.28290  Biso   1.000  N
  C3       1.0000 0.91440  0.73880  0.22720  Biso   1.000  C
  N15      1.0000 0.10950  0.70480  0.26240  Biso   1.000  N
  H5       1.0000 0.20830  0.75280  0.22600  Biso   1.000  H
  H6       1.0000 0.13470  0.63530  0.32120  Biso   1.000  H
  N16      1.0000 0.14150  0.84430  0.86260  Biso   1.000  N
  N17      1.0000 0.41570  0.74500  0.77670  Biso   1.000  N
  N18      1.0000 0.34800  0.84430  0.86100  Biso   1.000  N
  N19      1.0000 0.25300  0.67590  0.71710  Biso   1.000  N
  C4       1.0000 0.08560  0.73880  0.77280  Biso   1.000  C
  N20      1.0000 0.89050  0.70480  0.73760  Biso   1.000  N
  H7       1.0000 0.79170  0.75280  0.77400  Biso   1.000  H
  H8       1.0000 0.86530  0.63530  0.67880  Biso   1.000  H
  Zn1      1.0000 0.29709  0.50000  0.59708  Biso   1.000  Zn
  F1       1.0000 0.38520  0.50000  0.38220  Biso   1.000  F
  Zn2      1.0000 0.70291  0.50000  0.40292  Biso   1.000  Zn
  F2       1.0000 0.61480  0.50000  0.61780  Biso   1.000  F
  Zn3      1.0000 0.00000  0.00000  0.00000  Biso   1.000  Zn
  Zn4      1.0000 0.50000  0.00000  0.00000  Biso   1.000  Zn
  F3       1.0000 0.25790  0.00000  0.13830  Biso   1.000  F
  F4       1.0000 0.74210  0.00000  0.86170  Biso   1.000  F
