data_image0
_cell_length_a       5.954
_cell_length_b       13.521
_cell_length_c       13.942
_cell_angle_alpha    95.02
_cell_angle_beta     94.33
_cell_angle_gamma    99.72

_symmetry_space_group_name_H-M    "P 1"
_symmetry_int_tables_number       1

loop_
  _symmetry_equiv_pos_as_xyz
  'x, y, z'

loop_
  _atom_site_label
  _atom_site_occupancy
  _atom_site_fract_x
  _atom_site_fract_y
  _atom_site_fract_z
  _atom_site_thermal_displace_type
  _atom_site_B_iso_or_equiv
  _atom_site_type_symbol
  Zn1      1.0000 0.27390  0.05515  0.50156  Biso   1.000  Zn
  O1       1.0000 0.24380  0.94930  0.39390  Biso   1.000  O
  C1       1.0000 0.29410  0.86250  0.39770  Biso   1.000  C
  O2       1.0000 0.46080  0.84430  0.45200  Biso   1.000  O
  C2       1.0000 0.14980  0.77540  0.33640  Biso   1.000  C
  C3       1.0000 0.93940  0.78470  0.29250  Biso   1.000  C
  H1       1.0000 0.88830  0.84760  0.29920  Biso   1.000  H
  C4       1.0000 0.80250  0.70220  0.23870  Biso   1.000  C
  H2       1.0000 0.65640  0.70870  0.21030  Biso   1.000  H
  C5       1.0000 0.87580  0.61060  0.22600  Biso   1.000  C
  C6       1.0000 0.09010  0.60240  0.26730  Biso   1.000  C
  H3       1.0000 0.14470  0.54060  0.25730  Biso   1.000  H
  C7       1.0000 0.22600  0.68410  0.32330  Biso   1.000  C
  H4       1.0000 0.37120  0.67740  0.35260  Biso   1.000  H
  C8       1.0000 0.72260  0.51800  0.17200  Biso   1.000  C
  H5       1.0000 0.65840  0.47300  0.21930  Biso   1.000  H
  H6       1.0000 0.59350  0.53920  0.13500  Biso   1.000  H
  N1       1.0000 0.84490  0.46290  0.10650  Biso   1.000  N
  C9       1.0000 0.72150  0.35770  0.08280  Biso   1.000  C
  H7       1.0000 0.77170  0.32880  0.02200  Biso   1.000  H
  H8       1.0000 0.55530  0.35780  0.07220  Biso   1.000  H
  C10      1.0000 0.76450  0.29270  0.16200  Biso   1.000  C
  C11      1.0000 0.98410  0.30340  0.21100  Biso   1.000  C
  H9       1.0000 0.10530  0.35170  0.19340  Biso   1.000  H
  C12      1.0000 0.02510  0.24580  0.28290  Biso   1.000  C
  H10      1.0000 0.17310  0.25620  0.31670  Biso   1.000  H
  C13      1.0000 0.85210  0.17050  0.30830  Biso   1.000  C
  C14      1.0000 0.63570  0.15970  0.26100  Biso   1.000  C
  H11      1.0000 0.51610  0.10990  0.27750  Biso   1.000  H
  C15      1.0000 0.59210  0.22040  0.19010  Biso   1.000  C
  H12      1.0000 0.44130  0.21290  0.15950  Biso   1.000  H
  C16      1.0000 0.90090  0.10680  0.38490  Biso   1.000  C
  O3       1.0000 0.07710  0.13750  0.44360  Biso   1.000  O
  O4       1.0000 0.76810  0.02180  0.38680  Biso   1.000  O
  C17      1.0000 0.89590  0.51520  0.02180  Biso   1.000  C
  H13      1.0000 0.92510  0.58890  0.04030  Biso   1.000  H
  H14      1.0000 0.76220  0.49890  0.97290  Biso   1.000  H
  Zn2      1.0000 0.72610  0.94485  0.49844  Biso   1.000  Zn
  O5       1.0000 0.75620  0.05070  0.60610  Biso   1.000  O
  C18      1.0000 0.70590  0.13750  0.60230  Biso   1.000  C
  O6       1.0000 0.53920  0.15570  0.54800  Biso   1.000  O
  C19      1.0000 0.85020  0.22460  0.66360  Biso   1.000  C
  C20      1.0000 0.06060  0.21530  0.70750  Biso   1.000  C
  H15      1.0000 0.11170  0.15240  0.70080  Biso   1.000  H
  C21      1.0000 0.19750  0.29780  0.76130  Biso   1.000  C
  H16      1.0000 0.34360  0.29130  0.78970  Biso   1.000  H
  C22      1.0000 0.12420  0.38940  0.77400  Biso   1.000  C
  C23      1.0000 0.90990  0.39760  0.73270  Biso   1.000  C
  H17      1.0000 0.85530  0.45940  0.74270  Biso   1.000  H
  C24      1.0000 0.77400  0.31590  0.67670  Biso   1.000  C
  H18      1.0000 0.62880  0.32260  0.64740  Biso   1.000  H
  C25      1.0000 0.27740  0.48200  0.82800  Biso   1.000  C
  H19      1.0000 0.34160  0.52700  0.78070  Biso   1.000  H
  H20      1.0000 0.40650  0.46080  0.86500  Biso   1.000  H
  N2       1.0000 0.15510  0.53710  0.89350  Biso   1.000  N
  C26      1.0000 0.27850  0.64230  0.91720  Biso   1.000  C
  H21      1.0000 0.22830  0.67120  0.97800  Biso   1.000  H
  H22      1.0000 0.44470  0.64220  0.92780  Biso   1.000  H
  C27      1.0000 0.23550  0.70730  0.83800  Biso   1.000  C
  C28      1.0000 0.01590  0.69660  0.78900  Biso   1.000  C
  H23      1.0000 0.89470  0.64830  0.80660  Biso   1.000  H
  C29      1.0000 0.97490  0.75420  0.71710  Biso   1.000  C
  H24      1.0000 0.82690  0.74380  0.68330  Biso   1.000  H
  C30      1.0000 0.14790  0.82950  0.69170  Biso   1.000  C
  C31      1.0000 0.36430  0.84030  0.73900  Biso   1.000  C
  H25      1.0000 0.48390  0.89010  0.72250  Biso   1.000  H
  C32      1.0000 0.40790  0.77960  0.80990  Biso   1.000  C
  H26      1.0000 0.55870  0.78710  0.84050  Biso   1.000  H
  C33      1.0000 0.09910  0.89320  0.61510  Biso   1.000  C
  O7       1.0000 0.92290  0.86250  0.55640  Biso   1.000  O
  O8       1.0000 0.23190  0.97820  0.61320  Biso   1.000  O
  C34      1.0000 0.10410  0.48480  0.97820  Biso   1.000  C
  H27      1.0000 0.07490  0.41110  0.95970  Biso   1.000  H
  H28      1.0000 0.23780  0.50110  0.02710  Biso   1.000  H
