data_image0
_cell_length_a       7.6681
_cell_length_b       31.909
_cell_length_c       15.4268
_cell_angle_alpha    90
_cell_angle_beta     90
_cell_angle_gamma    90

_symmetry_space_group_name_H-M    "P 1"
_symmetry_int_tables_number       1

loop_
  _symmetry_equiv_pos_as_xyz
  'x, y, z'

loop_
  _atom_site_label
  _atom_site_occupancy
  _atom_site_fract_x
  _atom_site_fract_y
  _atom_site_fract_z
  _atom_site_thermal_displace_type
  _atom_site_B_iso_or_equiv
  _atom_site_type_symbol
  Cu1      1.0000 0.08571  0.06192  0.32611  Biso   1.000  Cu
  Cu2      1.0000 0.07830  0.03422  0.02995  Biso   1.000  Cu
  Cu3      1.0000 0.24911  0.22911  0.87333  Biso   1.000  Cu
  I1       1.0000 0.26207  0.02377  0.45058  Biso   1.000  I
  I2       1.0000 0.25545  0.04787  0.17888  Biso   1.000  I
  C1       1.0000 0.48340  0.16950  0.92960  Biso   1.000  C
  C2       1.0000 0.30550  0.14860  0.93550  Biso   1.000  C
  C3       1.0000 0.28030  0.10810  0.96490  Biso   1.000  C
  H1       1.0000 0.37580  0.09240  0.98300  Biso   1.000  H
  C4       1.0000 0.98790  0.11420  0.93920  Biso   1.000  C
  H2       1.0000 0.87630  0.10280  0.93880  Biso   1.000  H
  C5       1.0000 0.01250  0.15500  0.91020  Biso   1.000  C
  H3       1.0000 0.91700  0.17060  0.89160  Biso   1.000  H
  C6       1.0000 0.48670  0.20570  0.36090  Biso   1.000  C
  C7       1.0000 0.31070  0.18510  0.35990  Biso   1.000  C
  C8       1.0000 0.28620  0.14200  0.35030  Biso   1.000  C
  H4       1.0000 0.38250  0.12440  0.34540  Biso   1.000  H
  C9       1.0000 0.99090  0.15240  0.35810  Biso   1.000  C
  H5       1.0000 0.87810  0.14160  0.35840  Biso   1.000  H
  C10      1.0000 0.01390  0.19504  0.36790  Biso   1.000  C
  H6       1.0000 0.91730  0.21240  0.37440  Biso   1.000  H
  N1       1.0000 0.12090  0.09112  0.96770  Biso   1.000  N
  N2       1.0000 0.17120  0.17226  0.90880  Biso   1.000  N
  N3       1.0000 0.12610  0.12576  0.34810  Biso   1.000  N
  N4       1.0000 0.17430  0.21159  0.36810  Biso   1.000  N
  O1       1.0000 0.47890  0.20715  0.89930  Biso   1.000  O
  O2       1.0000 0.61220  0.15115  0.95460  Biso   1.000  O
  O3       1.0000 0.61890  0.18490  0.35550  Biso   1.000  O
  O4       1.0000 0.48340  0.24600  0.36590  Biso   1.000  O
  Cu4      1.0000 0.41429  0.43808  0.82611  Biso   1.000  Cu
  Cu5      1.0000 0.42170  0.46578  0.52995  Biso   1.000  Cu
  Cu6      1.0000 0.25089  0.27089  0.37333  Biso   1.000  Cu
  I3       1.0000 0.23793  0.47623  0.95058  Biso   1.000  I
  I4       1.0000 0.24455  0.45213  0.67888  Biso   1.000  I
  C11      1.0000 0.01660  0.33050  0.42960  Biso   1.000  C
  C12      1.0000 0.19450  0.35140  0.43550  Biso   1.000  C
  C13      1.0000 0.21970  0.39190  0.46490  Biso   1.000  C
  H7       1.0000 0.12420  0.40760  0.48300  Biso   1.000  H
  C14      1.0000 0.51210  0.38580  0.43920  Biso   1.000  C
  H8       1.0000 0.62370  0.39720  0.43880  Biso   1.000  H
  C15      1.0000 0.48750  0.34500  0.41020  Biso   1.000  C
  H9       1.0000 0.58300  0.32940  0.39160  Biso   1.000  H
  C16      1.0000 0.01330  0.29430  0.86090  Biso   1.000  C
  C17      1.0000 0.18930  0.31490  0.85990  Biso   1.000  C
  C18      1.0000 0.21380  0.35800  0.85030  Biso   1.000  C
  H10      1.0000 0.11750  0.37560  0.84540  Biso   1.000  H
  C19      1.0000 0.50910  0.34760  0.85810  Biso   1.000  C
  H11      1.0000 0.62190  0.35840  0.85840  Biso   1.000  H
  C20      1.0000 0.48610  0.30496  0.86790  Biso   1.000  C
  H12      1.0000 0.58270  0.28760  0.87440  Biso   1.000  H
  N5       1.0000 0.37910  0.40888  0.46770  Biso   1.000  N
  N6       1.0000 0.32880  0.32774  0.40880  Biso   1.000  N
  N7       1.0000 0.37390  0.37424  0.84810  Biso   1.000  N
  N8       1.0000 0.32570  0.28841  0.86810  Biso   1.000  N
  O5       1.0000 0.02110  0.29285  0.39930  Biso   1.000  O
  O6       1.0000 0.88780  0.34885  0.45460  Biso   1.000  O
  O7       1.0000 0.88110  0.31510  0.85550  Biso   1.000  O
  O8       1.0000 0.01660  0.25400  0.86590  Biso   1.000  O
  Cu7      1.0000 0.91429  0.06192  0.17389  Biso   1.000  Cu
  Cu8      1.0000 0.92170  0.03422  0.47005  Biso   1.000  Cu
  Cu9      1.0000 0.75089  0.22911  0.62667  Biso   1.000  Cu
  I5       1.0000 0.73793  0.02377  0.04942  Biso   1.000  I
  I6       1.0000 0.74455  0.04787  0.32112  Biso   1.000  I
  C21      1.0000 0.51660  0.16950  0.57040  Biso   1.000  C
  C22      1.0000 0.69450  0.14860  0.56450  Biso   1.000  C
  C23      1.0000 0.71970  0.10810  0.53510  Biso   1.000  C
  H13      1.0000 0.62420  0.09240  0.51700  Biso   1.000  H
  C24      1.0000 0.01210  0.11420  0.56080  Biso   1.000  C
  H14      1.0000 0.12370  0.10280  0.56120  Biso   1.000  H
  C25      1.0000 0.98750  0.15500  0.58980  Biso   1.000  C
  H15      1.0000 0.08300  0.17060  0.60840  Biso   1.000  H
  C26      1.0000 0.51330  0.20570  0.13910  Biso   1.000  C
  C27      1.0000 0.68930  0.18510  0.14010  Biso   1.000  C
  C28      1.0000 0.71380  0.14200  0.14970  Biso   1.000  C
  H16      1.0000 0.61750  0.12440  0.15460  Biso   1.000  H
  C29      1.0000 0.00910  0.15240  0.14190  Biso   1.000  C
  H17      1.0000 0.12190  0.14160  0.14160  Biso   1.000  H
  C30      1.0000 0.98610  0.19504  0.13210  Biso   1.000  C
  H18      1.0000 0.08270  0.21240  0.12560  Biso   1.000  H
  N9       1.0000 0.87910  0.09112  0.53230  Biso   1.000  N
  N10      1.0000 0.82880  0.17226  0.59120  Biso   1.000  N
  N11      1.0000 0.87390  0.12576  0.15190  Biso   1.000  N
  N12      1.0000 0.82570  0.21159  0.13190  Biso   1.000  N
  O9       1.0000 0.52110  0.20715  0.60070  Biso   1.000  O
  O10      1.0000 0.38780  0.15115  0.54540  Biso   1.000  O
  O11      1.0000 0.38110  0.18490  0.14450  Biso   1.000  O
  O12      1.0000 0.51660  0.24600  0.13410  Biso   1.000  O
  Cu10     1.0000 0.58571  0.43808  0.67389  Biso   1.000  Cu
  Cu11     1.0000 0.57830  0.46578  0.97005  Biso   1.000  Cu
  Cu12     1.0000 0.74911  0.27089  0.12667  Biso   1.000  Cu
  I7       1.0000 0.76207  0.47623  0.54942  Biso   1.000  I
  I8       1.0000 0.75545  0.45213  0.82112  Biso   1.000  I
  C31      1.0000 0.98340  0.33050  0.07040  Biso   1.000  C
  C32      1.0000 0.80550  0.35140  0.06450  Biso   1.000  C
  C33      1.0000 0.78030  0.39190  0.03510  Biso   1.000  C
  H19      1.0000 0.87580  0.40760  0.01700  Biso   1.000  H
  C34      1.0000 0.48790  0.38580  0.06080  Biso   1.000  C
  H20      1.0000 0.37630  0.39720  0.06120  Biso   1.000  H
  C35      1.0000 0.51250  0.34500  0.08980  Biso   1.000  C
  H21      1.0000 0.41700  0.32940  0.10840  Biso   1.000  H
  C36      1.0000 0.98670  0.29430  0.63910  Biso   1.000  C
  C37      1.0000 0.81070  0.31490  0.64010  Biso   1.000  C
  C38      1.0000 0.78620  0.35800  0.64970  Biso   1.000  C
  H22      1.0000 0.88250  0.37560  0.65460  Biso   1.000  H
  C39      1.0000 0.49090  0.34760  0.64190  Biso   1.000  C
  H23      1.0000 0.37810  0.35840  0.64160  Biso   1.000  H
  C40      1.0000 0.51390  0.30496  0.63210  Biso   1.000  C
  H24      1.0000 0.41730  0.28760  0.62560  Biso   1.000  H
  N13      1.0000 0.62090  0.40888  0.03230  Biso   1.000  N
  N14      1.0000 0.67120  0.32774  0.09120  Biso   1.000  N
  N15      1.0000 0.62610  0.37424  0.65190  Biso   1.000  N
  N16      1.0000 0.67430  0.28841  0.63190  Biso   1.000  N
  O13      1.0000 0.97890  0.29285  0.10070  Biso   1.000  O
  O14      1.0000 0.11220  0.34885  0.04540  Biso   1.000  O
  O15      1.0000 0.11890  0.31510  0.64450  Biso   1.000  O
  O16      1.0000 0.98340  0.25400  0.63410  Biso   1.000  O
  Cu13     1.0000 0.91429  0.93808  0.67389  Biso   1.000  Cu
  Cu14     1.0000 0.92170  0.96578  0.97005  Biso   1.000  Cu
  Cu15     1.0000 0.75089  0.77089  0.12667  Biso   1.000  Cu
  I9       1.0000 0.73793  0.97623  0.54942  Biso   1.000  I
  I10      1.0000 0.74455  0.95213  0.82112  Biso   1.000  I
  C41      1.0000 0.51660  0.83050  0.07040  Biso   1.000  C
  C42      1.0000 0.69450  0.85140  0.06450  Biso   1.000  C
  C43      1.0000 0.71970  0.89190  0.03510  Biso   1.000  C
  H25      1.0000 0.62420  0.90760  0.01700  Biso   1.000  H
  C44      1.0000 0.01210  0.88580  0.06080  Biso   1.000  C
  H26      1.0000 0.12370  0.89720  0.06120  Biso   1.000  H
  C45      1.0000 0.98750  0.84500  0.08980  Biso   1.000  C
  H27      1.0000 0.08300  0.82940  0.10840  Biso   1.000  H
  C46      1.0000 0.51330  0.79430  0.63910  Biso   1.000  C
  C47      1.0000 0.68930  0.81490  0.64010  Biso   1.000  C
  C48      1.0000 0.71380  0.85800  0.64970  Biso   1.000  C
  H28      1.0000 0.61750  0.87560  0.65460  Biso   1.000  H
  C49      1.0000 0.00910  0.84760  0.64190  Biso   1.000  C
  H29      1.0000 0.12190  0.85840  0.64160  Biso   1.000  H
  C50      1.0000 0.98610  0.80496  0.63210  Biso   1.000  C
  H30      1.0000 0.08270  0.78760  0.62560  Biso   1.000  H
  N17      1.0000 0.87910  0.90888  0.03230  Biso   1.000  N
  N18      1.0000 0.82880  0.82774  0.09120  Biso   1.000  N
  N19      1.0000 0.87390  0.87424  0.65190  Biso   1.000  N
  N20      1.0000 0.82570  0.78841  0.63190  Biso   1.000  N
  O17      1.0000 0.52110  0.79285  0.10070  Biso   1.000  O
  O18      1.0000 0.38780  0.84885  0.04540  Biso   1.000  O
  O19      1.0000 0.38110  0.81510  0.64450  Biso   1.000  O
  O20      1.0000 0.51660  0.75400  0.63410  Biso   1.000  O
  Cu16     1.0000 0.58571  0.56192  0.17389  Biso   1.000  Cu
  Cu17     1.0000 0.57830  0.53422  0.47005  Biso   1.000  Cu
  Cu18     1.0000 0.74911  0.72911  0.62667  Biso   1.000  Cu
  I11      1.0000 0.76207  0.52377  0.04942  Biso   1.000  I
  I12      1.0000 0.75545  0.54787  0.32112  Biso   1.000  I
  C51      1.0000 0.98340  0.66950  0.57040  Biso   1.000  C
  C52      1.0000 0.80550  0.64860  0.56450  Biso   1.000  C
  C53      1.0000 0.78030  0.60810  0.53510  Biso   1.000  C
  H31      1.0000 0.87580  0.59240  0.51700  Biso   1.000  H
  C54      1.0000 0.48790  0.61420  0.56080  Biso   1.000  C
  H32      1.0000 0.37630  0.60280  0.56120  Biso   1.000  H
  C55      1.0000 0.51250  0.65500  0.58980  Biso   1.000  C
  H33      1.0000 0.41700  0.67060  0.60840  Biso   1.000  H
  C56      1.0000 0.98670  0.70570  0.13910  Biso   1.000  C
  C57      1.0000 0.81070  0.68510  0.14010  Biso   1.000  C
  C58      1.0000 0.78620  0.64200  0.14970  Biso   1.000  C
  H34      1.0000 0.88250  0.62440  0.15460  Biso   1.000  H
  C59      1.0000 0.49090  0.65240  0.14190  Biso   1.000  C
  H35      1.0000 0.37810  0.64160  0.14160  Biso   1.000  H
  C60      1.0000 0.51390  0.69504  0.13210  Biso   1.000  C
  H36      1.0000 0.41730  0.71240  0.12560  Biso   1.000  H
  N21      1.0000 0.62090  0.59112  0.53230  Biso   1.000  N
  N22      1.0000 0.67120  0.67226  0.59120  Biso   1.000  N
  N23      1.0000 0.62610  0.62576  0.15190  Biso   1.000  N
  N24      1.0000 0.67430  0.71159  0.13190  Biso   1.000  N
  O21      1.0000 0.97890  0.70715  0.60070  Biso   1.000  O
  O22      1.0000 0.11220  0.65115  0.54540  Biso   1.000  O
  O23      1.0000 0.11890  0.68490  0.14450  Biso   1.000  O
  O24      1.0000 0.98340  0.74600  0.13410  Biso   1.000  O
  Cu19     1.0000 0.08571  0.93808  0.82611  Biso   1.000  Cu
  Cu20     1.0000 0.07830  0.96578  0.52995  Biso   1.000  Cu
  Cu21     1.0000 0.24911  0.77089  0.37333  Biso   1.000  Cu
  I13      1.0000 0.26207  0.97623  0.95058  Biso   1.000  I
  I14      1.0000 0.25545  0.95213  0.67888  Biso   1.000  I
  C61      1.0000 0.48340  0.83050  0.42960  Biso   1.000  C
  C62      1.0000 0.30550  0.85140  0.43550  Biso   1.000  C
  C63      1.0000 0.28030  0.89190  0.46490  Biso   1.000  C
  H37      1.0000 0.37580  0.90760  0.48300  Biso   1.000  H
  C64      1.0000 0.98790  0.88580  0.43920  Biso   1.000  C
  H38      1.0000 0.87630  0.89720  0.43880  Biso   1.000  H
  C65      1.0000 0.01250  0.84500  0.41020  Biso   1.000  C
  H39      1.0000 0.91700  0.82940  0.39160  Biso   1.000  H
  C66      1.0000 0.48670  0.79430  0.86090  Biso   1.000  C
  C67      1.0000 0.31070  0.81490  0.85990  Biso   1.000  C
  C68      1.0000 0.28620  0.85800  0.85030  Biso   1.000  C
  H40      1.0000 0.38250  0.87560  0.84540  Biso   1.000  H
  C69      1.0000 0.99090  0.84760  0.85810  Biso   1.000  C
  H41      1.0000 0.87810  0.85840  0.85840  Biso   1.000  H
  C70      1.0000 0.01390  0.80496  0.86790  Biso   1.000  C
  H42      1.0000 0.91730  0.78760  0.87440  Biso   1.000  H
  N25      1.0000 0.12090  0.90888  0.46770  Biso   1.000  N
  N26      1.0000 0.17120  0.82774  0.40880  Biso   1.000  N
  N27      1.0000 0.12610  0.87424  0.84810  Biso   1.000  N
  N28      1.0000 0.17430  0.78841  0.86810  Biso   1.000  N
  O25      1.0000 0.47890  0.79285  0.39930  Biso   1.000  O
  O26      1.0000 0.61220  0.84885  0.45460  Biso   1.000  O
  O27      1.0000 0.61890  0.81510  0.85550  Biso   1.000  O
  O28      1.0000 0.48340  0.75400  0.86590  Biso   1.000  O
  Cu22     1.0000 0.41429  0.56192  0.32611  Biso   1.000  Cu
  Cu23     1.0000 0.42170  0.53422  0.02995  Biso   1.000  Cu
  Cu24     1.0000 0.25089  0.72911  0.87333  Biso   1.000  Cu
  I15      1.0000 0.23793  0.52377  0.45058  Biso   1.000  I
  I16      1.0000 0.24455  0.54787  0.17888  Biso   1.000  I
  C71      1.0000 0.01660  0.66950  0.92960  Biso   1.000  C
  C72      1.0000 0.19450  0.64860  0.93550  Biso   1.000  C
  C73      1.0000 0.21970  0.60810  0.96490  Biso   1.000  C
  H43      1.0000 0.12420  0.59240  0.98300  Biso   1.000  H
  C74      1.0000 0.51210  0.61420  0.93920  Biso   1.000  C
  H44      1.0000 0.62370  0.60280  0.93880  Biso   1.000  H
  C75      1.0000 0.48750  0.65500  0.91020  Biso   1.000  C
  H45      1.0000 0.58300  0.67060  0.89160  Biso   1.000  H
  C76      1.0000 0.01330  0.70570  0.36090  Biso   1.000  C
  C77      1.0000 0.18930  0.68510  0.35990  Biso   1.000  C
  C78      1.0000 0.21380  0.64200  0.35030  Biso   1.000  C
  H46      1.0000 0.11750  0.62440  0.34540  Biso   1.000  H
  C79      1.0000 0.50910  0.65240  0.35810  Biso   1.000  C
  H47      1.0000 0.62190  0.64160  0.35840  Biso   1.000  H
  C80      1.0000 0.48610  0.69504  0.36790  Biso   1.000  C
  H48      1.0000 0.58270  0.71240  0.37440  Biso   1.000  H
  N29      1.0000 0.37910  0.59112  0.96770  Biso   1.000  N
  N30      1.0000 0.32880  0.67226  0.90880  Biso   1.000  N
  N31      1.0000 0.37390  0.62576  0.34810  Biso   1.000  N
  N32      1.0000 0.32570  0.71159  0.36810  Biso   1.000  N
  O29      1.0000 0.02110  0.70715  0.89930  Biso   1.000  O
  O30      1.0000 0.88780  0.65115  0.95460  Biso   1.000  O
  O31      1.0000 0.88110  0.68490  0.35550  Biso   1.000  O
  O32      1.0000 0.01660  0.74600  0.36590  Biso   1.000  O
