data_image0
_cell_length_a       23.503
_cell_length_b       23.503
_cell_length_c       23.503
_cell_angle_alpha    90
_cell_angle_beta     90
_cell_angle_gamma    90

_symmetry_space_group_name_H-M    "P 1"
_symmetry_int_tables_number       1

loop_
  _symmetry_equiv_pos_as_xyz
  'x, y, z'

loop_
  _atom_site_label
  _atom_site_occupancy
  _atom_site_fract_x
  _atom_site_fract_y
  _atom_site_fract_z
  _atom_site_thermal_displace_type
  _atom_site_B_iso_or_equiv
  _atom_site_type_symbol
  Zn1      1.0000 0.76263  0.70659  0.82052  Biso   1.000  Zn
  O1       1.0000 0.56370  0.94410  0.95250  Biso   1.000  O
  O2       1.0000 0.55730  0.93500  0.04770  Biso   1.000  O
  O3       1.0000 0.74260  0.75850  0.88400  Biso   1.000  O
  O4       1.0000 0.69790  0.83100  0.84390  Biso   1.000  O
  O5       1.0000 0.66800  0.78690  0.14330  Biso   1.000  O
  O6       1.0000 0.72940  0.73350  0.09810  Biso   1.000  O
  C1       1.0000 0.62240  0.87590  0.99760  Biso   1.000  C
  C2       1.0000 0.63900  0.84590  0.04640  Biso   1.000  C
  H1       1.0000 0.62250  0.85540  0.08110  Biso   1.000  H
  C3       1.0000 0.67800  0.80370  0.04470  Biso   1.000  C
  C4       1.0000 0.70480  0.79100  0.99210  Biso   1.000  C
  H2       1.0000 0.73390  0.76410  0.99040  Biso   1.000  H
  C5       1.0000 0.68770  0.81840  0.94460  Biso   1.000  C
  C6       1.0000 0.64690  0.86010  0.94620  Biso   1.000  C
  H3       1.0000 0.63560  0.87790  0.91270  Biso   1.000  H
  C7       1.0000 0.57740  0.92330  0.00070  Biso   1.000  C
  C8       1.0000 0.71070  0.80130  0.88510  Biso   1.000  C
  C9       1.0000 0.69380  0.77380  0.09760  Biso   1.000  C
  Zn2      1.0000 0.26263  0.20659  0.32052  Biso   1.000  Zn
  O7       1.0000 0.06370  0.44410  0.45250  Biso   1.000  O
  O8       1.0000 0.05730  0.43500  0.54770  Biso   1.000  O
  O9       1.0000 0.24260  0.25850  0.38400  Biso   1.000  O
  O10      1.0000 0.19790  0.33100  0.34390  Biso   1.000  O
  O11      1.0000 0.16800  0.28690  0.64330  Biso   1.000  O
  O12      1.0000 0.22940  0.23350  0.59810  Biso   1.000  O
  C10      1.0000 0.12240  0.37590  0.49760  Biso   1.000  C
  C11      1.0000 0.13900  0.34590  0.54640  Biso   1.000  C
  H4       1.0000 0.12250  0.35540  0.58110  Biso   1.000  H
  C12      1.0000 0.17800  0.30370  0.54470  Biso   1.000  C
  C13      1.0000 0.20480  0.29100  0.49210  Biso   1.000  C
  H5       1.0000 0.23390  0.26410  0.49040  Biso   1.000  H
  C14      1.0000 0.18770  0.31840  0.44460  Biso   1.000  C
  C15      1.0000 0.14690  0.36010  0.44620  Biso   1.000  C
  H6       1.0000 0.13560  0.37790  0.41270  Biso   1.000  H
  C16      1.0000 0.07740  0.42330  0.50070  Biso   1.000  C
  C17      1.0000 0.21070  0.30130  0.38510  Biso   1.000  C
  C18      1.0000 0.19380  0.27380  0.59760  Biso   1.000  C
  Zn3      1.0000 0.23737  0.29341  0.82052  Biso   1.000  Zn
  O13      1.0000 0.43630  0.05590  0.95250  Biso   1.000  O
  O14      1.0000 0.44270  0.06500  0.04770  Biso   1.000  O
  O15      1.0000 0.25740  0.24150  0.88400  Biso   1.000  O
  O16      1.0000 0.30210  0.16900  0.84390  Biso   1.000  O
  O17      1.0000 0.33200  0.21310  0.14330  Biso   1.000  O
  O18      1.0000 0.27060  0.26650  0.09810  Biso   1.000  O
  C19      1.0000 0.37760  0.12410  0.99760  Biso   1.000  C
  C20      1.0000 0.36100  0.15410  0.04640  Biso   1.000  C
  H7       1.0000 0.37750  0.14460  0.08110  Biso   1.000  H
  C21      1.0000 0.32200  0.19630  0.04470  Biso   1.000  C
  C22      1.0000 0.29520  0.20900  0.99210  Biso   1.000  C
  H8       1.0000 0.26610  0.23590  0.99040  Biso   1.000  H
  C23      1.0000 0.31230  0.18160  0.94460  Biso   1.000  C
  C24      1.0000 0.35310  0.13990  0.94620  Biso   1.000  C
  H9       1.0000 0.36440  0.12210  0.91270  Biso   1.000  H
  C25      1.0000 0.42260  0.07670  0.00070  Biso   1.000  C
  C26      1.0000 0.28930  0.19870  0.88510  Biso   1.000  C
  C27      1.0000 0.30620  0.22620  0.09760  Biso   1.000  C
  Zn4      1.0000 0.73737  0.79341  0.32052  Biso   1.000  Zn
  O19      1.0000 0.93630  0.55590  0.45250  Biso   1.000  O
  O20      1.0000 0.94270  0.56500  0.54770  Biso   1.000  O
  O21      1.0000 0.75740  0.74150  0.38400  Biso   1.000  O
  O22      1.0000 0.80210  0.66900  0.34390  Biso   1.000  O
  O23      1.0000 0.83200  0.71310  0.64330  Biso   1.000  O
  O24      1.0000 0.77060  0.76650  0.59810  Biso   1.000  O
  C28      1.0000 0.87760  0.62410  0.49760  Biso   1.000  C
  C29      1.0000 0.86100  0.65410  0.54640  Biso   1.000  C
  H10      1.0000 0.87750  0.64460  0.58110  Biso   1.000  H
  C30      1.0000 0.82200  0.69630  0.54470  Biso   1.000  C
  C31      1.0000 0.79520  0.70900  0.49210  Biso   1.000  C
  H11      1.0000 0.76610  0.73590  0.49040  Biso   1.000  H
  C32      1.0000 0.81230  0.68160  0.44460  Biso   1.000  C
  C33      1.0000 0.85310  0.63990  0.44620  Biso   1.000  C
  H12      1.0000 0.86440  0.62210  0.41270  Biso   1.000  H
  C34      1.0000 0.92260  0.57670  0.50070  Biso   1.000  C
  C35      1.0000 0.78930  0.69870  0.38510  Biso   1.000  C
  C36      1.0000 0.80620  0.72620  0.59760  Biso   1.000  C
  Zn5      1.0000 0.23737  0.70659  0.17948  Biso   1.000  Zn
  O25      1.0000 0.43630  0.94410  0.04750  Biso   1.000  O
  O26      1.0000 0.44270  0.93500  0.95230  Biso   1.000  O
  O27      1.0000 0.25740  0.75850  0.11600  Biso   1.000  O
  O28      1.0000 0.30210  0.83100  0.15610  Biso   1.000  O
  O29      1.0000 0.33200  0.78690  0.85670  Biso   1.000  O
  O30      1.0000 0.27060  0.73350  0.90190  Biso   1.000  O
  C37      1.0000 0.37760  0.87590  0.00240  Biso   1.000  C
  C38      1.0000 0.36100  0.84590  0.95360  Biso   1.000  C
  H13      1.0000 0.37750  0.85540  0.91890  Biso   1.000  H
  C39      1.0000 0.32200  0.80370  0.95530  Biso   1.000  C
  C40      1.0000 0.29520  0.79100  0.00790  Biso   1.000  C
  H14      1.0000 0.26610  0.76410  0.00960  Biso   1.000  H
  C41      1.0000 0.31230  0.81840  0.05540  Biso   1.000  C
  C42      1.0000 0.35310  0.86010  0.05380  Biso   1.000  C
  H15      1.0000 0.36440  0.87790  0.08730  Biso   1.000  H
  C43      1.0000 0.42260  0.92330  0.99930  Biso   1.000  C
  C44      1.0000 0.28930  0.80130  0.11490  Biso   1.000  C
  C45      1.0000 0.30620  0.77380  0.90240  Biso   1.000  C
  Zn6      1.0000 0.73737  0.20659  0.67948  Biso   1.000  Zn
  O31      1.0000 0.93630  0.44410  0.54750  Biso   1.000  O
  O32      1.0000 0.94270  0.43500  0.45230  Biso   1.000  O
  O33      1.0000 0.75740  0.25850  0.61600  Biso   1.000  O
  O34      1.0000 0.80210  0.33100  0.65610  Biso   1.000  O
  O35      1.0000 0.83200  0.28690  0.35670  Biso   1.000  O
  O36      1.0000 0.77060  0.23350  0.40190  Biso   1.000  O
  C46      1.0000 0.87760  0.37590  0.50240  Biso   1.000  C
  C47      1.0000 0.86100  0.34590  0.45360  Biso   1.000  C
  H16      1.0000 0.87750  0.35540  0.41890  Biso   1.000  H
  C48      1.0000 0.82200  0.30370  0.45530  Biso   1.000  C
  C49      1.0000 0.79520  0.29100  0.50790  Biso   1.000  C
  H17      1.0000 0.76610  0.26410  0.50960  Biso   1.000  H
  C50      1.0000 0.81230  0.31840  0.55540  Biso   1.000  C
  C51      1.0000 0.85310  0.36010  0.55380  Biso   1.000  C
  H18      1.0000 0.86440  0.37790  0.58730  Biso   1.000  H
  C52      1.0000 0.92260  0.42330  0.49930  Biso   1.000  C
  C53      1.0000 0.78930  0.30130  0.61490  Biso   1.000  C
  C54      1.0000 0.80620  0.27380  0.40240  Biso   1.000  C
  Zn7      1.0000 0.76263  0.29341  0.17948  Biso   1.000  Zn
  O37      1.0000 0.56370  0.05590  0.04750  Biso   1.000  O
  O38      1.0000 0.55730  0.06500  0.95230  Biso   1.000  O
  O39      1.0000 0.74260  0.24150  0.11600  Biso   1.000  O
  O40      1.0000 0.69790  0.16900  0.15610  Biso   1.000  O
  O41      1.0000 0.66800  0.21310  0.85670  Biso   1.000  O
  O42      1.0000 0.72940  0.26650  0.90190  Biso   1.000  O
  C55      1.0000 0.62240  0.12410  0.00240  Biso   1.000  C
  C56      1.0000 0.63900  0.15410  0.95360  Biso   1.000  C
  H19      1.0000 0.62250  0.14460  0.91890  Biso   1.000  H
  C57      1.0000 0.67800  0.19630  0.95530  Biso   1.000  C
  C58      1.0000 0.70480  0.20900  0.00790  Biso   1.000  C
  H20      1.0000 0.73390  0.23590  0.00960  Biso   1.000  H
  C59      1.0000 0.68770  0.18160  0.05540  Biso   1.000  C
  C60      1.0000 0.64690  0.13990  0.05380  Biso   1.000  C
  H21      1.0000 0.63560  0.12210  0.08730  Biso   1.000  H
  C61      1.0000 0.57740  0.07670  0.99930  Biso   1.000  C
  C62      1.0000 0.71070  0.19870  0.11490  Biso   1.000  C
  C63      1.0000 0.69380  0.22620  0.90240  Biso   1.000  C
  Zn8      1.0000 0.26263  0.79341  0.67948  Biso   1.000  Zn
  O43      1.0000 0.06370  0.55590  0.54750  Biso   1.000  O
  O44      1.0000 0.05730  0.56500  0.45230  Biso   1.000  O
  O45      1.0000 0.24260  0.74150  0.61600  Biso   1.000  O
  O46      1.0000 0.19790  0.66900  0.65610  Biso   1.000  O
  O47      1.0000 0.16800  0.71310  0.35670  Biso   1.000  O
  O48      1.0000 0.22940  0.76650  0.40190  Biso   1.000  O
  C64      1.0000 0.12240  0.62410  0.50240  Biso   1.000  C
  C65      1.0000 0.13900  0.65410  0.45360  Biso   1.000  C
  H22      1.0000 0.12250  0.64460  0.41890  Biso   1.000  H
  C66      1.0000 0.17800  0.69630  0.45530  Biso   1.000  C
  C67      1.0000 0.20480  0.70900  0.50790  Biso   1.000  C
  H23      1.0000 0.23390  0.73590  0.50960  Biso   1.000  H
  C68      1.0000 0.18770  0.68160  0.55540  Biso   1.000  C
  C69      1.0000 0.14690  0.63990  0.55380  Biso   1.000  C
  H24      1.0000 0.13560  0.62210  0.58730  Biso   1.000  H
  C70      1.0000 0.07740  0.57670  0.49930  Biso   1.000  C
  C71      1.0000 0.21070  0.69870  0.61490  Biso   1.000  C
  C72      1.0000 0.19380  0.72620  0.40240  Biso   1.000  C
  Zn9      1.0000 0.82052  0.76263  0.70659  Biso   1.000  Zn
  O49      1.0000 0.95250  0.56370  0.94410  Biso   1.000  O
  O50      1.0000 0.04770  0.55730  0.93500  Biso   1.000  O
  O51      1.0000 0.88400  0.74260  0.75850  Biso   1.000  O
  O52      1.0000 0.84390  0.69790  0.83100  Biso   1.000  O
  O53      1.0000 0.14330  0.66800  0.78690  Biso   1.000  O
  O54      1.0000 0.09810  0.72940  0.73350  Biso   1.000  O
  C73      1.0000 0.99760  0.62240  0.87590  Biso   1.000  C
  C74      1.0000 0.04640  0.63900  0.84590  Biso   1.000  C
  H25      1.0000 0.08110  0.62250  0.85540  Biso   1.000  H
  C75      1.0000 0.04470  0.67800  0.80370  Biso   1.000  C
  C76      1.0000 0.99210  0.70480  0.79100  Biso   1.000  C
  H26      1.0000 0.99040  0.73390  0.76410  Biso   1.000  H
  C77      1.0000 0.94460  0.68770  0.81840  Biso   1.000  C
  C78      1.0000 0.94620  0.64690  0.86010  Biso   1.000  C
  H27      1.0000 0.91270  0.63560  0.87790  Biso   1.000  H
  C79      1.0000 0.00070  0.57740  0.92330  Biso   1.000  C
  C80      1.0000 0.88510  0.71070  0.80130  Biso   1.000  C
  C81      1.0000 0.09760  0.69380  0.77380  Biso   1.000  C
  Zn10     1.0000 0.32052  0.26263  0.20659  Biso   1.000  Zn
  O55      1.0000 0.45250  0.06370  0.44410  Biso   1.000  O
  O56      1.0000 0.54770  0.05730  0.43500  Biso   1.000  O
  O57      1.0000 0.38400  0.24260  0.25850  Biso   1.000  O
  O58      1.0000 0.34390  0.19790  0.33100  Biso   1.000  O
  O59      1.0000 0.64330  0.16800  0.28690  Biso   1.000  O
  O60      1.0000 0.59810  0.22940  0.23350  Biso   1.000  O
  C82      1.0000 0.49760  0.12240  0.37590  Biso   1.000  C
  C83      1.0000 0.54640  0.13900  0.34590  Biso   1.000  C
  H28      1.0000 0.58110  0.12250  0.35540  Biso   1.000  H
  C84      1.0000 0.54470  0.17800  0.30370  Biso   1.000  C
  C85      1.0000 0.49210  0.20480  0.29100  Biso   1.000  C
  H29      1.0000 0.49040  0.23390  0.26410  Biso   1.000  H
  C86      1.0000 0.44460  0.18770  0.31840  Biso   1.000  C
  C87      1.0000 0.44620  0.14690  0.36010  Biso   1.000  C
  H30      1.0000 0.41270  0.13560  0.37790  Biso   1.000  H
  C88      1.0000 0.50070  0.07740  0.42330  Biso   1.000  C
  C89      1.0000 0.38510  0.21070  0.30130  Biso   1.000  C
  C90      1.0000 0.59760  0.19380  0.27380  Biso   1.000  C
  Zn11     1.0000 0.82052  0.23737  0.29341  Biso   1.000  Zn
  O61      1.0000 0.95250  0.43630  0.05590  Biso   1.000  O
  O62      1.0000 0.04770  0.44270  0.06500  Biso   1.000  O
  O63      1.0000 0.88400  0.25740  0.24150  Biso   1.000  O
  O64      1.0000 0.84390  0.30210  0.16900  Biso   1.000  O
  O65      1.0000 0.14330  0.33200  0.21310  Biso   1.000  O
  O66      1.0000 0.09810  0.27060  0.26650  Biso   1.000  O
  C91      1.0000 0.99760  0.37760  0.12410  Biso   1.000  C
  C92      1.0000 0.04640  0.36100  0.15410  Biso   1.000  C
  H31      1.0000 0.08110  0.37750  0.14460  Biso   1.000  H
  C93      1.0000 0.04470  0.32200  0.19630  Biso   1.000  C
  C94      1.0000 0.99210  0.29520  0.20900  Biso   1.000  C
  H32      1.0000 0.99040  0.26610  0.23590  Biso   1.000  H
  C95      1.0000 0.94460  0.31230  0.18160  Biso   1.000  C
  C96      1.0000 0.94620  0.35310  0.13990  Biso   1.000  C
  H33      1.0000 0.91270  0.36440  0.12210  Biso   1.000  H
  C97      1.0000 0.00070  0.42260  0.07670  Biso   1.000  C
  C98      1.0000 0.88510  0.28930  0.19870  Biso   1.000  C
  C99      1.0000 0.09760  0.30620  0.22620  Biso   1.000  C
  Zn12     1.0000 0.32052  0.73737  0.79341  Biso   1.000  Zn
  O67      1.0000 0.45250  0.93630  0.55590  Biso   1.000  O
  O68      1.0000 0.54770  0.94270  0.56500  Biso   1.000  O
  O69      1.0000 0.38400  0.75740  0.74150  Biso   1.000  O
  O70      1.0000 0.34390  0.80210  0.66900  Biso   1.000  O
  O71      1.0000 0.64330  0.83200  0.71310  Biso   1.000  O
  O72      1.0000 0.59810  0.77060  0.76650  Biso   1.000  O
  C100     1.0000 0.49760  0.87760  0.62410  Biso   1.000  C
  C101     1.0000 0.54640  0.86100  0.65410  Biso   1.000  C
  H34      1.0000 0.58110  0.87750  0.64460  Biso   1.000  H
  C102     1.0000 0.54470  0.82200  0.69630  Biso   1.000  C
  C103     1.0000 0.49210  0.79520  0.70900  Biso   1.000  C
  H35      1.0000 0.49040  0.76610  0.73590  Biso   1.000  H
  C104     1.0000 0.44460  0.81230  0.68160  Biso   1.000  C
  C105     1.0000 0.44620  0.85310  0.63990  Biso   1.000  C
  H36      1.0000 0.41270  0.86440  0.62210  Biso   1.000  H
  C106     1.0000 0.50070  0.92260  0.57670  Biso   1.000  C
  C107     1.0000 0.38510  0.78930  0.69870  Biso   1.000  C
  C108     1.0000 0.59760  0.80620  0.72620  Biso   1.000  C
  Zn13     1.0000 0.17948  0.23737  0.70659  Biso   1.000  Zn
  O73      1.0000 0.04750  0.43630  0.94410  Biso   1.000  O
  O74      1.0000 0.95230  0.44270  0.93500  Biso   1.000  O
  O75      1.0000 0.11600  0.25740  0.75850  Biso   1.000  O
  O76      1.0000 0.15610  0.30210  0.83100  Biso   1.000  O
  O77      1.0000 0.85670  0.33200  0.78690  Biso   1.000  O
  O78      1.0000 0.90190  0.27060  0.73350  Biso   1.000  O
  C109     1.0000 0.00240  0.37760  0.87590  Biso   1.000  C
  C110     1.0000 0.95360  0.36100  0.84590  Biso   1.000  C
  H37      1.0000 0.91890  0.37750  0.85540  Biso   1.000  H
  C111     1.0000 0.95530  0.32200  0.80370  Biso   1.000  C
  C112     1.0000 0.00790  0.29520  0.79100  Biso   1.000  C
  H38      1.0000 0.00960  0.26610  0.76410  Biso   1.000  H
  C113     1.0000 0.05540  0.31230  0.81840  Biso   1.000  C
  C114     1.0000 0.05380  0.35310  0.86010  Biso   1.000  C
  H39      1.0000 0.08730  0.36440  0.87790  Biso   1.000  H
  C115     1.0000 0.99930  0.42260  0.92330  Biso   1.000  C
  C116     1.0000 0.11490  0.28930  0.80130  Biso   1.000  C
  C117     1.0000 0.90240  0.30620  0.77380  Biso   1.000  C
  Zn14     1.0000 0.67948  0.73737  0.20659  Biso   1.000  Zn
  O79      1.0000 0.54750  0.93630  0.44410  Biso   1.000  O
  O80      1.0000 0.45230  0.94270  0.43500  Biso   1.000  O
  O81      1.0000 0.61600  0.75740  0.25850  Biso   1.000  O
  O82      1.0000 0.65610  0.80210  0.33100  Biso   1.000  O
  O83      1.0000 0.35670  0.83200  0.28690  Biso   1.000  O
  O84      1.0000 0.40190  0.77060  0.23350  Biso   1.000  O
  C118     1.0000 0.50240  0.87760  0.37590  Biso   1.000  C
  C119     1.0000 0.45360  0.86100  0.34590  Biso   1.000  C
  H40      1.0000 0.41890  0.87750  0.35540  Biso   1.000  H
  C120     1.0000 0.45530  0.82200  0.30370  Biso   1.000  C
  C121     1.0000 0.50790  0.79520  0.29100  Biso   1.000  C
  H41      1.0000 0.50960  0.76610  0.26410  Biso   1.000  H
  C122     1.0000 0.55540  0.81230  0.31840  Biso   1.000  C
  C123     1.0000 0.55380  0.85310  0.36010  Biso   1.000  C
  H42      1.0000 0.58730  0.86440  0.37790  Biso   1.000  H
  C124     1.0000 0.49930  0.92260  0.42330  Biso   1.000  C
  C125     1.0000 0.61490  0.78930  0.30130  Biso   1.000  C
  C126     1.0000 0.40240  0.80620  0.27380  Biso   1.000  C
  Zn15     1.0000 0.17948  0.76263  0.29341  Biso   1.000  Zn
  O85      1.0000 0.04750  0.56370  0.05590  Biso   1.000  O
  O86      1.0000 0.95230  0.55730  0.06500  Biso   1.000  O
  O87      1.0000 0.11600  0.74260  0.24150  Biso   1.000  O
  O88      1.0000 0.15610  0.69790  0.16900  Biso   1.000  O
  O89      1.0000 0.85670  0.66800  0.21310  Biso   1.000  O
  O90      1.0000 0.90190  0.72940  0.26650  Biso   1.000  O
  C127     1.0000 0.00240  0.62240  0.12410  Biso   1.000  C
  C128     1.0000 0.95360  0.63900  0.15410  Biso   1.000  C
  H43      1.0000 0.91890  0.62250  0.14460  Biso   1.000  H
  C129     1.0000 0.95530  0.67800  0.19630  Biso   1.000  C
  C130     1.0000 0.00790  0.70480  0.20900  Biso   1.000  C
  H44      1.0000 0.00960  0.73390  0.23590  Biso   1.000  H
  C131     1.0000 0.05540  0.68770  0.18160  Biso   1.000  C
  C132     1.0000 0.05380  0.64690  0.13990  Biso   1.000  C
  H45      1.0000 0.08730  0.63560  0.12210  Biso   1.000  H
  C133     1.0000 0.99930  0.57740  0.07670  Biso   1.000  C
  C134     1.0000 0.11490  0.71070  0.19870  Biso   1.000  C
  C135     1.0000 0.90240  0.69380  0.22620  Biso   1.000  C
  Zn16     1.0000 0.67948  0.26263  0.79341  Biso   1.000  Zn
  O91      1.0000 0.54750  0.06370  0.55590  Biso   1.000  O
  O92      1.0000 0.45230  0.05730  0.56500  Biso   1.000  O
  O93      1.0000 0.61600  0.24260  0.74150  Biso   1.000  O
  O94      1.0000 0.65610  0.19790  0.66900  Biso   1.000  O
  O95      1.0000 0.35670  0.16800  0.71310  Biso   1.000  O
  O96      1.0000 0.40190  0.22940  0.76650  Biso   1.000  O
  C136     1.0000 0.50240  0.12240  0.62410  Biso   1.000  C
  C137     1.0000 0.45360  0.13900  0.65410  Biso   1.000  C
  H46      1.0000 0.41890  0.12250  0.64460  Biso   1.000  H
  C138     1.0000 0.45530  0.17800  0.69630  Biso   1.000  C
  C139     1.0000 0.50790  0.20480  0.70900  Biso   1.000  C
  H47      1.0000 0.50960  0.23390  0.73590  Biso   1.000  H
  C140     1.0000 0.55540  0.18770  0.68160  Biso   1.000  C
  C141     1.0000 0.55380  0.14690  0.63990  Biso   1.000  C
  H48      1.0000 0.58730  0.13560  0.62210  Biso   1.000  H
  C142     1.0000 0.49930  0.07740  0.57670  Biso   1.000  C
  C143     1.0000 0.61490  0.21070  0.69870  Biso   1.000  C
  C144     1.0000 0.40240  0.19380  0.72620  Biso   1.000  C
  Zn17     1.0000 0.70659  0.82052  0.76263  Biso   1.000  Zn
  O97      1.0000 0.94410  0.95250  0.56370  Biso   1.000  O
  O98      1.0000 0.93500  0.04770  0.55730  Biso   1.000  O
  O99      1.0000 0.75850  0.88400  0.74260  Biso   1.000  O
  O100     1.0000 0.83100  0.84390  0.69790  Biso   1.000  O
  O101     1.0000 0.78690  0.14330  0.66800  Biso   1.000  O
  O102     1.0000 0.73350  0.09810  0.72940  Biso   1.000  O
  C145     1.0000 0.87590  0.99760  0.62240  Biso   1.000  C
  C146     1.0000 0.84590  0.04640  0.63900  Biso   1.000  C
  H49      1.0000 0.85540  0.08110  0.62250  Biso   1.000  H
  C147     1.0000 0.80370  0.04470  0.67800  Biso   1.000  C
  C148     1.0000 0.79100  0.99210  0.70480  Biso   1.000  C
  H50      1.0000 0.76410  0.99040  0.73390  Biso   1.000  H
  C149     1.0000 0.81840  0.94460  0.68770  Biso   1.000  C
  C150     1.0000 0.86010  0.94620  0.64690  Biso   1.000  C
  H51      1.0000 0.87790  0.91270  0.63560  Biso   1.000  H
  C151     1.0000 0.92330  0.00070  0.57740  Biso   1.000  C
  C152     1.0000 0.80130  0.88510  0.71070  Biso   1.000  C
  C153     1.0000 0.77380  0.09760  0.69380  Biso   1.000  C
  Zn18     1.0000 0.20659  0.32052  0.26263  Biso   1.000  Zn
  O103     1.0000 0.44410  0.45250  0.06370  Biso   1.000  O
  O104     1.0000 0.43500  0.54770  0.05730  Biso   1.000  O
  O105     1.0000 0.25850  0.38400  0.24260  Biso   1.000  O
  O106     1.0000 0.33100  0.34390  0.19790  Biso   1.000  O
  O107     1.0000 0.28690  0.64330  0.16800  Biso   1.000  O
  O108     1.0000 0.23350  0.59810  0.22940  Biso   1.000  O
  C154     1.0000 0.37590  0.49760  0.12240  Biso   1.000  C
  C155     1.0000 0.34590  0.54640  0.13900  Biso   1.000  C
  H52      1.0000 0.35540  0.58110  0.12250  Biso   1.000  H
  C156     1.0000 0.30370  0.54470  0.17800  Biso   1.000  C
  C157     1.0000 0.29100  0.49210  0.20480  Biso   1.000  C
  H53      1.0000 0.26410  0.49040  0.23390  Biso   1.000  H
  C158     1.0000 0.31840  0.44460  0.18770  Biso   1.000  C
  C159     1.0000 0.36010  0.44620  0.14690  Biso   1.000  C
  H54      1.0000 0.37790  0.41270  0.13560  Biso   1.000  H
  C160     1.0000 0.42330  0.50070  0.07740  Biso   1.000  C
  C161     1.0000 0.30130  0.38510  0.21070  Biso   1.000  C
  C162     1.0000 0.27380  0.59760  0.19380  Biso   1.000  C
  Zn19     1.0000 0.29341  0.82052  0.23737  Biso   1.000  Zn
  O109     1.0000 0.05590  0.95250  0.43630  Biso   1.000  O
  O110     1.0000 0.06500  0.04770  0.44270  Biso   1.000  O
  O111     1.0000 0.24150  0.88400  0.25740  Biso   1.000  O
  O112     1.0000 0.16900  0.84390  0.30210  Biso   1.000  O
  O113     1.0000 0.21310  0.14330  0.33200  Biso   1.000  O
  O114     1.0000 0.26650  0.09810  0.27060  Biso   1.000  O
  C163     1.0000 0.12410  0.99760  0.37760  Biso   1.000  C
  C164     1.0000 0.15410  0.04640  0.36100  Biso   1.000  C
  H55      1.0000 0.14460  0.08110  0.37750  Biso   1.000  H
  C165     1.0000 0.19630  0.04470  0.32200  Biso   1.000  C
  C166     1.0000 0.20900  0.99210  0.29520  Biso   1.000  C
  H56      1.0000 0.23590  0.99040  0.26610  Biso   1.000  H
  C167     1.0000 0.18160  0.94460  0.31230  Biso   1.000  C
  C168     1.0000 0.13990  0.94620  0.35310  Biso   1.000  C
  H57      1.0000 0.12210  0.91270  0.36440  Biso   1.000  H
  C169     1.0000 0.07670  0.00070  0.42260  Biso   1.000  C
  C170     1.0000 0.19870  0.88510  0.28930  Biso   1.000  C
  C171     1.0000 0.22620  0.09760  0.30620  Biso   1.000  C
  Zn20     1.0000 0.79341  0.32052  0.73737  Biso   1.000  Zn
  O115     1.0000 0.55590  0.45250  0.93630  Biso   1.000  O
  O116     1.0000 0.56500  0.54770  0.94270  Biso   1.000  O
  O117     1.0000 0.74150  0.38400  0.75740  Biso   1.000  O
  O118     1.0000 0.66900  0.34390  0.80210  Biso   1.000  O
  O119     1.0000 0.71310  0.64330  0.83200  Biso   1.000  O
  O120     1.0000 0.76650  0.59810  0.77060  Biso   1.000  O
  C172     1.0000 0.62410  0.49760  0.87760  Biso   1.000  C
  C173     1.0000 0.65410  0.54640  0.86100  Biso   1.000  C
  H58      1.0000 0.64460  0.58110  0.87750  Biso   1.000  H
  C174     1.0000 0.69630  0.54470  0.82200  Biso   1.000  C
  C175     1.0000 0.70900  0.49210  0.79520  Biso   1.000  C
  H59      1.0000 0.73590  0.49040  0.76610  Biso   1.000  H
  C176     1.0000 0.68160  0.44460  0.81230  Biso   1.000  C
  C177     1.0000 0.63990  0.44620  0.85310  Biso   1.000  C
  H60      1.0000 0.62210  0.41270  0.86440  Biso   1.000  H
  C178     1.0000 0.57670  0.50070  0.92260  Biso   1.000  C
  C179     1.0000 0.69870  0.38510  0.78930  Biso   1.000  C
  C180     1.0000 0.72620  0.59760  0.80620  Biso   1.000  C
  Zn21     1.0000 0.70659  0.17948  0.23737  Biso   1.000  Zn
  O121     1.0000 0.94410  0.04750  0.43630  Biso   1.000  O
  O122     1.0000 0.93500  0.95230  0.44270  Biso   1.000  O
  O123     1.0000 0.75850  0.11600  0.25740  Biso   1.000  O
  O124     1.0000 0.83100  0.15610  0.30210  Biso   1.000  O
  O125     1.0000 0.78690  0.85670  0.33200  Biso   1.000  O
  O126     1.0000 0.73350  0.90190  0.27060  Biso   1.000  O
  C181     1.0000 0.87590  0.00240  0.37760  Biso   1.000  C
  C182     1.0000 0.84590  0.95360  0.36100  Biso   1.000  C
  H61      1.0000 0.85540  0.91890  0.37750  Biso   1.000  H
  C183     1.0000 0.80370  0.95530  0.32200  Biso   1.000  C
  C184     1.0000 0.79100  0.00790  0.29520  Biso   1.000  C
  H62      1.0000 0.76410  0.00960  0.26610  Biso   1.000  H
  C185     1.0000 0.81840  0.05540  0.31230  Biso   1.000  C
  C186     1.0000 0.86010  0.05380  0.35310  Biso   1.000  C
  H63      1.0000 0.87790  0.08730  0.36440  Biso   1.000  H
  C187     1.0000 0.92330  0.99930  0.42260  Biso   1.000  C
  C188     1.0000 0.80130  0.11490  0.28930  Biso   1.000  C
  C189     1.0000 0.77380  0.90240  0.30620  Biso   1.000  C
  Zn22     1.0000 0.20659  0.67948  0.73737  Biso   1.000  Zn
  O127     1.0000 0.44410  0.54750  0.93630  Biso   1.000  O
  O128     1.0000 0.43500  0.45230  0.94270  Biso   1.000  O
  O129     1.0000 0.25850  0.61600  0.75740  Biso   1.000  O
  O130     1.0000 0.33100  0.65610  0.80210  Biso   1.000  O
  O131     1.0000 0.28690  0.35670  0.83200  Biso   1.000  O
  O132     1.0000 0.23350  0.40190  0.77060  Biso   1.000  O
  C190     1.0000 0.37590  0.50240  0.87760  Biso   1.000  C
  C191     1.0000 0.34590  0.45360  0.86100  Biso   1.000  C
  H64      1.0000 0.35540  0.41890  0.87750  Biso   1.000  H
  C192     1.0000 0.30370  0.45530  0.82200  Biso   1.000  C
  C193     1.0000 0.29100  0.50790  0.79520  Biso   1.000  C
  H65      1.0000 0.26410  0.50960  0.76610  Biso   1.000  H
  C194     1.0000 0.31840  0.55540  0.81230  Biso   1.000  C
  C195     1.0000 0.36010  0.55380  0.85310  Biso   1.000  C
  H66      1.0000 0.37790  0.58730  0.86440  Biso   1.000  H
  C196     1.0000 0.42330  0.49930  0.92260  Biso   1.000  C
  C197     1.0000 0.30130  0.61490  0.78930  Biso   1.000  C
  C198     1.0000 0.27380  0.40240  0.80620  Biso   1.000  C
  Zn23     1.0000 0.29341  0.17948  0.76263  Biso   1.000  Zn
  O133     1.0000 0.05590  0.04750  0.56370  Biso   1.000  O
  O134     1.0000 0.06500  0.95230  0.55730  Biso   1.000  O
  O135     1.0000 0.24150  0.11600  0.74260  Biso   1.000  O
  O136     1.0000 0.16900  0.15610  0.69790  Biso   1.000  O
  O137     1.0000 0.21310  0.85670  0.66800  Biso   1.000  O
  O138     1.0000 0.26650  0.90190  0.72940  Biso   1.000  O
  C199     1.0000 0.12410  0.00240  0.62240  Biso   1.000  C
  C200     1.0000 0.15410  0.95360  0.63900  Biso   1.000  C
  H67      1.0000 0.14460  0.91890  0.62250  Biso   1.000  H
  C201     1.0000 0.19630  0.95530  0.67800  Biso   1.000  C
  C202     1.0000 0.20900  0.00790  0.70480  Biso   1.000  C
  H68      1.0000 0.23590  0.00960  0.73390  Biso   1.000  H
  C203     1.0000 0.18160  0.05540  0.68770  Biso   1.000  C
  C204     1.0000 0.13990  0.05380  0.64690  Biso   1.000  C
  H69      1.0000 0.12210  0.08730  0.63560  Biso   1.000  H
  C205     1.0000 0.07670  0.99930  0.57740  Biso   1.000  C
  C206     1.0000 0.19870  0.11490  0.71070  Biso   1.000  C
  C207     1.0000 0.22620  0.90240  0.69380  Biso   1.000  C
  Zn24     1.0000 0.79341  0.67948  0.26263  Biso   1.000  Zn
  O139     1.0000 0.55590  0.54750  0.06370  Biso   1.000  O
  O140     1.0000 0.56500  0.45230  0.05730  Biso   1.000  O
  O141     1.0000 0.74150  0.61600  0.24260  Biso   1.000  O
  O142     1.0000 0.66900  0.65610  0.19790  Biso   1.000  O
  O143     1.0000 0.71310  0.35670  0.16800  Biso   1.000  O
  O144     1.0000 0.76650  0.40190  0.22940  Biso   1.000  O
  C208     1.0000 0.62410  0.50240  0.12240  Biso   1.000  C
  C209     1.0000 0.65410  0.45360  0.13900  Biso   1.000  C
  H70      1.0000 0.64460  0.41890  0.12250  Biso   1.000  H
  C210     1.0000 0.69630  0.45530  0.17800  Biso   1.000  C
  C211     1.0000 0.70900  0.50790  0.20480  Biso   1.000  C
  H71      1.0000 0.73590  0.50960  0.23390  Biso   1.000  H
  C212     1.0000 0.68160  0.55540  0.18770  Biso   1.000  C
  C213     1.0000 0.63990  0.55380  0.14690  Biso   1.000  C
  H72      1.0000 0.62210  0.58730  0.13560  Biso   1.000  H
  C214     1.0000 0.57670  0.49930  0.07740  Biso   1.000  C
  C215     1.0000 0.69870  0.61490  0.21070  Biso   1.000  C
  C216     1.0000 0.72620  0.40240  0.19380  Biso   1.000  C
  Zn25     1.0000 0.50000  0.00000  0.93640  Biso   1.000  Zn
  Zn26     1.0000 0.00000  0.50000  0.43640  Biso   1.000  Zn
  Zn27     1.0000 0.50000  0.00000  0.06360  Biso   1.000  Zn
  Zn28     1.0000 0.00000  0.50000  0.56360  Biso   1.000  Zn
  Zn29     1.0000 0.93640  0.50000  0.00000  Biso   1.000  Zn
  Zn30     1.0000 0.43640  0.00000  0.50000  Biso   1.000  Zn
  Zn31     1.0000 0.06360  0.50000  0.00000  Biso   1.000  Zn
  Zn32     1.0000 0.56360  0.00000  0.50000  Biso   1.000  Zn
  Zn33     1.0000 0.00000  0.93640  0.50000  Biso   1.000  Zn
  Zn34     1.0000 0.50000  0.43640  0.00000  Biso   1.000  Zn
  Zn35     1.0000 0.00000  0.06360  0.50000  Biso   1.000  Zn
  Zn36     1.0000 0.50000  0.56360  0.00000  Biso   1.000  Zn
  O145     1.0000 0.74800  0.74800  0.74800  Biso   1.000  O
  O146     1.0000 0.24800  0.24800  0.24800  Biso   1.000  O
  O147     1.0000 0.25200  0.25200  0.74800  Biso   1.000  O
  O148     1.0000 0.75200  0.75200  0.24800  Biso   1.000  O
  O149     1.0000 0.25200  0.74800  0.25200  Biso   1.000  O
  O150     1.0000 0.75200  0.24800  0.75200  Biso   1.000  O
  O151     1.0000 0.74800  0.25200  0.25200  Biso   1.000  O
  O152     1.0000 0.24800  0.75200  0.75200  Biso   1.000  O
