data_RURPEA_clean
_audit_creation_date              2014-07-02
_audit_creation_method            'Materials Studio'
_symmetry_space_group_name_H-M    'P1'
_symmetry_Int_Tables_number       1
_symmetry_cell_setting            triclinic
loop_
_symmetry_equiv_pos_as_xyz
  x,y,z
_cell_length_a                    7.2810
_cell_length_b                    7.4410
_cell_length_c                    7.4600
_cell_angle_alpha                 90.0000
_cell_angle_beta                  90.0000
_cell_angle_gamma                 95.8140
loop_
_atom_site_label
_atom_site_type_symbol
_atom_site_fract_x
_atom_site_fract_y
_atom_site_fract_z
_atom_site_U_iso_or_equiv
_atom_site_adp_type
_atom_site_occupancy
Fe1    Fe    0.00000   0.50000   0.50000   0.01267  Uiso   1.00
H1     H     0.65840   0.49120   0.76120   0.01267  Uiso   1.00
H2     H     0.34160   0.50880   0.76120   0.01267  Uiso   1.00
H3     H     0.34160   0.50880   0.23880   0.01267  Uiso   1.00
H4     H     0.65840   0.49120   0.23880   0.01267  Uiso   1.00
Pt1    Pt    0.00000   0.00000   0.00000   0.01267  Uiso   1.00
C1     C     0.59600   0.49500   0.65300   0.01267  Uiso   1.00
C2     C     0.99140   0.18900   0.81100   0.01267  Uiso   1.00
C3     C     0.40400   0.50500   0.65300   0.01267  Uiso   1.00
C4     C     0.00860   0.81100   0.81100   0.01267  Uiso   1.00
C5     C     0.40400   0.50500   0.34700   0.01267  Uiso   1.00
C6     C     0.00860   0.81100   0.18900   0.01267  Uiso   1.00
C7     C     0.59600   0.49500   0.34700   0.01267  Uiso   1.00
C8     C     0.99140   0.18900   0.18900   0.01267  Uiso   1.00
N1     N     0.99050   0.30000   0.70470   0.01267  Uiso   1.00
N2     N     0.00950   0.70000   0.70470   0.01267  Uiso   1.00
N3     N     0.00950   0.70000   0.29530   0.01267  Uiso   1.00
N4     N     0.99050   0.30000   0.29530   0.01267  Uiso   1.00
N5     N     0.68970   0.48900   0.50000   0.01267  Uiso   1.00
N6     N     0.31030   0.51100   0.50000   0.01267  Uiso   1.00
