data_image0
_cell_length_a       6.737
_cell_length_b       7.122
_cell_length_c       7.175
_cell_angle_alpha    90
_cell_angle_beta     90
_cell_angle_gamma    90

_symmetry_space_group_name_H-M    "P 1"
_symmetry_int_tables_number       1

loop_
  _symmetry_equiv_pos_as_xyz
  'x, y, z'

loop_
  _atom_site_label
  _atom_site_occupancy
  _atom_site_fract_x
  _atom_site_fract_y
  _atom_site_fract_z
  _atom_site_thermal_displace_type
  _atom_site_B_iso_or_equiv
  _atom_site_type_symbol
  Pt1      1.0000 0.50000  0.50000  0.50000  Biso   1.000  Pt
  Fe1      1.0000 0.50000  0.00000  0.00000  Biso   1.000  Fe
  N1       1.0000 0.50000  0.19130  0.81010  Biso   1.000  N
  C1       1.0000 0.50000  0.30370  0.69520  Biso   1.000  C
  N2       1.0000 0.50000  0.80870  0.81010  Biso   1.000  N
  C2       1.0000 0.50000  0.69630  0.69520  Biso   1.000  C
  N3       1.0000 0.50000  0.19130  0.18990  Biso   1.000  N
  C3       1.0000 0.50000  0.30370  0.30480  Biso   1.000  C
  N4       1.0000 0.50000  0.80870  0.18990  Biso   1.000  N
  C4       1.0000 0.50000  0.69630  0.30480  Biso   1.000  C
  N5       1.0000 0.20740  0.00000  0.00000  Biso   1.000  N
  N6       1.0000 0.79260  0.00000  0.00000  Biso   1.000  N
  C5       1.0000 0.10200  0.84080  0.00000  Biso   1.000  C
  H1       1.0000 0.17040  0.72420  0.00000  Biso   1.000  H
  C6       1.0000 0.89800  0.15920  0.00000  Biso   1.000  C
  H2       1.0000 0.82960  0.27580  0.00000  Biso   1.000  H
  C7       1.0000 0.89800  0.84080  0.00000  Biso   1.000  C
  H3       1.0000 0.82960  0.72420  0.00000  Biso   1.000  H
  C8       1.0000 0.10200  0.15920  0.00000  Biso   1.000  C
  H4       1.0000 0.17040  0.27580  0.00000  Biso   1.000  H
