data_image0
_cell_length_a       10.4477
_cell_length_b       11.4945
_cell_length_c       12.9583
_cell_angle_alpha    106.639
_cell_angle_beta     90.322
_cell_angle_gamma    93.194

_symmetry_space_group_name_H-M    "P 1"
_symmetry_int_tables_number       1

loop_
  _symmetry_equiv_pos_as_xyz
  'x, y, z'

loop_
  _atom_site_label
  _atom_site_occupancy
  _atom_site_fract_x
  _atom_site_fract_y
  _atom_site_fract_z
  _atom_site_thermal_displace_type
  _atom_site_B_iso_or_equiv
  _atom_site_type_symbol
  Pr1      1.0000 0.47424  0.45386  0.33549  Biso   1.000  Pr
  C1       1.0000 0.49340  0.23160  0.16590  Biso   1.000  C
  C2       1.0000 0.51250  0.74800  0.50460  Biso   1.000  C
  C3       1.0000 0.26420  0.48900  0.56660  Biso   1.000  C
  C4       1.0000 0.49820  0.11330  0.08210  Biso   1.000  C
  C5       1.0000 0.50690  0.87980  0.50480  Biso   1.000  C
  C6       1.0000 0.12870  0.49320  0.53190  Biso   1.000  C
  C7       1.0000 0.44740  0.00530  0.10120  Biso   1.000  C
  C8       1.0000 0.39130  0.93620  0.52630  Biso   1.000  C
  C9       1.0000 0.07540  0.40420  0.44280  Biso   1.000  C
  C10      1.0000 0.39630  0.00360  0.20440  Biso   1.000  C
  H1       1.0000 0.39730  0.07570  0.26000  Biso   1.000  H
  C11      1.0000 0.27760  0.87600  0.55090  Biso   1.000  C
  H2       1.0000 0.27970  0.79610  0.55360  Biso   1.000  H
  C12      1.0000 0.14680  0.30640  0.38340  Biso   1.000  C
  H3       1.0000 0.23110  0.30160  0.40460  Biso   1.000  H
  C13      1.0000 0.34730  0.90030  0.22190  Biso   1.000  C
  H4       1.0000 0.31470  0.90250  0.28900  Biso   1.000  H
  C14      1.0000 0.16760  0.93250  0.57020  Biso   1.000  C
  H5       1.0000 0.09420  0.89110  0.58500  Biso   1.000  H
  C15      1.0000 0.09500  0.21970  0.29630  Biso   1.000  C
  H6       1.0000 0.14390  0.15690  0.25820  Biso   1.000  H
  C16      1.0000 0.34490  0.78850  0.13950  Biso   1.000  C
  H7       1.0000 0.31100  0.71790  0.15300  Biso   1.000  H
  C17      1.0000 0.16190  0.05530  0.56820  Biso   1.000  C
  H8       1.0000 0.08600  0.09460  0.58460  Biso   1.000  H
  C18      1.0000 0.96470  0.22510  0.26330  Biso   1.000  C
  H9       1.0000 0.92930  0.16560  0.20390  Biso   1.000  H
  C19      1.0000 0.39210  0.78360  0.04000  Biso   1.000  C
  H10      1.0000 0.38900  0.70970  0.98640  Biso   1.000  H
  C20      1.0000 0.26600  0.11480  0.54270  Biso   1.000  C
  H11      1.0000 0.26000  0.19410  0.53940  Biso   1.000  H
  C21      1.0000 0.89310  0.31600  0.31790  Biso   1.000  C
  H12      1.0000 0.80870  0.31770  0.29560  Biso   1.000  H
  C22      1.0000 0.44670  0.89160  0.01720  Biso   1.000  C
  C23      1.0000 0.38540  0.05900  0.52050  Biso   1.000  C
  C24      1.0000 0.94430  0.41000  0.40960  Biso   1.000  C
  O1       1.0000 0.38540  0.27750  0.18460  Biso   1.000  O
  O2       1.0000 0.48970  0.67160  0.41440  Biso   1.000  O
  O3       1.0000 0.35460  0.50990  0.50770  Biso   1.000  O
  O4       1.0000 0.59510  0.28380  0.21380  Biso   1.000  O
  O5       1.0000 0.53880  0.72610  0.59040  Biso   1.000  O
  O6       1.0000 0.28470  0.47430  0.65600  Biso   1.000  O
  Pr2      1.0000 0.52576  0.54614  0.66451  Biso   1.000  Pr
  C25      1.0000 0.50660  0.76840  0.83410  Biso   1.000  C
  C26      1.0000 0.48750  0.25200  0.49540  Biso   1.000  C
  C27      1.0000 0.73580  0.51100  0.43340  Biso   1.000  C
  C28      1.0000 0.50180  0.88670  0.91790  Biso   1.000  C
  C29      1.0000 0.49310  0.12020  0.49520  Biso   1.000  C
  C30      1.0000 0.87130  0.50680  0.46810  Biso   1.000  C
  C31      1.0000 0.55260  0.99470  0.89880  Biso   1.000  C
  C32      1.0000 0.60870  0.06380  0.47370  Biso   1.000  C
  C33      1.0000 0.92460  0.59580  0.55720  Biso   1.000  C
  C34      1.0000 0.60370  0.99640  0.79560  Biso   1.000  C
  H13      1.0000 0.60270  0.92430  0.74000  Biso   1.000  H
  C35      1.0000 0.72240  0.12400  0.44910  Biso   1.000  C
  H14      1.0000 0.72030  0.20390  0.44640  Biso   1.000  H
  C36      1.0000 0.85320  0.69360  0.61660  Biso   1.000  C
  H15      1.0000 0.76890  0.69840  0.59540  Biso   1.000  H
  C37      1.0000 0.65270  0.09970  0.77810  Biso   1.000  C
  H16      1.0000 0.68530  0.09750  0.71100  Biso   1.000  H
  C38      1.0000 0.83240  0.06750  0.42980  Biso   1.000  C
  H17      1.0000 0.90580  0.10890  0.41500  Biso   1.000  H
  C39      1.0000 0.90500  0.78030  0.70370  Biso   1.000  C
  H18      1.0000 0.85610  0.84310  0.74180  Biso   1.000  H
  C40      1.0000 0.65510  0.21150  0.86050  Biso   1.000  C
  H19      1.0000 0.68900  0.28210  0.84700  Biso   1.000  H
  C41      1.0000 0.83810  0.94470  0.43180  Biso   1.000  C
  H20      1.0000 0.91400  0.90540  0.41540  Biso   1.000  H
  C42      1.0000 0.03530  0.77490  0.73670  Biso   1.000  C
  H21      1.0000 0.07070  0.83440  0.79610  Biso   1.000  H
  C43      1.0000 0.60790  0.21640  0.96000  Biso   1.000  C
  H22      1.0000 0.61100  0.29030  0.01360  Biso   1.000  H
  C44      1.0000 0.73400  0.88520  0.45730  Biso   1.000  C
  H23      1.0000 0.74000  0.80590  0.46060  Biso   1.000  H
  C45      1.0000 0.10690  0.68400  0.68210  Biso   1.000  C
  H24      1.0000 0.19130  0.68230  0.70440  Biso   1.000  H
  C46      1.0000 0.55330  0.10840  0.98280  Biso   1.000  C
  C47      1.0000 0.61460  0.94100  0.47950  Biso   1.000  C
  C48      1.0000 0.05570  0.59000  0.59040  Biso   1.000  C
  O7       1.0000 0.61460  0.72250  0.81540  Biso   1.000  O
  O8       1.0000 0.51030  0.32840  0.58560  Biso   1.000  O
  O9       1.0000 0.64540  0.49010  0.49230  Biso   1.000  O
  O10      1.0000 0.40490  0.71620  0.78620  Biso   1.000  O
  O11      1.0000 0.46120  0.27390  0.40960  Biso   1.000  O
  O12      1.0000 0.71530  0.52570  0.34400  Biso   1.000  O
