data_image0
_cell_length_a       10.3803
_cell_length_b       11.3508
_cell_length_c       12.9894
_cell_angle_alpha    72.435
_cell_angle_beta     89.867
_cell_angle_gamma    87.372

_symmetry_space_group_name_H-M    "P 1"
_symmetry_int_tables_number       1

loop_
  _symmetry_equiv_pos_as_xyz
  'x, y, z'

loop_
  _atom_site_label
  _atom_site_occupancy
  _atom_site_fract_x
  _atom_site_fract_y
  _atom_site_fract_z
  _atom_site_thermal_displace_type
  _atom_site_B_iso_or_equiv
  _atom_site_type_symbol
  Dy1      1.0000 0.47900  0.04557  0.33970  Biso   1.000  Dy
  C1       1.0000 0.49470  0.26590  0.17050  Biso   1.000  C
  C2       1.0000 0.50930  0.75470  0.50590  Biso   1.000  C
  C3       1.0000 0.26650  0.00910  0.56460  Biso   1.000  C
  C4       1.0000 0.49820  0.38530  0.08570  Biso   1.000  C
  C5       1.0000 0.50540  0.62170  0.50550  Biso   1.000  C
  C6       1.0000 0.12950  0.00460  0.53010  Biso   1.000  C
  C7       1.0000 0.44810  0.49490  0.10210  Biso   1.000  C
  C8       1.0000 0.38940  0.56080  0.52770  Biso   1.000  C
  C9       1.0000 0.07670  0.09770  0.44080  Biso   1.000  C
  C10      1.0000 0.39840  0.49610  0.20580  Biso   1.000  C
  H1       1.0000 0.40000  0.42270  0.26250  Biso   1.000  H
  C11      1.0000 0.27430  0.62030  0.55250  Biso   1.000  C
  H2       1.0000 0.27620  0.70080  0.55590  Biso   1.000  H
  C12      1.0000 0.14970  0.19890  0.38000  Biso   1.000  C
  H3       1.0000 0.23460  0.20400  0.40030  Biso   1.000  H
  C13      1.0000 0.34980  0.60110  0.22220  Biso   1.000  C
  H4       1.0000 0.31890  0.59970  0.28980  Biso   1.000  H
  C14      1.0000 0.16190  0.56070  0.57110  Biso   1.000  C
  H5       1.0000 0.08750  0.60100  0.58620  Biso   1.000  H
  C15      1.0000 0.09740  0.28760  0.29330  Biso   1.000  C
  H6       1.0000 0.14680  0.35220  0.25440  Biso   1.000  H
  C16      1.0000 0.34550  0.71480  0.13570  Biso   1.000  C
  H7       1.0000 0.31030  0.78650  0.14720  Biso   1.000  H
  C17      1.0000 0.15760  0.43710  0.56760  Biso   1.000  C
  H8       1.0000 0.08030  0.39700  0.58090  Biso   1.000  H
  C18      1.0000 0.96730  0.28170  0.26190  Biso   1.000  C
  H9       1.0000 0.93240  0.34260  0.20230  Biso   1.000  H
  C19      1.0000 0.39230  0.71910  0.03720  Biso   1.000  C
  H10      1.0000 0.38950  0.79400  0.98230  Biso   1.000  H
  C20      1.0000 0.26490  0.37650  0.54510  Biso   1.000  C
  H11      1.0000 0.26060  0.29500  0.54460  Biso   1.000  H
  C21      1.0000 0.89330  0.18860  0.31760  Biso   1.000  C
  H12      1.0000 0.80820  0.18700  0.29600  Biso   1.000  H
  C22      1.0000 0.44610  0.61030  0.01610  Biso   1.000  C
  C23      1.0000 0.38420  0.43660  0.52210  Biso   1.000  C
  C24      1.0000 0.94480  0.09240  0.40950  Biso   1.000  C
  O1       1.0000 0.38672  0.21701  0.19472  Biso   1.000  O
  O2       1.0000 0.49139  0.83365  0.41492  Biso   1.000  O
  O3       1.0000 0.35951  0.99366  0.50523  Biso   1.000  O
  O4       1.0000 0.59665  0.21370  0.21748  Biso   1.000  O
  O5       1.0000 0.53038  0.77575  0.59375  Biso   1.000  O
  O6       1.0000 0.28755  0.01943  0.65607  Biso   1.000  O
  Dy2      1.0000 0.52100  0.95443  0.66030  Biso   1.000  Dy
  C25      1.0000 0.50530  0.73410  0.82950  Biso   1.000  C
  C26      1.0000 0.49070  0.24530  0.49410  Biso   1.000  C
  C27      1.0000 0.73350  0.99090  0.43540  Biso   1.000  C
  C28      1.0000 0.50180  0.61470  0.91430  Biso   1.000  C
  C29      1.0000 0.49460  0.37830  0.49450  Biso   1.000  C
  C30      1.0000 0.87050  0.99540  0.46990  Biso   1.000  C
  C31      1.0000 0.55190  0.50510  0.89790  Biso   1.000  C
  C32      1.0000 0.61060  0.43920  0.47230  Biso   1.000  C
  C33      1.0000 0.92330  0.90230  0.55920  Biso   1.000  C
  C34      1.0000 0.60160  0.50390  0.79420  Biso   1.000  C
  H13      1.0000 0.60000  0.57730  0.73750  Biso   1.000  H
  C35      1.0000 0.72570  0.37970  0.44750  Biso   1.000  C
  H14      1.0000 0.72380  0.29920  0.44410  Biso   1.000  H
  C36      1.0000 0.85030  0.80110  0.62000  Biso   1.000  C
  H15      1.0000 0.76540  0.79600  0.59970  Biso   1.000  H
  C37      1.0000 0.65020  0.39890  0.77780  Biso   1.000  C
  H16      1.0000 0.68110  0.40030  0.71020  Biso   1.000  H
  C38      1.0000 0.83810  0.43930  0.42890  Biso   1.000  C
  H17      1.0000 0.91250  0.39900  0.41380  Biso   1.000  H
  C39      1.0000 0.90260  0.71240  0.70670  Biso   1.000  C
  H18      1.0000 0.85320  0.64780  0.74560  Biso   1.000  H
  C40      1.0000 0.65450  0.28520  0.86430  Biso   1.000  C
  H19      1.0000 0.68970  0.21350  0.85280  Biso   1.000  H
  C41      1.0000 0.84240  0.56290  0.43240  Biso   1.000  C
  H20      1.0000 0.91970  0.60300  0.41910  Biso   1.000  H
  C42      1.0000 0.03270  0.71830  0.73810  Biso   1.000  C
  H21      1.0000 0.06760  0.65740  0.79770  Biso   1.000  H
  C43      1.0000 0.60770  0.28090  0.96280  Biso   1.000  C
  H22      1.0000 0.61050  0.20600  0.01770  Biso   1.000  H
  C44      1.0000 0.73510  0.62350  0.45490  Biso   1.000  C
  H23      1.0000 0.73940  0.70500  0.45540  Biso   1.000  H
  C45      1.0000 0.10670  0.81140  0.68240  Biso   1.000  C
  H24      1.0000 0.19180  0.81300  0.70400  Biso   1.000  H
  C46      1.0000 0.55390  0.38970  0.98390  Biso   1.000  C
  C47      1.0000 0.61580  0.56340  0.47790  Biso   1.000  C
  C48      1.0000 0.05520  0.90760  0.59050  Biso   1.000  C
  O7       1.0000 0.61328  0.78299  0.80528  Biso   1.000  O
  O8       1.0000 0.50861  0.16635  0.58508  Biso   1.000  O
  O9       1.0000 0.64049  0.00634  0.49477  Biso   1.000  O
  O10      1.0000 0.40335  0.78630  0.78252  Biso   1.000  O
  O11      1.0000 0.46962  0.22425  0.40625  Biso   1.000  O
  O12      1.0000 0.71245  0.98057  0.34393  Biso   1.000  O
