data_image0
_cell_length_a       10.471
_cell_length_b       11.359
_cell_length_c       13.093
_cell_angle_alpha    107.541
_cell_angle_beta     90.084
_cell_angle_gamma    92.355

_symmetry_space_group_name_H-M    "P 1"
_symmetry_int_tables_number       1

loop_
  _symmetry_equiv_pos_as_xyz
  'x, y, z'

loop_
  _atom_site_label
  _atom_site_occupancy
  _atom_site_fract_x
  _atom_site_fract_y
  _atom_site_fract_z
  _atom_site_thermal_displace_type
  _atom_site_B_iso_or_equiv
  _atom_site_type_symbol
  Nd1      1.0000 0.48068  0.45342  0.33946  Biso   1.000  Nd
  C1       1.0000 0.49870  0.23350  0.17060  Biso   1.000  C
  C2       1.0000 0.50890  0.74620  0.50720  Biso   1.000  C
  C3       1.0000 0.26680  0.49130  0.56120  Biso   1.000  C
  C4       1.0000 0.49980  0.11540  0.08610  Biso   1.000  C
  C5       1.0000 0.50640  0.87990  0.50690  Biso   1.000  C
  C6       1.0000 0.12880  0.49660  0.52840  Biso   1.000  C
  C7       1.0000 0.45140  0.00600  0.10100  Biso   1.000  C
  C8       1.0000 0.39120  0.93970  0.52570  Biso   1.000  C
  C9       1.0000 0.07640  0.40290  0.44090  Biso   1.000  C
  C10      1.0000 0.40330  0.00050  0.20510  Biso   1.000  C
  H1       1.0000 0.41100  0.07120  0.26370  Biso   1.000  H
  C11      1.0000 0.27690  0.88310  0.55250  Biso   1.000  C
  H2       1.0000 0.27920  0.80400  0.55920  Biso   1.000  H
  C12      1.0000 0.14950  0.30280  0.38130  Biso   1.000  C
  H3       1.0000 0.23460  0.29900  0.40010  Biso   1.000  H
  C13      1.0000 0.34860  0.89680  0.21870  Biso   1.000  C
  H4       1.0000 0.31350  0.89930  0.28450  Biso   1.000  H
  C14      1.0000 0.16550  0.94170  0.56850  Biso   1.000  C
  H5       1.0000 0.09180  0.90140  0.58320  Biso   1.000  H
  C15      1.0000 0.09540  0.21220  0.29650  Biso   1.000  C
  H6       1.0000 0.14360  0.14670  0.25820  Biso   1.000  H
  C16      1.0000 0.34390  0.78310  0.13360  Biso   1.000  C
  H7       1.0000 0.30910  0.71110  0.14400  Biso   1.000  H
  C17      1.0000 0.16040  0.06270  0.56310  Biso   1.000  C
  H8       1.0000 0.08320  0.10200  0.57370  Biso   1.000  H
  C18      1.0000 0.96650  0.21810  0.26710  Biso   1.000  C
  H9       1.0000 0.93130  0.15730  0.20820  Biso   1.000  H
  C19      1.0000 0.39190  0.78270  0.03620  Biso   1.000  C
  H10      1.0000 0.38830  0.70850  0.98100  Biso   1.000  H
  C20      1.0000 0.26740  0.12350  0.54270  Biso   1.000  C
  H11      1.0000 0.26310  0.20510  0.54270  Biso   1.000  H
  C21      1.0000 0.89310  0.31080  0.32310  Biso   1.000  C
  H12      1.0000 0.80770  0.31140  0.30370  Biso   1.000  H
  C22      1.0000 0.44750  0.89050  0.01450  Biso   1.000  C
  C23      1.0000 0.38630  0.06400  0.52130  Biso   1.000  C
  C24      1.0000 0.94610  0.40770  0.41190  Biso   1.000  C
  O1       1.0000 0.39090  0.28100  0.19510  Biso   1.000  O
  O2       1.0000 0.49290  0.66700  0.41590  Biso   1.000  O
  O3       1.0000 0.35740  0.50530  0.50210  Biso   1.000  O
  O4       1.0000 0.59850  0.28330  0.21720  Biso   1.000  O
  O5       1.0000 0.52770  0.72420  0.59280  Biso   1.000  O
  O6       1.0000 0.28870  0.48380  0.65240  Biso   1.000  O
  Nd2      1.0000 0.51932  0.54658  0.66054  Biso   1.000  Nd
  C25      1.0000 0.50130  0.76650  0.82940  Biso   1.000  C
  C26      1.0000 0.49110  0.25380  0.49280  Biso   1.000  C
  C27      1.0000 0.73320  0.50870  0.43880  Biso   1.000  C
  C28      1.0000 0.50020  0.88460  0.91390  Biso   1.000  C
  C29      1.0000 0.49360  0.12010  0.49310  Biso   1.000  C
  C30      1.0000 0.87120  0.50340  0.47160  Biso   1.000  C
  C31      1.0000 0.54860  0.99400  0.89900  Biso   1.000  C
  C32      1.0000 0.60880  0.06030  0.47430  Biso   1.000  C
  C33      1.0000 0.92360  0.59710  0.55910  Biso   1.000  C
  C34      1.0000 0.59670  0.99950  0.79490  Biso   1.000  C
  H13      1.0000 0.58900  0.92880  0.73630  Biso   1.000  H
  C35      1.0000 0.72310  0.11690  0.44750  Biso   1.000  C
  H14      1.0000 0.72080  0.19600  0.44080  Biso   1.000  H
  C36      1.0000 0.85050  0.69720  0.61870  Biso   1.000  C
  H15      1.0000 0.76540  0.70100  0.59990  Biso   1.000  H
  C37      1.0000 0.65140  0.10320  0.78130  Biso   1.000  C
  H16      1.0000 0.68650  0.10070  0.71550  Biso   1.000  H
  C38      1.0000 0.83450  0.05830  0.43150  Biso   1.000  C
  H17      1.0000 0.90820  0.09860  0.41680  Biso   1.000  H
  C39      1.0000 0.90460  0.78780  0.70350  Biso   1.000  C
  H18      1.0000 0.85640  0.85330  0.74180  Biso   1.000  H
  C40      1.0000 0.65610  0.21690  0.86640  Biso   1.000  C
  H19      1.0000 0.69090  0.28890  0.85600  Biso   1.000  H
  C41      1.0000 0.83960  0.93730  0.43690  Biso   1.000  C
  H20      1.0000 0.91680  0.89800  0.42630  Biso   1.000  H
  C42      1.0000 0.03350  0.78190  0.73290  Biso   1.000  C
  H21      1.0000 0.06870  0.84270  0.79180  Biso   1.000  H
  C43      1.0000 0.60810  0.21730  0.96380  Biso   1.000  C
  H22      1.0000 0.61170  0.29150  0.01900  Biso   1.000  H
  C44      1.0000 0.73260  0.87650  0.45730  Biso   1.000  C
  H23      1.0000 0.73690  0.79490  0.45730  Biso   1.000  H
  C45      1.0000 0.10690  0.68920  0.67690  Biso   1.000  C
  H24      1.0000 0.19230  0.68860  0.69630  Biso   1.000  H
  C46      1.0000 0.55250  0.10950  0.98550  Biso   1.000  C
  C47      1.0000 0.61370  0.93600  0.47870  Biso   1.000  C
  C48      1.0000 0.05390  0.59230  0.58810  Biso   1.000  C
  O7       1.0000 0.60910  0.71900  0.80490  Biso   1.000  O
  O8       1.0000 0.50710  0.33300  0.58410  Biso   1.000  O
  O9       1.0000 0.64260  0.49470  0.49790  Biso   1.000  O
  O10      1.0000 0.40150  0.71670  0.78280  Biso   1.000  O
  O11      1.0000 0.47230  0.27580  0.40720  Biso   1.000  O
  O12      1.0000 0.71130  0.51620  0.34760  Biso   1.000  O
