data_image0
_cell_length_a       10.3541
_cell_length_b       11.368
_cell_length_c       12.916
_cell_angle_alpha    72.859
_cell_angle_beta     90.028
_cell_angle_gamma    87.232

_symmetry_space_group_name_H-M    "P 1"
_symmetry_int_tables_number       1

loop_
  _symmetry_equiv_pos_as_xyz
  'x, y, z'

loop_
  _atom_site_label
  _atom_site_occupancy
  _atom_site_fract_x
  _atom_site_fract_y
  _atom_site_fract_z
  _atom_site_thermal_displace_type
  _atom_site_B_iso_or_equiv
  _atom_site_type_symbol
  Gd1      1.0000 0.47833  0.04611  0.33838  Biso   1.000  Gd
  C1       1.0000 0.49460  0.26620  0.16770  Biso   1.000  C
  C2       1.0000 0.51050  0.75370  0.50460  Biso   1.000  C
  C3       1.0000 0.26580  0.00970  0.56410  Biso   1.000  C
  C4       1.0000 0.49830  0.38480  0.08430  Biso   1.000  C
  C5       1.0000 0.50560  0.62120  0.50530  Biso   1.000  C
  C6       1.0000 0.12950  0.00480  0.53130  Biso   1.000  C
  C7       1.0000 0.44860  0.49410  0.10300  Biso   1.000  C
  C8       1.0000 0.39010  0.56190  0.52760  Biso   1.000  C
  C9       1.0000 0.07620  0.09710  0.44180  Biso   1.000  C
  C10      1.0000 0.39770  0.49680  0.20550  Biso   1.000  C
  H1       1.0000 0.39840  0.42390  0.26220  Biso   1.000  H
  C11      1.0000 0.27520  0.62120  0.55280  Biso   1.000  C
  H2       1.0000 0.27750  0.70140  0.55690  Biso   1.000  H
  C12      1.0000 0.14930  0.19820  0.38090  Biso   1.000  C
  H3       1.0000 0.23460  0.20320  0.40130  Biso   1.000  H
  C13      1.0000 0.34950  0.60040  0.22220  Biso   1.000  C
  H4       1.0000 0.31850  0.59890  0.29010  Biso   1.000  H
  C14      1.0000 0.16440  0.56390  0.57070  Biso   1.000  C
  H5       1.0000 0.09030  0.60510  0.58590  Biso   1.000  H
  C15      1.0000 0.09670  0.28650  0.29440  Biso   1.000  C
  H6       1.0000 0.14530  0.35170  0.25660  Biso   1.000  H
  C16      1.0000 0.34500  0.71300  0.13710  Biso   1.000  C
  H7       1.0000 0.30990  0.78430  0.14970  Biso   1.000  H
  C17      1.0000 0.15850  0.44190  0.56690  Biso   1.000  C
  H8       1.0000 0.08020  0.40350  0.57890  Biso   1.000  H
  C18      1.0000 0.96830  0.27920  0.26220  Biso   1.000  C
  H9       1.0000 0.93390  0.33840  0.20120  Biso   1.000  H
  C19      1.0000 0.39090  0.71810  0.03800  Biso   1.000  C
  H10      1.0000 0.38670  0.79260  0.98310  Biso   1.000  H
  C20      1.0000 0.26490  0.37960  0.54600  Biso   1.000  C
  H11      1.0000 0.25990  0.29790  0.54690  Biso   1.000  H
  C21      1.0000 0.89380  0.18780  0.31800  Biso   1.000  C
  H12      1.0000 0.80830  0.18670  0.29630  Biso   1.000  H
  C22      1.0000 0.44620  0.60930  0.01710  Biso   1.000  C
  C23      1.0000 0.38450  0.43790  0.52260  Biso   1.000  C
  C24      1.0000 0.94490  0.09250  0.41050  Biso   1.000  C
  O1       1.0000 0.38650  0.21830  0.19070  Biso   1.000  O
  O2       1.0000 0.49120  0.83220  0.41360  Biso   1.000  O
  O3       1.0000 0.35860  0.99270  0.50620  Biso   1.000  O
  O4       1.0000 0.59660  0.21490  0.21630  Biso   1.000  O
  O5       1.0000 0.53280  0.77530  0.59250  Biso   1.000  O
  O6       1.0000 0.28670  0.02040  0.65610  Biso   1.000  O
  Gd2      1.0000 0.52167  0.95389  0.66162  Biso   1.000  Gd
  C25      1.0000 0.50540  0.73380  0.83230  Biso   1.000  C
  C26      1.0000 0.48950  0.24630  0.49540  Biso   1.000  C
  C27      1.0000 0.73420  0.99030  0.43590  Biso   1.000  C
  C28      1.0000 0.50170  0.61520  0.91570  Biso   1.000  C
  C29      1.0000 0.49440  0.37880  0.49470  Biso   1.000  C
  C30      1.0000 0.87050  0.99520  0.46870  Biso   1.000  C
  C31      1.0000 0.55140  0.50590  0.89700  Biso   1.000  C
  C32      1.0000 0.60990  0.43810  0.47240  Biso   1.000  C
  C33      1.0000 0.92380  0.90290  0.55820  Biso   1.000  C
  C34      1.0000 0.60230  0.50320  0.79450  Biso   1.000  C
  H13      1.0000 0.60160  0.57610  0.73780  Biso   1.000  H
  C35      1.0000 0.72480  0.37880  0.44720  Biso   1.000  C
  H14      1.0000 0.72250  0.29860  0.44310  Biso   1.000  H
  C36      1.0000 0.85070  0.80180  0.61910  Biso   1.000  C
  H15      1.0000 0.76540  0.79680  0.59870  Biso   1.000  H
  C37      1.0000 0.65050  0.39960  0.77780  Biso   1.000  C
  H16      1.0000 0.68150  0.40110  0.70990  Biso   1.000  H
  C38      1.0000 0.83560  0.43610  0.42930  Biso   1.000  C
  H17      1.0000 0.90970  0.39490  0.41410  Biso   1.000  H
  C39      1.0000 0.90330  0.71350  0.70560  Biso   1.000  C
  H18      1.0000 0.85470  0.64830  0.74340  Biso   1.000  H
  C40      1.0000 0.65500  0.28700  0.86290  Biso   1.000  C
  H19      1.0000 0.69010  0.21570  0.85030  Biso   1.000  H
  C41      1.0000 0.84150  0.55810  0.43310  Biso   1.000  C
  H20      1.0000 0.91980  0.59650  0.42110  Biso   1.000  H
  C42      1.0000 0.03170  0.72080  0.73780  Biso   1.000  C
  H21      1.0000 0.06610  0.66160  0.79880  Biso   1.000  H
  C43      1.0000 0.60910  0.28190  0.96200  Biso   1.000  C
  H22      1.0000 0.61330  0.20740  0.01690  Biso   1.000  H
  C44      1.0000 0.73510  0.62040  0.45400  Biso   1.000  C
  H23      1.0000 0.74010  0.70210  0.45310  Biso   1.000  H
  C45      1.0000 0.10620  0.81220  0.68200  Biso   1.000  C
  H24      1.0000 0.19170  0.81330  0.70370  Biso   1.000  H
  C46      1.0000 0.55380  0.39070  0.98290  Biso   1.000  C
  C47      1.0000 0.61550  0.56210  0.47740  Biso   1.000  C
  C48      1.0000 0.05510  0.90750  0.58950  Biso   1.000  C
  O7       1.0000 0.61350  0.78170  0.80930  Biso   1.000  O
  O8       1.0000 0.50880  0.16780  0.58640  Biso   1.000  O
  O9       1.0000 0.64140  0.00730  0.49380  Biso   1.000  O
  O10      1.0000 0.40340  0.78510  0.78370  Biso   1.000  O
  O11      1.0000 0.46720  0.22470  0.40750  Biso   1.000  O
  O12      1.0000 0.71330  0.97960  0.34390  Biso   1.000  O
