data_RUTBUE_clean
_audit_creation_date              2014-07-02
_audit_creation_method            'Materials Studio'
_symmetry_space_group_name_H-M    'P1'
_symmetry_Int_Tables_number       1
_symmetry_cell_setting            triclinic
loop_
_symmetry_equiv_pos_as_xyz
  x,y,z
_cell_length_a                    11.7090
_cell_length_b                    11.7960
_cell_length_c                    12.1900
_cell_angle_alpha                 76.1300
_cell_angle_beta                  88.9600
_cell_angle_gamma                 73.8000
loop_
_atom_site_label
_atom_site_type_symbol
_atom_site_fract_x
_atom_site_fract_y
_atom_site_fract_z
_atom_site_U_iso_or_equiv
_atom_site_adp_type
_atom_site_occupancy
Na1    Na    0.59730   0.09190   0.76980   0.01267  Uiso   1.00
Na2    Na    0.58350   0.07960   0.07030   0.01267  Uiso   1.00
Na3    Na    0.40270   0.90810   0.23020   0.01267  Uiso   1.00
Na4    Na    0.41650   0.92040   0.92970   0.01267  Uiso   1.00
Sn1    Sn    0.10538   0.41585   0.91053   0.01267  Uiso   1.00
Sn2    Sn    0.91301   0.44607   0.61811   0.01267  Uiso   1.00
Sn3    Sn    0.89462   0.58415   0.08947   0.01267  Uiso   1.00
Sn4    Sn    0.08699   0.55393   0.38189   0.01267  Uiso   1.00
Te1    Te    0.93088   0.64306   0.86285   0.01267  Uiso   1.00
Te2    Te    0.02325   0.27097   0.80477   0.01267  Uiso   1.00
Te3    Te    0.96857   0.37054   0.42414   0.01267  Uiso   1.00
Te4    Te    0.06912   0.35694   0.13715   0.01267  Uiso   1.00
Te5    Te    0.97675   0.72903   0.19523   0.01267  Uiso   1.00
Te6    Te    0.03143   0.62946   0.57586   0.01267  Uiso   1.00
H1     H     0.31590   0.46360   0.89600   0.01267  Uiso   1.00
H2     H     0.25140   0.51750   0.77640   0.01267  Uiso   1.00
H3     H     0.41690   0.34130   0.78150   0.01267  Uiso   1.00
H4     H     0.29880   0.32770   0.73800   0.01267  Uiso   1.00
H5     H     0.68790   0.56490   0.57290   0.01267  Uiso   1.00
H6     H     0.73470   0.61530   0.66440   0.01267  Uiso   1.00
H7     H     0.59890   0.50030   0.73700   0.01267  Uiso   1.00
H8     H     0.71960   0.45350   0.80650   0.01267  Uiso   1.00
H9     H     0.57730   0.74870   0.76420   0.01267  Uiso   1.00
H10    H     0.54540   0.87440   0.67470   0.01267  Uiso   1.00
H11    H     0.67880   0.80500   0.71300   0.01267  Uiso   1.00
H12    H     0.83810   0.11070   0.89490   0.01267  Uiso   1.00
H13    H     0.88450   0.00710   0.00490   0.01267  Uiso   1.00
H14    H     0.88960   0.97540   0.88680   0.01267  Uiso   1.00
H15    H     0.68410   0.53640   0.10400   0.01267  Uiso   1.00
H16    H     0.74860   0.48250   0.22360   0.01267  Uiso   1.00
H17    H     0.58310   0.65870   0.21850   0.01267  Uiso   1.00
H18    H     0.70120   0.67230   0.26200   0.01267  Uiso   1.00
H19    H     0.31210   0.43510   0.42710   0.01267  Uiso   1.00
H20    H     0.26530   0.38470   0.33560   0.01267  Uiso   1.00
H21    H     0.40110   0.49970   0.26300   0.01267  Uiso   1.00
H22    H     0.28040   0.54650   0.19350   0.01267  Uiso   1.00
H23    H     0.42270   0.25130   0.23580   0.01267  Uiso   1.00
H24    H     0.45460   0.12560   0.32530   0.01267  Uiso   1.00
H25    H     0.32120   0.19500   0.28700   0.01267  Uiso   1.00
H26    H     0.16190   0.88930   0.10510   0.01267  Uiso   1.00
H27    H     0.11550   0.99290   0.99510   0.01267  Uiso   1.00
H28    H     0.11040   0.02460   0.11320   0.01267  Uiso   1.00
C1     C     0.26960   0.44810   0.84010   0.01267  Uiso   1.00
C2     C     0.33950   0.33380   0.80300   0.01267  Uiso   1.00
C3     C     0.35380   0.21890   0.89590   0.01267  Uiso   1.00
C4     C     0.73520   0.54230   0.64240   0.01267  Uiso   1.00
C5     C     0.68230   0.46130   0.73460   0.01267  Uiso   1.00
C6     C     0.69760   0.33640   0.71650   0.01267  Uiso   1.00
C7     C     0.59870   0.82310   0.73720   0.01267  Uiso   1.00
C8     C     0.84470   0.02740   0.93170   0.01267  Uiso   1.00
C9     C     0.73040   0.55190   0.15990   0.01267  Uiso   1.00
C10    C     0.66050   0.66620   0.19700   0.01267  Uiso   1.00
C11    C     0.64620   0.78110   0.10410   0.01267  Uiso   1.00
C12    C     0.26480   0.45770   0.35760   0.01267  Uiso   1.00
C13    C     0.31770   0.53870   0.26540   0.01267  Uiso   1.00
C14    C     0.30240   0.66360   0.28350   0.01267  Uiso   1.00
C15    C     0.40130   0.17690   0.26280   0.01267  Uiso   1.00
C16    C     0.15530   0.97260   0.06830   0.01267  Uiso   1.00
O1     O     0.43850   0.12420   0.89390   0.01267  Uiso   1.00
O2     O     0.27700   0.21990   0.97160   0.01267  Uiso   1.00
O3     O     0.77590   0.29970   0.64820   0.01267  Uiso   1.00
O4     O     0.63720   0.27270   0.77070   0.01267  Uiso   1.00
O5     O     0.59060   0.88330   0.82470   0.01267  Uiso   1.00
O6     O     0.73150   0.01120   0.94400   0.01267  Uiso   1.00
O7     O     0.56150   0.87580   0.10610   0.01267  Uiso   1.00
O8     O     0.72300   0.78010   0.02840   0.01267  Uiso   1.00
O9     O     0.22410   0.70030   0.35180   0.01267  Uiso   1.00
O10    O     0.36280   0.72730   0.22930   0.01267  Uiso   1.00
O11    O     0.40940   0.11670   0.17530   0.01267  Uiso   1.00
O12    O     0.26850   0.98880   0.05600   0.01267  Uiso   1.00
