data_RUTNOK_clean5b
_audit_creation_date              2014-07-02
_audit_creation_method            'Materials Studio'
_symmetry_space_group_name_H-M    'P1'
_symmetry_Int_Tables_number       1
_symmetry_cell_setting            triclinic
loop_
_symmetry_equiv_pos_as_xyz
  x,y,z
_cell_length_a                    30.3522
_cell_length_b                    30.3522
_cell_length_c                    30.3522
_cell_angle_alpha                 60.0000
_cell_angle_beta                  60.0000
_cell_angle_gamma                 60.0000
loop_
_atom_site_label
_atom_site_type_symbol
_atom_site_fract_x
_atom_site_fract_y
_atom_site_fract_z
_atom_site_U_iso_or_equiv
_atom_site_adp_type
_atom_site_occupancy
Zn1    Zn    0.22383   0.32851   0.22383   0.01267  Uiso   1.00
Zn2    Zn    0.32851   0.22383   0.22383   0.01267  Uiso   1.00
Zn3    Zn    0.22383   0.22383   0.22383   0.01267  Uiso   1.00
Zn4    Zn    0.22383   0.22383   0.32851   0.01267  Uiso   1.00
Zn5    Zn    0.67149   0.77617   0.77617   0.01267  Uiso   1.00
Zn6    Zn    0.77617   0.67149   0.77617   0.01267  Uiso   1.00
Zn7    Zn    0.77617   0.77617   0.77617   0.01267  Uiso   1.00
Zn8    Zn    0.77617   0.77617   0.67149   0.01267  Uiso   1.00
H9     H     0.95863   0.39745   0.18012   0.01267  Uiso   1.00
H10    H     0.46439   0.95766   0.39746   0.01267  Uiso   1.00
H11    H     0.96682   0.17704   0.45791   0.01267  Uiso   1.00
H12    H     0.40802   0.43821   0.17108   0.01267  Uiso   1.00
H13    H     0.18131   0.39758   0.46564   0.01267  Uiso   1.00
H14    H     0.40159   0.97565   0.17372   0.01267  Uiso   1.00
H15    H     0.53942   0.79897   0.09700   0.01267  Uiso   1.00
H16    H     0.58548   0.52802   0.08183   0.01267  Uiso   1.00
H17    H     0.81057   0.06613   0.52712   0.01267  Uiso   1.00
H18    H     0.57677   0.80163   0.53168   0.01267  Uiso   1.00
H19    H     0.83000   0.56929   0.01445   0.01267  Uiso   1.00
H20    H     0.80290   0.52975   0.08654   0.01267  Uiso   1.00
H21    H     0.80967   0.59491   0.06854   0.01267  Uiso   1.00
H22    H     0.52749   0.81149   0.59733   0.01267  Uiso   1.00
H23    H     0.58970   0.82945   0.56494   0.01267  Uiso   1.00
H24    H     0.80225   0.08829   0.57881   0.01267  Uiso   1.00
H25    H     0.82975   0.01512   0.58803   0.01267  Uiso   1.00
H26    H     0.52681   0.59139   0.07429   0.01267  Uiso   1.00
H27    H     0.58166   0.57455   0.01340   0.01267  Uiso   1.00
H28    H     0.03530   0.54039   0.60215   0.01267  Uiso   1.00
H29    H     0.03440   0.60200   0.54110   0.01267  Uiso   1.00
H30    H     0.09983   0.55156   0.55070   0.01267  Uiso   1.00
H31    H     0.55278   0.82682   0.02291   0.01267  Uiso   1.00
H32    H     0.60176   0.81678   0.04962   0.01267  Uiso   1.00
H33    H     0.17451   0.45146   0.40047   0.01267  Uiso   1.00
H34    H     0.20162   0.45701   0.43994   0.01267  Uiso   1.00
H35    H     0.46715   0.95255   0.18241   0.01267  Uiso   1.00
H36    H     0.43731   0.90227   0.20130   0.01267  Uiso   1.00
H37    H     0.90021   0.20208   0.45045   0.01267  Uiso   1.00
H38    H     0.96344   0.17831   0.39769   0.01267  Uiso   1.00
H39    H     0.42626   0.46665   0.19919   0.01267  Uiso   1.00
H40    H     0.47176   0.40118   0.18717   0.01267  Uiso   1.00
H41    H     0.90077   0.45455   0.20187   0.01267  Uiso   1.00
H42    H     0.97108   0.45405   0.17544   0.01267  Uiso   1.00
H43    H     0.39973   0.97186   0.45326   0.01267  Uiso   1.00
H44    H     0.44193   0.90095   0.45532   0.01267  Uiso   1.00
H45    H     0.12795   0.30104   0.12795   0.01267  Uiso   1.00
H46    H     0.06913   0.36235   0.06913   0.01267  Uiso   1.00
H47    H     0.30104   0.12795   0.44306   0.01267  Uiso   1.00
H48    H     0.35791   0.07166   0.49877   0.01267  Uiso   1.00
H49    H     0.12795   0.44306   0.12795   0.01267  Uiso   1.00
H50    H     0.07166   0.49877   0.07166   0.01267  Uiso   1.00
H51    H     0.44306   0.12795   0.30104   0.01267  Uiso   1.00
H52    H     0.49877   0.07166   0.35791   0.01267  Uiso   1.00
H53    H     0.12795   0.12795   0.44306   0.01267  Uiso   1.00
H54    H     0.06913   0.06913   0.49939   0.01267  Uiso   1.00
H55    H     0.30104   0.44306   0.12795   0.01267  Uiso   1.00
H56    H     0.35791   0.49877   0.07166   0.01267  Uiso   1.00
H57    H     0.12795   0.12795   0.30104   0.01267  Uiso   1.00
H58    H     0.06913   0.06913   0.36235   0.01267  Uiso   1.00
H59    H     0.44306   0.30104   0.12795   0.01267  Uiso   1.00
H60    H     0.49877   0.35791   0.07166   0.01267  Uiso   1.00
H61    H     0.12795   0.44306   0.30104   0.01267  Uiso   1.00
H62    H     0.07166   0.49877   0.35791   0.01267  Uiso   1.00
H63    H     0.30104   0.12795   0.12795   0.01267  Uiso   1.00
H64    H     0.35791   0.07166   0.07166   0.01267  Uiso   1.00
H65    H     0.12795   0.30104   0.44306   0.01267  Uiso   1.00
H66    H     0.06913   0.36235   0.49939   0.01267  Uiso   1.00
H67    H     0.44306   0.12795   0.12795   0.01267  Uiso   1.00
H68    H     0.49877   0.07166   0.07166   0.01267  Uiso   1.00
H69    H     0.69896   0.87205   0.87205   0.01267  Uiso   1.00
H70    H     0.64209   0.92834   0.92834   0.01267  Uiso   1.00
H71    H     0.87205   0.69896   0.55694   0.01267  Uiso   1.00
H72    H     0.92834   0.64209   0.50123   0.01267  Uiso   1.00
H73    H     0.55694   0.87205   0.87205   0.01267  Uiso   1.00
H74    H     0.50061   0.93087   0.93087   0.01267  Uiso   1.00
H75    H     0.87205   0.55694   0.69896   0.01267  Uiso   1.00
H76    H     0.92834   0.50123   0.64209   0.01267  Uiso   1.00
H77    H     0.87205   0.87205   0.55694   0.01267  Uiso   1.00
H78    H     0.93087   0.93087   0.50061   0.01267  Uiso   1.00
H79    H     0.55694   0.69896   0.87205   0.01267  Uiso   1.00
H80    H     0.50123   0.64209   0.92834   0.01267  Uiso   1.00
H81    H     0.87205   0.87205   0.69896   0.01267  Uiso   1.00
H82    H     0.92834   0.92834   0.64209   0.01267  Uiso   1.00
H83    H     0.69896   0.55694   0.87205   0.01267  Uiso   1.00
H84    H     0.64209   0.50123   0.92834   0.01267  Uiso   1.00
H85    H     0.55694   0.87205   0.69896   0.01267  Uiso   1.00
H86    H     0.50123   0.92834   0.64209   0.01267  Uiso   1.00
H87    H     0.87205   0.69896   0.87205   0.01267  Uiso   1.00
H88    H     0.92834   0.64209   0.92834   0.01267  Uiso   1.00
H89    H     0.69896   0.87205   0.55694   0.01267  Uiso   1.00
H90    H     0.64209   0.92834   0.50123   0.01267  Uiso   1.00
H91    H     0.87205   0.55694   0.87205   0.01267  Uiso   1.00
H92    H     0.93087   0.50061   0.93087   0.01267  Uiso   1.00
H93    H     0.85007   0.49666   0.15660   0.01267  Uiso   1.00
H94    H     0.49666   0.85007   0.49666   0.01267  Uiso   1.00
H95    H     0.85007   0.15660   0.49666   0.01267  Uiso   1.00
H96    H     0.49666   0.49666   0.15660   0.01267  Uiso   1.00
H97    H     0.15660   0.49666   0.49666   0.01267  Uiso   1.00
H98    H     0.49666   0.85007   0.15660   0.01267  Uiso   1.00
C99    C     0.16630   0.33370   0.16630   0.01267  Uiso   1.00
C100   C     0.13360   0.36640   0.13360   0.01267  Uiso   1.00
C101   C     0.06490   0.43510   0.06490   0.01267  Uiso   1.00
C102   C     0.03280   0.46720   0.03280   0.01267  Uiso   1.00
C103   C     0.33370   0.16630   0.33370   0.01267  Uiso   1.00
C104   C     0.36640   0.13360   0.36640   0.01267  Uiso   1.00
C105   C     0.43510   0.06490   0.43510   0.01267  Uiso   1.00
C106   C     0.46720   0.03280   0.46720   0.01267  Uiso   1.00
C107   C     0.16630   0.16630   0.33370   0.01267  Uiso   1.00
C108   C     0.13360   0.13360   0.36640   0.01267  Uiso   1.00
C109   C     0.06490   0.06490   0.43510   0.01267  Uiso   1.00
C110   C     0.03280   0.03280   0.46720   0.01267  Uiso   1.00
C111   C     0.33370   0.33370   0.16630   0.01267  Uiso   1.00
C112   C     0.36640   0.36640   0.13360   0.01267  Uiso   1.00
C113   C     0.43510   0.43510   0.06490   0.01267  Uiso   1.00
C114   C     0.46720   0.46720   0.03280   0.01267  Uiso   1.00
C115   C     0.16630   0.33370   0.33370   0.01267  Uiso   1.00
C116   C     0.13360   0.36640   0.36640   0.01267  Uiso   1.00
C117   C     0.06490   0.43510   0.43510   0.01267  Uiso   1.00
C118   C     0.03280   0.46720   0.46720   0.01267  Uiso   1.00
C119   C     0.33370   0.16630   0.16630   0.01267  Uiso   1.00
C120   C     0.36640   0.13360   0.13360   0.01267  Uiso   1.00
C121   C     0.43510   0.06490   0.06490   0.01267  Uiso   1.00
C122   C     0.46720   0.03280   0.03280   0.01267  Uiso   1.00
C123   C     0.66630   0.83370   0.83370   0.01267  Uiso   1.00
C124   C     0.63360   0.86640   0.86640   0.01267  Uiso   1.00
C125   C     0.56490   0.93510   0.93510   0.01267  Uiso   1.00
C126   C     0.53280   0.96720   0.96720   0.01267  Uiso   1.00
C127   C     0.83370   0.66630   0.66630   0.01267  Uiso   1.00
C128   C     0.86640   0.63360   0.63360   0.01267  Uiso   1.00
C129   C     0.93510   0.56490   0.56490   0.01267  Uiso   1.00
C130   C     0.96720   0.53280   0.53280   0.01267  Uiso   1.00
C131   C     0.83370   0.83370   0.66630   0.01267  Uiso   1.00
C132   C     0.86640   0.86640   0.63360   0.01267  Uiso   1.00
C133   C     0.93510   0.93510   0.56490   0.01267  Uiso   1.00
C134   C     0.96720   0.96720   0.53280   0.01267  Uiso   1.00
C135   C     0.66630   0.66630   0.83370   0.01267  Uiso   1.00
C136   C     0.63360   0.63360   0.86640   0.01267  Uiso   1.00
C137   C     0.56490   0.56490   0.93510   0.01267  Uiso   1.00
C138   C     0.53280   0.53280   0.96720   0.01267  Uiso   1.00
C139   C     0.66630   0.83370   0.66630   0.01267  Uiso   1.00
C140   C     0.63360   0.86640   0.63360   0.01267  Uiso   1.00
C141   C     0.56490   0.93510   0.56490   0.01267  Uiso   1.00
C142   C     0.53280   0.96720   0.53280   0.01267  Uiso   1.00
C143   C     0.83370   0.66630   0.83370   0.01267  Uiso   1.00
C144   C     0.86640   0.63360   0.86640   0.01267  Uiso   1.00
C145   C     0.93510   0.56490   0.93510   0.01267  Uiso   1.00
C146   C     0.96720   0.53280   0.96720   0.01267  Uiso   1.00
C147   C     0.11610   0.34650   0.11610   0.01267  Uiso   1.00
C148   C     0.08290   0.38070   0.08290   0.01267  Uiso   1.00
C149   C     0.34650   0.11610   0.42130   0.01267  Uiso   1.00
C150   C     0.38070   0.08290   0.45350   0.01267  Uiso   1.00
C151   C     0.11610   0.42130   0.11610   0.01267  Uiso   1.00
C152   C     0.08290   0.45350   0.08290   0.01267  Uiso   1.00
C153   C     0.42130   0.11610   0.34650   0.01267  Uiso   1.00
C154   C     0.45350   0.08290   0.38070   0.01267  Uiso   1.00
C155   C     0.11610   0.11610   0.42130   0.01267  Uiso   1.00
C156   C     0.08290   0.08290   0.45350   0.01267  Uiso   1.00
C157   C     0.34650   0.42130   0.11610   0.01267  Uiso   1.00
C158   C     0.38070   0.45350   0.08290   0.01267  Uiso   1.00
C159   C     0.11610   0.11610   0.34650   0.01267  Uiso   1.00
C160   C     0.08290   0.08290   0.38070   0.01267  Uiso   1.00
C161   C     0.42130   0.34650   0.11610   0.01267  Uiso   1.00
C162   C     0.45350   0.38070   0.08290   0.01267  Uiso   1.00
C163   C     0.11610   0.42130   0.34650   0.01267  Uiso   1.00
C164   C     0.08290   0.45350   0.38070   0.01267  Uiso   1.00
C165   C     0.34650   0.11610   0.11610   0.01267  Uiso   1.00
C166   C     0.38070   0.08290   0.08290   0.01267  Uiso   1.00
C167   C     0.11610   0.34650   0.42130   0.01267  Uiso   1.00
C168   C     0.08290   0.38070   0.45350   0.01267  Uiso   1.00
C169   C     0.42130   0.11610   0.11610   0.01267  Uiso   1.00
C170   C     0.45350   0.08290   0.08290   0.01267  Uiso   1.00
C171   C     0.65350   0.88390   0.88390   0.01267  Uiso   1.00
C172   C     0.61930   0.91710   0.91710   0.01267  Uiso   1.00
C173   C     0.88390   0.65350   0.57870   0.01267  Uiso   1.00
C174   C     0.91710   0.61930   0.54650   0.01267  Uiso   1.00
C175   C     0.57870   0.88390   0.88390   0.01267  Uiso   1.00
C176   C     0.54650   0.91710   0.91710   0.01267  Uiso   1.00
C177   C     0.88390   0.57870   0.65350   0.01267  Uiso   1.00
C178   C     0.91710   0.54650   0.61930   0.01267  Uiso   1.00
C179   C     0.88390   0.88390   0.57870   0.01267  Uiso   1.00
C180   C     0.91710   0.91710   0.54650   0.01267  Uiso   1.00
C181   C     0.57870   0.65350   0.88390   0.01267  Uiso   1.00
C182   C     0.54650   0.61930   0.91710   0.01267  Uiso   1.00
C183   C     0.88390   0.88390   0.65350   0.01267  Uiso   1.00
C184   C     0.91710   0.91710   0.61930   0.01267  Uiso   1.00
C185   C     0.65350   0.57870   0.88390   0.01267  Uiso   1.00
C186   C     0.61930   0.54650   0.91710   0.01267  Uiso   1.00
C187   C     0.57870   0.88390   0.65350   0.01267  Uiso   1.00
C188   C     0.54650   0.91710   0.61930   0.01267  Uiso   1.00
C189   C     0.88390   0.65350   0.88390   0.01267  Uiso   1.00
C190   C     0.91710   0.61930   0.91710   0.01267  Uiso   1.00
C191   C     0.65350   0.88390   0.57870   0.01267  Uiso   1.00
C192   C     0.61930   0.91710   0.54650   0.01267  Uiso   1.00
C193   C     0.88390   0.57870   0.88390   0.01267  Uiso   1.00
C194   C     0.91710   0.54650   0.91710   0.01267  Uiso   1.00
C195   C     0.05540   0.48340   0.97780   0.01267  Uiso   1.00
C196   C     0.48340   0.05540   0.48340   0.01267  Uiso   1.00
C197   C     0.97780   0.48340   0.05540   0.01267  Uiso   1.00
C198   C     0.94280   0.44280   0.17160   0.01267  Uiso   1.00
C199   C     0.48340   0.97780   0.48340   0.01267  Uiso   1.00
C200   C     0.44280   0.94280   0.44280   0.01267  Uiso   1.00
C201   C     0.05540   0.97780   0.48340   0.01267  Uiso   1.00
C202   C     0.48340   0.48340   0.97780   0.01267  Uiso   1.00
C203   C     0.97780   0.05540   0.48340   0.01267  Uiso   1.00
C204   C     0.94280   0.17160   0.44280   0.01267  Uiso   1.00
C205   C     0.48340   0.48340   0.05540   0.01267  Uiso   1.00
C206   C     0.44280   0.44280   0.17160   0.01267  Uiso   1.00
C207   C     0.05540   0.48340   0.48340   0.01267  Uiso   1.00
C208   C     0.17160   0.44280   0.44280   0.01267  Uiso   1.00
C209   C     0.48340   0.97780   0.05540   0.01267  Uiso   1.00
C210   C     0.44280   0.94280   0.17160   0.01267  Uiso   1.00
C211   C     0.97780   0.48340   0.48340   0.01267  Uiso   1.00
C212   C     0.48340   0.05540   0.97780   0.01267  Uiso   1.00
C213   C     0.51660   0.94460   0.02220   0.01267  Uiso   1.00
C214   C     0.55720   0.82840   0.05720   0.01267  Uiso   1.00
C215   C     0.94460   0.51660   0.51660   0.01267  Uiso   1.00
C216   C     0.51660   0.02220   0.94460   0.01267  Uiso   1.00
C217   C     0.02220   0.51660   0.51660   0.01267  Uiso   1.00
C218   C     0.05720   0.55720   0.55720   0.01267  Uiso   1.00
C219   C     0.02220   0.94460   0.51660   0.01267  Uiso   1.00
C220   C     0.51660   0.51660   0.02220   0.01267  Uiso   1.00
C221   C     0.55720   0.55720   0.05720   0.01267  Uiso   1.00
C222   C     0.94460   0.02220   0.51660   0.01267  Uiso   1.00
C223   C     0.82840   0.05720   0.55720   0.01267  Uiso   1.00
C224   C     0.51660   0.51660   0.94460   0.01267  Uiso   1.00
C225   C     0.51660   0.94460   0.51660   0.01267  Uiso   1.00
C226   C     0.55720   0.82840   0.55720   0.01267  Uiso   1.00
C227   C     0.02220   0.51660   0.94460   0.01267  Uiso   1.00
C228   C     0.51660   0.02220   0.51660   0.01267  Uiso   1.00
C229   C     0.94460   0.51660   0.02220   0.01267  Uiso   1.00
C230   C     0.82840   0.55720   0.05720   0.01267  Uiso   1.00
C231   C     0.88400   0.50000   0.11600   0.01267  Uiso   1.00
C232   C     0.50000   0.88400   0.50000   0.01267  Uiso   1.00
C233   C     0.88400   0.11600   0.50000   0.01267  Uiso   1.00
C234   C     0.50000   0.50000   0.11600   0.01267  Uiso   1.00
C235   C     0.11600   0.50000   0.50000   0.01267  Uiso   1.00
C236   C     0.50000   0.88400   0.11600   0.01267  Uiso   1.00
N237   N     0.94000   0.47300   0.11400   0.01267  Uiso   1.00
N238   N     0.47300   0.94000   0.47300   0.01267  Uiso   1.00
N239   N     0.94000   0.11400   0.47300   0.01267  Uiso   1.00
N240   N     0.47300   0.47300   0.11400   0.01267  Uiso   1.00
N241   N     0.11400   0.47300   0.47300   0.01267  Uiso   1.00
N242   N     0.47300   0.94000   0.11400   0.01267  Uiso   1.00
N243   N     0.52700   0.88600   0.06000   0.01267  Uiso   1.00
N244   N     0.06000   0.52700   0.52700   0.01267  Uiso   1.00
N245   N     0.52700   0.52700   0.06000   0.01267  Uiso   1.00
N246   N     0.88600   0.06000   0.52700   0.01267  Uiso   1.00
N247   N     0.52700   0.88600   0.52700   0.01267  Uiso   1.00
N248   N     0.88600   0.52700   0.06000   0.01267  Uiso   1.00
O249   O     0.18080   0.35740   0.18080   0.01267  Uiso   1.00
O250   O     0.35740   0.18080   0.28100   0.01267  Uiso   1.00
O251   O     0.18080   0.28100   0.18080   0.01267  Uiso   1.00
O252   O     0.28100   0.18080   0.35740   0.01267  Uiso   1.00
O253   O     0.18080   0.18080   0.28100   0.01267  Uiso   1.00
O254   O     0.35740   0.28100   0.18080   0.01267  Uiso   1.00
O255   O     0.18080   0.18080   0.35740   0.01267  Uiso   1.00
O256   O     0.28100   0.35740   0.18080   0.01267  Uiso   1.00
O257   O     0.18080   0.28100   0.35740   0.01267  Uiso   1.00
O258   O     0.35740   0.18080   0.18080   0.01267  Uiso   1.00
O259   O     0.18080   0.35740   0.28100   0.01267  Uiso   1.00
O260   O     0.28100   0.18080   0.18080   0.01267  Uiso   1.00
O261   O     0.64260   0.81920   0.81920   0.01267  Uiso   1.00
O262   O     0.81920   0.64260   0.71900   0.01267  Uiso   1.00
O263   O     0.71900   0.81920   0.81920   0.01267  Uiso   1.00
O264   O     0.81920   0.71900   0.64260   0.01267  Uiso   1.00
O265   O     0.81920   0.81920   0.71900   0.01267  Uiso   1.00
O266   O     0.71900   0.64260   0.81920   0.01267  Uiso   1.00
O267   O     0.81920   0.81920   0.64260   0.01267  Uiso   1.00
O268   O     0.64260   0.71900   0.81920   0.01267  Uiso   1.00
O269   O     0.71900   0.81920   0.64260   0.01267  Uiso   1.00
O270   O     0.81920   0.64260   0.81920   0.01267  Uiso   1.00
O271   O     0.64260   0.81920   0.71900   0.01267  Uiso   1.00
O272   O     0.81920   0.71900   0.81920   0.01267  Uiso   1.00
O273   O     0.25000   0.25000   0.25000   0.01267  Uiso   1.00
O274   O     0.75000   0.75000   0.75000   0.01267  Uiso   1.00
H275   H     0.10116   0.47035   0.95814   0.00000  Uiso   1.00
H276   H     0.47035   0.10116   0.47035   0.00000  Uiso   1.00
H277   H     0.10116   0.95814   0.47035   0.00000  Uiso   1.00
H278   H     0.47035   0.47035   0.95814   0.00000  Uiso   1.00
H279   H     0.95814   0.47035   0.47035   0.00000  Uiso   1.00
H280   H     0.47035   0.10116   0.95814   0.00000  Uiso   1.00
H281   H     0.89879   0.52988   0.52988   0.00000  Uiso   1.00
H282   H     0.52965   0.04186   0.89884   0.00000  Uiso   1.00
H283   H     0.04145   0.89879   0.52988   0.00000  Uiso   1.00
H284   H     0.52988   0.52988   0.89879   0.00000  Uiso   1.00
H285   H     0.04145   0.52988   0.89879   0.00000  Uiso   1.00
H286   H     0.52965   0.04186   0.52965   0.00000  Uiso   1.00
loop_
_geom_bond_atom_site_label_1
_geom_bond_atom_site_label_2
_geom_bond_distance
_geom_bond_site_symmetry_2
_ccdc_geom_bond_type
Zn1    O249    1.896   .     S
Zn1    O256    1.896   .     S
Zn1    O259    1.896   .     S
Zn1    O273    1.946   .     S
Zn2    O250    1.896   .     S
Zn2    O254    1.896   .     S
Zn2    O258    1.896   .     S
Zn2    O273    1.946   .     S
Zn3    O251    1.896   .     S
Zn3    O253    1.896   .     S
Zn3    O260    1.896   .     S
Zn3    O273    1.946   .     S
Zn4    O252    1.896   .     S
Zn4    O255    1.896   .     S
Zn4    O257    1.896   .     S
Zn4    O273    1.946   .     S
Zn5    O261    1.896   .     S
Zn5    O268    1.896   .     S
Zn5    O271    1.896   .     S
Zn5    O274    1.946   .     S
Zn6    O262    1.896   .     S
Zn6    O266    1.896   .     S
Zn6    O270    1.896   .     S
Zn6    O274    1.946   .     S
Zn7    O263    1.896   .     S
Zn7    O265    1.896   .     S
Zn7    O272    1.896   .     S
Zn7    O274    1.946   .     S
Zn8    O264    1.896   .     S
Zn8    O267    1.896   .     S
Zn8    O269    1.896   .     S
Zn8    O274    1.946   .     S
H9     C198    1.140   .     S
H10    C200    1.140   .     S
H11    C204    1.140   .     S
H12    C206    1.140   .     S
H13    C208    1.140   .     S
H14    C210    1.140   .     S
H15    C214    1.140   .     S
H16    C221    1.140   .     S
H17    C223    1.140   .     S
H18    C226    1.140   .     S
H19    C230    1.140   .     S
H20    C230    1.140   .     S
H21    C230    1.140   .     S
H22    C226    1.140   .     S
H23    C226    1.140   .     S
H24    C223    1.140   .     S
H25    C223    1.140   .     S
H26    C221    1.140   .     S
H27    C221    1.140   .     S
H28    C218    1.140   .     S
H29    C218    1.140   .     S
H30    C218    1.140   .     S
H31    C214    1.140   .     S
H32    C214    1.140   .     S
H33    C208    1.140   .     S
H34    C208    1.140   .     S
H35    C210    1.140   .     S
H36    C210    1.140   .     S
H37    C204    1.140   .     S
H38    C204    1.140   .     S
H39    C206    1.140   .     S
H40    C206    1.140   .     S
H41    C198    1.140   .     S
H42    C198    1.140   .     S
H43    C200    1.140   .     S
H44    C200    1.140   .     S
H45    C147    1.140   .     S
H46    C148    1.140   .     S
H47    C149    1.140   .     S
H48    C150    1.140   .     S
H49    C151    1.140   .     S
H50    C152    1.140   .     S
H51    C153    1.140   .     S
H52    C154    1.140   .     S
H53    C155    1.140   .     S
H54    C156    1.140   .     S
H55    C157    1.140   .     S
H56    C158    1.140   .     S
H57    C159    1.140   .     S
H58    C160    1.140   .     S
H59    C161    1.140   .     S
H60    C162    1.140   .     S
H61    C163    1.140   .     S
H62    C164    1.140   .     S
H63    C165    1.140   .     S
H64    C166    1.140   .     S
H65    C167    1.140   .     S
H66    C168    1.140   .     S
H67    C169    1.140   .     S
H68    C170    1.140   .     S
H69    C171    1.140   .     S
H70    C172    1.140   .     S
H71    C173    1.140   .     S
H72    C174    1.140   .     S
H73    C175    1.140   .     S
H74    C176    1.140   .     S
H75    C177    1.140   .     S
H76    C178    1.140   .     S
H77    C179    1.140   .     S
H78    C180    1.140   .     S
H79    C181    1.140   .     S
H80    C182    1.140   .     S
H81    C183    1.140   .     S
H82    C184    1.140   .     S
H83    C185    1.140   .     S
H84    C186    1.140   .     S
H85    C187    1.140   .     S
H86    C188    1.140   .     S
H87    C189    1.140   .     S
H88    C190    1.140   .     S
H89    C191    1.140   .     S
H90    C192    1.140   .     S
H91    C193    1.140   .     S
H92    C194    1.140   .     S
H93    C231    1.140   .     S
H94    C232    1.140   .     S
H95    C233    1.140   .     S
H96    C234    1.140   .     S
H97    C235    1.140   .     S
H98    C236    1.140   .     S
C99    C100    1.404   .     S
C99    O249    1.316   .     A
C99    O251    1.316   .     A
C100   C147    1.361   .     A
C100   C151    1.361   .     A
C101   C102    1.378   .     S
C101   C148    1.348   .     A
C101   C152    1.348   .     A
C102   C195    1.368   1_554 S
C102   C197    1.368   1_455 S
C103   C104    1.404   .     S
C103   O250    1.316   .     A
C103   O252    1.316   .     A
C104   C149    1.361   .     A
C104   C153    1.361   .     A
C105   C106    1.378   .     S
C105   C150    1.348   .     A
C105   C154    1.348   .     A
C106   C196    1.368   .     A
C106   C199    1.368   1_545 S
C107   C108    1.404   .     S
C107   O253    1.316   .     A
C107   O255    1.316   .     A
C108   C155    1.361   .     A
C108   C159    1.361   .     A
C109   C110    1.378   .     S
C109   C156    1.348   .     A
C109   C160    1.348   .     A
C110   C201    1.368   1_545 S
C110   C203    1.368   1_455 S
C111   C112    1.404   .     S
C111   O254    1.316   .     A
C111   O256    1.316   .     A
C112   C157    1.361   .     A
C112   C161    1.361   .     A
C113   C114    1.378   .     S
C113   C158    1.348   .     A
C113   C162    1.348   .     A
C114   C205    1.368   .     A
C114   C202    1.368   1_554 S
C115   C116    1.404   .     S
C115   O257    1.316   .     A
C115   O259    1.316   .     A
C116   C163    1.361   .     A
C116   C167    1.361   .     A
C117   C118    1.378   .     S
C117   C164    1.348   .     A
C117   C168    1.348   .     A
C118   C207    1.368   .     A
C118   C211    1.368   1_455 S
C119   C120    1.404   .     S
C119   O258    1.316   .     A
C119   O260    1.316   .     A
C120   C165    1.361   .     A
C120   C169    1.361   .     A
C121   C122    1.378   .     S
C121   C166    1.348   .     A
C121   C170    1.348   .     A
C122   C209    1.368   1_545 S
C122   C212    1.368   1_554 S
C123   C124    1.404   .     S
C123   O261    1.316   .     A
C123   O263    1.316   .     A
C124   C171    1.361   .     A
C124   C175    1.361   .     A
C125   C126    1.378   .     S
C125   C172    1.348   .     A
C125   C176    1.348   .     A
C126   C213    1.368   1_556 S
C126   C216    1.368   1_565 S
C127   C128    1.404   .     S
C127   O262    1.316   .     A
C127   O264    1.316   .     A
C128   C173    1.361   .     A
C128   C177    1.361   .     A
C129   C130    1.378   .     S
C129   C174    1.348   .     A
C129   C178    1.348   .     A
C130   C215    1.368   .     A
C130   C217    1.368   1_655 S
C131   C132    1.404   .     S
C131   O265    1.316   .     A
C131   O267    1.316   .     A
C132   C179    1.361   .     A
C132   C183    1.361   .     A
C133   C134    1.378   .     S
C133   C180    1.348   .     A
C133   C184    1.348   .     A
C134   C219    1.368   1_655 S
C134   C222    1.368   1_565 S
C135   C136    1.404   .     S
C135   O266    1.316   .     A
C135   O268    1.316   .     A
C136   C181    1.361   .     A
C136   C185    1.361   .     A
C137   C138    1.378   .     S
C137   C182    1.348   .     A
C137   C186    1.348   .     A
C138   C224    1.368   .     A
C138   C220    1.368   1_556 S
C139   C140    1.404   .     S
C139   O269    1.316   .     A
C139   O271    1.316   .     A
C140   C187    1.361   .     A
C140   C191    1.361   .     A
C141   C142    1.378   .     S
C141   C188    1.348   .     A
C141   C192    1.348   .     A
C142   C225    1.368   .     A
C142   C228    1.368   1_565 S
C143   C144    1.404   .     S
C143   O270    1.316   .     A
C143   O272    1.316   .     A
C144   C189    1.361   .     A
C144   C193    1.361   .     A
C145   C146    1.378   .     S
C145   C190    1.348   .     A
C145   C194    1.348   .     A
C146   C227    1.368   1_655 S
C146   C229    1.368   1_556 S
C147   C148    1.425   .     A
C149   C150    1.425   .     A
C151   C152    1.425   .     A
C153   C154    1.425   .     A
C155   C156    1.425   .     A
C157   C158    1.425   .     A
C159   C160    1.425   .     A
C161   C162    1.425   .     A
C163   C164    1.425   .     A
C165   C166    1.425   .     A
C167   C168    1.425   .     A
C169   C170    1.425   .     A
C171   C172    1.425   .     A
C173   C174    1.425   .     A
C175   C176    1.425   .     A
C177   C178    1.425   .     A
C179   C180    1.425   .     A
C181   C182    1.425   .     A
C183   C184    1.425   .     A
C185   C186    1.425   .     A
C187   C188    1.425   .     A
C189   C190    1.425   .     A
C191   C192    1.425   .     A
C193   C194    1.425   .     A
C195   C227    1.425   .     A
C195   H275    1.140   .     S
C195   C102    1.368   1_556 S
C196   C228    1.425   .     A
C196   H276    1.140   .     S
C197   C229    1.425   .     A
C197   N237    1.530   .     A
C197   C102    1.368   1_655 S
C198   N237    1.540   .     S
C199   C225    1.425   .     A
C199   N238    1.530   .     A
C199   C106    1.368   1_565 S
C200   N238    1.540   .     S
C201   C219    1.425   .     A
C201   H277    1.140   .     S
C201   C110    1.368   1_565 S
C202   C224    1.425   .     A
C202   H278    1.140   .     S
C202   C114    1.368   1_556 S
C203   C222    1.425   .     A
C203   N239    1.530   .     A
C203   C110    1.368   1_655 S
C204   N239    1.540   .     S
C205   C220    1.425   .     A
C205   N240    1.530   .     A
C206   N240    1.540   .     S
C207   C217    1.425   .     A
C207   N241    1.530   .     A
C208   N241    1.540   .     S
C209   C213    1.425   .     A
C209   N242    1.530   .     A
C209   C122    1.368   1_565 S
C210   N242    1.540   .     S
C211   C215    1.425   .     A
C211   H279    1.140   .     S
C211   C118    1.368   1_655 S
C212   C216    1.425   .     A
C212   H280    1.140   .     S
C212   C122    1.368   1_556 S
C213   N243    1.530   .     A
C213   C126    1.368   1_554 S
C214   N243    1.540   .     S
C215   H281    1.140   .     S
C216   H282    1.140   .     S
C216   C126    1.368   1_545 S
C217   N244    1.530   .     A
C217   C130    1.368   1_455 S
C218   N244    1.540   .     S
C219   H283    1.140   .     S
C219   C134    1.368   1_455 S
C220   N245    1.530   .     A
C220   C138    1.368   1_554 S
C221   N245    1.540   .     S
C222   N246    1.530   .     A
C222   C134    1.368   1_545 S
C223   N246    1.540   .     S
C224   H284    1.140   .     S
C225   N247    1.530   .     A
C226   N247    1.540   .     S
C227   H285    1.140   .     S
C227   C146    1.368   1_455 S
C228   H286    1.140   .     S
C228   C142    1.368   1_545 S
C229   N248    1.530   .     A
C229   C146    1.368   1_554 S
C230   N248    1.540   .     S
C231   N237    1.455   .     A
C231   N248    1.455   .     A
C232   N238    1.455   .     A
C232   N247    1.455   .     A
C233   N239    1.455   .     A
C233   N246    1.455   .     A
C234   N240    1.455   .     A
C234   N245    1.455   .     A
C235   N241    1.455   .     A
C235   N244    1.455   .     A
C236   N242    1.455   .     A
C236   N243    1.455   .     A
