data_image0
_cell_length_a       14.4211
_cell_length_b       12.1181
_cell_length_c       14.0692
_cell_angle_alpha    90
_cell_angle_beta     90
_cell_angle_gamma    90

_symmetry_space_group_name_H-M    "P 1"
_symmetry_int_tables_number       1

loop_
  _symmetry_equiv_pos_as_xyz
  'x, y, z'

loop_
  _atom_site_label
  _atom_site_occupancy
  _atom_site_fract_x
  _atom_site_fract_y
  _atom_site_fract_z
  _atom_site_thermal_displace_type
  _atom_site_B_iso_or_equiv
  _atom_site_type_symbol
  S1       1.0000 0.16309  0.86626  0.18859  Biso   1.000  S
  O1       1.0000 0.22140  0.87900  0.09650  Biso   1.000  O
  O2       1.0000 0.22390  0.90440  0.26650  Biso   1.000  O
  O3       1.0000 0.09170  0.95730  0.17380  Biso   1.000  O
  S2       1.0000 0.16309  0.36626  0.68859  Biso   1.000  S
  O4       1.0000 0.22140  0.37900  0.59650  Biso   1.000  O
  O5       1.0000 0.22390  0.40440  0.76650  Biso   1.000  O
  O6       1.0000 0.09170  0.45730  0.67380  Biso   1.000  O
  S3       1.0000 0.66309  0.86626  0.68859  Biso   1.000  S
  O7       1.0000 0.72140  0.87900  0.59650  Biso   1.000  O
  O8       1.0000 0.72390  0.90440  0.76650  Biso   1.000  O
  O9       1.0000 0.59170  0.95730  0.67380  Biso   1.000  O
  S4       1.0000 0.66309  0.36626  0.18859  Biso   1.000  S
  O10      1.0000 0.72140  0.37900  0.09650  Biso   1.000  O
  O11      1.0000 0.72390  0.40440  0.26650  Biso   1.000  O
  O12      1.0000 0.59170  0.45730  0.17380  Biso   1.000  O
  S5       1.0000 0.83691  0.13374  0.18859  Biso   1.000  S
  O13      1.0000 0.77860  0.12100  0.09650  Biso   1.000  O
  O14      1.0000 0.77610  0.09560  0.26650  Biso   1.000  O
  O15      1.0000 0.90830  0.04270  0.17380  Biso   1.000  O
  S6       1.0000 0.83691  0.63374  0.68859  Biso   1.000  S
  O16      1.0000 0.77860  0.62100  0.59650  Biso   1.000  O
  O17      1.0000 0.77610  0.59560  0.76650  Biso   1.000  O
  O18      1.0000 0.90830  0.54270  0.67380  Biso   1.000  O
  S7       1.0000 0.33691  0.13374  0.68859  Biso   1.000  S
  O19      1.0000 0.27860  0.12100  0.59650  Biso   1.000  O
  O20      1.0000 0.27610  0.09560  0.76650  Biso   1.000  O
  O21      1.0000 0.40830  0.04270  0.67380  Biso   1.000  O
  S8       1.0000 0.33691  0.63374  0.18859  Biso   1.000  S
  O22      1.0000 0.27860  0.62100  0.09650  Biso   1.000  O
  O23      1.0000 0.27610  0.59560  0.26650  Biso   1.000  O
  O24      1.0000 0.40830  0.54270  0.17380  Biso   1.000  O
  S9       1.0000 0.41309  0.38374  0.43859  Biso   1.000  S
  O25      1.0000 0.47140  0.37100  0.34650  Biso   1.000  O
  O26      1.0000 0.47390  0.34560  0.51650  Biso   1.000  O
  O27      1.0000 0.34170  0.29270  0.42380  Biso   1.000  O
  S10      1.0000 0.41309  0.88374  0.93859  Biso   1.000  S
  O28      1.0000 0.47140  0.87100  0.84650  Biso   1.000  O
  O29      1.0000 0.47390  0.84560  0.01650  Biso   1.000  O
  O30      1.0000 0.34170  0.79270  0.92380  Biso   1.000  O
  S11      1.0000 0.91309  0.38374  0.93859  Biso   1.000  S
  O31      1.0000 0.97140  0.37100  0.84650  Biso   1.000  O
  O32      1.0000 0.97390  0.34560  0.01650  Biso   1.000  O
  O33      1.0000 0.84170  0.29270  0.92380  Biso   1.000  O
  S12      1.0000 0.91309  0.88374  0.43859  Biso   1.000  S
  O34      1.0000 0.97140  0.87100  0.34650  Biso   1.000  O
  O35      1.0000 0.97390  0.84560  0.51650  Biso   1.000  O
  O36      1.0000 0.84170  0.79270  0.42380  Biso   1.000  O
  S13      1.0000 0.08691  0.11626  0.43859  Biso   1.000  S
  O37      1.0000 0.02860  0.12900  0.34650  Biso   1.000  O
  O38      1.0000 0.02610  0.15440  0.51650  Biso   1.000  O
  O39      1.0000 0.15830  0.20730  0.42380  Biso   1.000  O
  S14      1.0000 0.08691  0.61626  0.93859  Biso   1.000  S
  O40      1.0000 0.02860  0.62900  0.84650  Biso   1.000  O
  O41      1.0000 0.02610  0.65440  0.01650  Biso   1.000  O
  O42      1.0000 0.15830  0.70730  0.92380  Biso   1.000  O
  S15      1.0000 0.58691  0.11626  0.93859  Biso   1.000  S
  O43      1.0000 0.52860  0.12900  0.84650  Biso   1.000  O
  O44      1.0000 0.52610  0.15440  0.01650  Biso   1.000  O
  O45      1.0000 0.65830  0.20730  0.92380  Biso   1.000  O
  S16      1.0000 0.58691  0.61626  0.43859  Biso   1.000  S
  O46      1.0000 0.52860  0.62900  0.34650  Biso   1.000  O
  O47      1.0000 0.52610  0.65440  0.51650  Biso   1.000  O
  O48      1.0000 0.65830  0.70730  0.42380  Biso   1.000  O
  Zn1      1.0000 0.25000  0.75000  0.01900  Biso   1.000  Zn
  Zn2      1.0000 0.25000  0.25000  0.51900  Biso   1.000  Zn
  Zn3      1.0000 0.75000  0.25000  0.01900  Biso   1.000  Zn
  Zn4      1.0000 0.75000  0.75000  0.51900  Biso   1.000  Zn
  Zn5      1.0000 0.50000  0.50000  0.26900  Biso   1.000  Zn
  Zn6      1.0000 0.50000  0.00000  0.76900  Biso   1.000  Zn
  Zn7      1.0000 0.00000  0.00000  0.26900  Biso   1.000  Zn
  Zn8      1.0000 0.00000  0.50000  0.76900  Biso   1.000  Zn
