data_RUVKAV_clean
_audit_creation_date              2014-07-02
_audit_creation_method            'Materials Studio'
_symmetry_space_group_name_H-M    'P1'
_symmetry_Int_Tables_number       1
_symmetry_cell_setting            triclinic
loop_
_symmetry_equiv_pos_as_xyz
  x,y,z
_cell_length_a                    17.3884
_cell_length_b                    17.3884
_cell_length_c                    17.3884
_cell_angle_alpha                 65.3544
_cell_angle_beta                  65.3544
_cell_angle_gamma                 65.3544
loop_
_atom_site_label
_atom_site_type_symbol
_atom_site_fract_x
_atom_site_fract_y
_atom_site_fract_z
_atom_site_U_iso_or_equiv
_atom_site_adp_type
_atom_site_occupancy
Cu1    Cu    0.57302   0.00388   0.00388   0.01267  Uiso   1.00
Cu2    Cu    0.00388   0.57302   0.00388   0.01267  Uiso   1.00
Cu3    Cu    0.00388   0.00388   0.57302   0.01267  Uiso   1.00
Cu4    Cu    0.99612   0.42698   0.99612   0.01267  Uiso   1.00
Cu5    Cu    0.42698   0.99612   0.99612   0.01267  Uiso   1.00
Cu6    Cu    0.99612   0.99612   0.42698   0.01267  Uiso   1.00
H1     H     0.50640   0.72100   0.02020   0.01267  Uiso   1.00
H2     H     0.02020   0.50640   0.72100   0.01267  Uiso   1.00
H3     H     0.72100   0.02020   0.50640   0.01267  Uiso   1.00
H4     H     0.27900   0.49360   0.97980   0.01267  Uiso   1.00
H5     H     0.49360   0.97980   0.27900   0.01267  Uiso   1.00
H6     H     0.97980   0.27900   0.49360   0.01267  Uiso   1.00
H7     H     0.49360   0.27900   0.97980   0.01267  Uiso   1.00
H8     H     0.97980   0.49360   0.27900   0.01267  Uiso   1.00
H9     H     0.27900   0.97980   0.49360   0.01267  Uiso   1.00
H10    H     0.72100   0.50640   0.02020   0.01267  Uiso   1.00
H11    H     0.50640   0.02020   0.72100   0.01267  Uiso   1.00
H12    H     0.02020   0.72100   0.50640   0.01267  Uiso   1.00
H13    H     0.73050   0.73050   0.02780   0.01267  Uiso   1.00
H14    H     0.02780   0.73050   0.73050   0.01267  Uiso   1.00
H15    H     0.73050   0.02780   0.73050   0.01267  Uiso   1.00
H16    H     0.26950   0.26950   0.97220   0.01267  Uiso   1.00
H17    H     0.26950   0.97220   0.26950   0.01267  Uiso   1.00
H18    H     0.97220   0.26950   0.26950   0.01267  Uiso   1.00
C1     C     0.61175   0.74055   0.02475   0.01267  Uiso   1.00
C2     C     0.56483   0.69393   0.02133   0.01267  Uiso   1.00
C3     C     0.56902   0.83642   0.02102   0.01267  Uiso   1.00
C4     C     0.02475   0.61175   0.74055   0.01267  Uiso   1.00
C5     C     0.02133   0.56483   0.69393   0.01267  Uiso   1.00
C6     C     0.02102   0.56902   0.83642   0.01267  Uiso   1.00
C7     C     0.74055   0.02475   0.61175   0.01267  Uiso   1.00
C8     C     0.69393   0.02133   0.56483   0.01267  Uiso   1.00
C9     C     0.83642   0.02102   0.56902   0.01267  Uiso   1.00
C10    C     0.25945   0.38825   0.97525   0.01267  Uiso   1.00
C11    C     0.30607   0.43517   0.97867   0.01267  Uiso   1.00
C12    C     0.16358   0.43098   0.97898   0.01267  Uiso   1.00
C13    C     0.38825   0.97525   0.25945   0.01267  Uiso   1.00
C14    C     0.43517   0.97867   0.30607   0.01267  Uiso   1.00
C15    C     0.43098   0.97898   0.16358   0.01267  Uiso   1.00
C16    C     0.97525   0.25945   0.38825   0.01267  Uiso   1.00
C17    C     0.97867   0.30607   0.43517   0.01267  Uiso   1.00
C18    C     0.97898   0.16358   0.43098   0.01267  Uiso   1.00
C19    C     0.38825   0.25945   0.97525   0.01267  Uiso   1.00
C20    C     0.43517   0.30607   0.97867   0.01267  Uiso   1.00
C21    C     0.43098   0.16358   0.97898   0.01267  Uiso   1.00
C22    C     0.97525   0.38825   0.25945   0.01267  Uiso   1.00
C23    C     0.97867   0.43517   0.30607   0.01267  Uiso   1.00
C24    C     0.97898   0.43098   0.16358   0.01267  Uiso   1.00
C25    C     0.25945   0.97525   0.38825   0.01267  Uiso   1.00
C26    C     0.30607   0.97867   0.43517   0.01267  Uiso   1.00
C27    C     0.16358   0.97898   0.43098   0.01267  Uiso   1.00
C28    C     0.74055   0.61175   0.02475   0.01267  Uiso   1.00
C29    C     0.69393   0.56483   0.02133   0.01267  Uiso   1.00
C30    C     0.83642   0.56902   0.02102   0.01267  Uiso   1.00
C31    C     0.61175   0.02475   0.74055   0.01267  Uiso   1.00
C32    C     0.56483   0.02133   0.69393   0.01267  Uiso   1.00
C33    C     0.56902   0.02102   0.83642   0.01267  Uiso   1.00
C34    C     0.02475   0.74055   0.61175   0.01267  Uiso   1.00
C35    C     0.02133   0.69393   0.56483   0.01267  Uiso   1.00
C36    C     0.02102   0.83642   0.56902   0.01267  Uiso   1.00
C37    C     0.56020   0.56020   0.01410   0.01267  Uiso   1.00
C38    C     0.52260   0.52260   0.00470   0.01267  Uiso   1.00
C39    C     0.69922   0.69922   0.02607   0.01267  Uiso   1.00
C40    C     0.60640   0.60640   0.01965   0.01267  Uiso   1.00
C41    C     0.01410   0.56020   0.56020   0.01267  Uiso   1.00
C42    C     0.00470   0.52260   0.52260   0.01267  Uiso   1.00
C43    C     0.02607   0.69922   0.69922   0.01267  Uiso   1.00
C44    C     0.01965   0.60640   0.60640   0.01267  Uiso   1.00
C45    C     0.56020   0.01410   0.56020   0.01267  Uiso   1.00
C46    C     0.52260   0.00470   0.52260   0.01267  Uiso   1.00
C47    C     0.69922   0.02607   0.69922   0.01267  Uiso   1.00
C48    C     0.60640   0.01965   0.60640   0.01267  Uiso   1.00
C49    C     0.43980   0.43980   0.98590   0.01267  Uiso   1.00
C50    C     0.47740   0.47740   0.99530   0.01267  Uiso   1.00
C51    C     0.30078   0.30078   0.97393   0.01267  Uiso   1.00
C52    C     0.39360   0.39360   0.98035   0.01267  Uiso   1.00
C53    C     0.43980   0.98590   0.43980   0.01267  Uiso   1.00
C54    C     0.47740   0.99530   0.47740   0.01267  Uiso   1.00
C55    C     0.30078   0.97393   0.30078   0.01267  Uiso   1.00
C56    C     0.39360   0.98035   0.39360   0.01267  Uiso   1.00
C57    C     0.98590   0.43980   0.43980   0.01267  Uiso   1.00
C58    C     0.99530   0.47740   0.47740   0.01267  Uiso   1.00
C59    C     0.97393   0.30078   0.30078   0.01267  Uiso   1.00
C60    C     0.98035   0.39360   0.39360   0.01267  Uiso   1.00
O1     O     0.61482   0.87616   0.02134   0.01267  Uiso   1.00
O2     O     0.49165   0.86961   0.01558   0.01267  Uiso   1.00
O3     O     0.02134   0.61482   0.87616   0.01267  Uiso   1.00
O4     O     0.01558   0.49165   0.86961   0.01267  Uiso   1.00
O5     O     0.87616   0.02134   0.61482   0.01267  Uiso   1.00
O6     O     0.86961   0.01558   0.49165   0.01267  Uiso   1.00
O7     O     0.12384   0.38518   0.97866   0.01267  Uiso   1.00
O8     O     0.13039   0.50835   0.98442   0.01267  Uiso   1.00
O9     O     0.38518   0.97866   0.12384   0.01267  Uiso   1.00
O10    O     0.50835   0.98442   0.13039   0.01267  Uiso   1.00
O11    O     0.97866   0.12384   0.38518   0.01267  Uiso   1.00
O12    O     0.98442   0.13039   0.50835   0.01267  Uiso   1.00
O13    O     0.38518   0.12384   0.97866   0.01267  Uiso   1.00
O14    O     0.50835   0.13039   0.98442   0.01267  Uiso   1.00
O15    O     0.97866   0.38518   0.12384   0.01267  Uiso   1.00
O16    O     0.98442   0.50835   0.13039   0.01267  Uiso   1.00
O17    O     0.12384   0.97866   0.38518   0.01267  Uiso   1.00
O18    O     0.13039   0.98442   0.50835   0.01267  Uiso   1.00
O19    O     0.87616   0.61482   0.02134   0.01267  Uiso   1.00
O20    O     0.86961   0.49165   0.01558   0.01267  Uiso   1.00
O21    O     0.61482   0.02134   0.87616   0.01267  Uiso   1.00
O22    O     0.49165   0.01558   0.86961   0.01267  Uiso   1.00
O23    O     0.02134   0.87616   0.61482   0.01267  Uiso   1.00
O24    O     0.01558   0.86961   0.49165   0.01267  Uiso   1.00
