data_RUVMAX_clean
_audit_creation_date              2014-07-02
_audit_creation_method            'Materials Studio'
_symmetry_space_group_name_H-M    'P1'
_symmetry_Int_Tables_number       1
_symmetry_cell_setting            triclinic
loop_
_symmetry_equiv_pos_as_xyz
  x,y,z
_cell_length_a                    12.9140
_cell_length_b                    12.9140
_cell_length_c                    14.7650
_cell_angle_alpha                 91.5224
_cell_angle_beta                  91.5224
_cell_angle_gamma                 90.3576
loop_
_atom_site_label
_atom_site_type_symbol
_atom_site_fract_x
_atom_site_fract_y
_atom_site_fract_z
_atom_site_U_iso_or_equiv
_atom_site_adp_type
_atom_site_occupancy
Zn1    Zn    0.06584   0.58884   0.77449   0.01267  Uiso   1.00
Zn2    Zn    0.41116   0.93416   0.72551   0.01267  Uiso   1.00
Zn3    Zn    0.93416   0.41116   0.22551   0.01267  Uiso   1.00
Zn4    Zn    0.58884   0.06584   0.27449   0.01267  Uiso   1.00
Zn5    Zn    0.61826   0.38174   0.75000   0.01267  Uiso   1.00
Zn6    Zn    0.38174   0.61826   0.25000   0.01267  Uiso   1.00
H1     H     0.84200   0.55600   0.50900   0.01267  Uiso   1.00
H2     H     0.76790   0.47630   0.09290   0.01267  Uiso   1.00
H3     H     0.73530   0.49610   0.94380   0.01267  Uiso   1.00
H4     H     0.00420   0.36100   0.89030   0.01267  Uiso   1.00
H5     H     0.03100   0.34260   0.04320   0.01267  Uiso   1.00
H6     H     0.45290   0.46870   0.62500   0.01267  Uiso   1.00
H7     H     0.32070   0.58630   0.62460   0.01267  Uiso   1.00
H8     H     0.44400   0.15800   0.99100   0.01267  Uiso   1.00
H9     H     0.52370   0.23210   0.40710   0.01267  Uiso   1.00
H10    H     0.50390   0.26470   0.55620   0.01267  Uiso   1.00
H11    H     0.63900   0.99580   0.60970   0.01267  Uiso   1.00
H12    H     0.65740   0.96900   0.45680   0.01267  Uiso   1.00
H13    H     0.53130   0.54710   0.87500   0.01267  Uiso   1.00
H14    H     0.41370   0.67930   0.87540   0.01267  Uiso   1.00
H15    H     0.15800   0.44400   0.49100   0.01267  Uiso   1.00
H16    H     0.23210   0.52370   0.90710   0.01267  Uiso   1.00
H17    H     0.26470   0.50390   0.05620   0.01267  Uiso   1.00
H18    H     0.99580   0.63900   0.10970   0.01267  Uiso   1.00
H19    H     0.96900   0.65740   0.95680   0.01267  Uiso   1.00
H20    H     0.54710   0.53130   0.37500   0.01267  Uiso   1.00
H21    H     0.67930   0.41370   0.37540   0.01267  Uiso   1.00
H22    H     0.55600   0.84200   0.00900   0.01267  Uiso   1.00
H23    H     0.47630   0.76790   0.59290   0.01267  Uiso   1.00
H24    H     0.49610   0.73530   0.44380   0.01267  Uiso   1.00
H25    H     0.36100   0.00420   0.39030   0.01267  Uiso   1.00
H26    H     0.34260   0.03100   0.54320   0.01267  Uiso   1.00
H27    H     0.46870   0.45290   0.12500   0.01267  Uiso   1.00
H28    H     0.58630   0.32070   0.12460   0.01267  Uiso   1.00
H29    H     0.03700   0.96300   0.75000   0.01267  Uiso   1.00
H30    H     0.96300   0.03700   0.25000   0.01267  Uiso   1.00
C1     C     0.85260   0.45560   0.80230   0.01267  Uiso   1.00
C2     C     0.88680   0.51080   0.67050   0.01267  Uiso   1.00
C3     C     0.79000   0.47060   0.66620   0.01267  Uiso   1.00
C4     C     0.94790   0.56370   0.60240   0.01267  Uiso   1.00
C5     C     0.71240   0.45800   0.59110   0.01267  Uiso   1.00
C6     C     0.81690   0.45430   0.05170   0.01267  Uiso   1.00
C7     C     0.79720   0.46580   0.96250   0.01267  Uiso   1.00
C8     C     0.86650   0.43370   0.89850   0.01267  Uiso   1.00
C9     C     0.95560   0.38600   0.93060   0.01267  Uiso   1.00
C10    C     0.97170   0.37590   0.02250   0.01267  Uiso   1.00
C11    C     0.12410   0.79990   0.75560   0.01267  Uiso   1.00
C12    C     0.01280   0.80680   0.76560   0.01267  Uiso   1.00
C13    C     0.44290   0.50930   0.67690   0.01267  Uiso   1.00
C14    C     0.36480   0.58140   0.67520   0.01267  Uiso   1.00
C15    C     0.54440   0.14740   0.69770   0.01267  Uiso   1.00
C16    C     0.48920   0.11320   0.82950   0.01267  Uiso   1.00
C17    C     0.52940   0.21000   0.83380   0.01267  Uiso   1.00
C18    C     0.43630   0.05210   0.89760   0.01267  Uiso   1.00
C19    C     0.54200   0.28760   0.90890   0.01267  Uiso   1.00
C20    C     0.54570   0.18310   0.44830   0.01267  Uiso   1.00
C21    C     0.53420   0.20280   0.53750   0.01267  Uiso   1.00
C22    C     0.56630   0.13350   0.60150   0.01267  Uiso   1.00
C23    C     0.61400   0.04440   0.56940   0.01267  Uiso   1.00
C24    C     0.62410   0.02830   0.47750   0.01267  Uiso   1.00
C25    C     0.20010   0.87590   0.74440   0.01267  Uiso   1.00
C26    C     0.19320   0.98720   0.73440   0.01267  Uiso   1.00
C27    C     0.49070   0.55710   0.82310   0.01267  Uiso   1.00
C28    C     0.41860   0.63520   0.82480   0.01267  Uiso   1.00
C29    C     0.14740   0.54440   0.19770   0.01267  Uiso   1.00
C30    C     0.11320   0.48920   0.32950   0.01267  Uiso   1.00
C31    C     0.21000   0.52940   0.33380   0.01267  Uiso   1.00
C32    C     0.05210   0.43630   0.39760   0.01267  Uiso   1.00
C33    C     0.28760   0.54200   0.40890   0.01267  Uiso   1.00
C34    C     0.18310   0.54570   0.94830   0.01267  Uiso   1.00
C35    C     0.20280   0.53420   0.03750   0.01267  Uiso   1.00
C36    C     0.13350   0.56630   0.10150   0.01267  Uiso   1.00
C37    C     0.04440   0.61400   0.06940   0.01267  Uiso   1.00
C38    C     0.02830   0.62410   0.97750   0.01267  Uiso   1.00
C39    C     0.87590   0.20010   0.24440   0.01267  Uiso   1.00
C40    C     0.98720   0.19320   0.23440   0.01267  Uiso   1.00
C41    C     0.55710   0.49070   0.32310   0.01267  Uiso   1.00
C42    C     0.63520   0.41860   0.32480   0.01267  Uiso   1.00
C43    C     0.45560   0.85260   0.30230   0.01267  Uiso   1.00
C44    C     0.51080   0.88680   0.17050   0.01267  Uiso   1.00
C45    C     0.47060   0.79000   0.16620   0.01267  Uiso   1.00
C46    C     0.56370   0.94790   0.10240   0.01267  Uiso   1.00
C47    C     0.45800   0.71240   0.09110   0.01267  Uiso   1.00
C48    C     0.45430   0.81690   0.55170   0.01267  Uiso   1.00
C49    C     0.46580   0.79720   0.46250   0.01267  Uiso   1.00
C50    C     0.43370   0.86650   0.39850   0.01267  Uiso   1.00
C51    C     0.38600   0.95560   0.43060   0.01267  Uiso   1.00
C52    C     0.37590   0.97170   0.52250   0.01267  Uiso   1.00
C53    C     0.79990   0.12410   0.25560   0.01267  Uiso   1.00
C54    C     0.80680   0.01280   0.26560   0.01267  Uiso   1.00
C55    C     0.50930   0.44290   0.17690   0.01267  Uiso   1.00
C56    C     0.58140   0.36480   0.17520   0.01267  Uiso   1.00
C57    C     0.27260   0.72740   0.75000   0.01267  Uiso   1.00
C58    C     0.35330   0.64670   0.75000   0.01267  Uiso   1.00
C59    C     0.72740   0.27260   0.25000   0.01267  Uiso   1.00
C60    C     0.64670   0.35330   0.25000   0.01267  Uiso   1.00
N1     N     0.92860   0.50200   0.75630   0.01267  Uiso   1.00
N2     N     0.76600   0.43560   0.75110   0.01267  Uiso   1.00
N3     N     0.90490   0.41230   0.08290   0.01267  Uiso   1.00
N4     N     0.17170   0.70750   0.75680   0.01267  Uiso   1.00
N5     N     0.49800   0.07140   0.74370   0.01267  Uiso   1.00
N6     N     0.56440   0.23400   0.74890   0.01267  Uiso   1.00
N7     N     0.58770   0.09510   0.41710   0.01267  Uiso   1.00
N8     N     0.29250   0.82830   0.74320   0.01267  Uiso   1.00
N9     N     0.07140   0.49800   0.24370   0.01267  Uiso   1.00
N10    N     0.23400   0.56440   0.24890   0.01267  Uiso   1.00
N11    N     0.09510   0.58770   0.91710   0.01267  Uiso   1.00
N12    N     0.82830   0.29250   0.24320   0.01267  Uiso   1.00
N13    N     0.50200   0.92860   0.25630   0.01267  Uiso   1.00
N14    N     0.43560   0.76600   0.25110   0.01267  Uiso   1.00
N15    N     0.41230   0.90490   0.58290   0.01267  Uiso   1.00
N16    N     0.70750   0.17170   0.25680   0.01267  Uiso   1.00
N17    N     0.50580   0.49420   0.75000   0.01267  Uiso   1.00
N18    N     0.49420   0.50580   0.25000   0.01267  Uiso   1.00
O1     O     0.03670   0.59490   0.62410   0.01267  Uiso   1.00
O2     O     0.90730   0.57610   0.52310   0.01267  Uiso   1.00
O3     O     0.63140   0.40860   0.60840   0.01267  Uiso   1.00
O4     O     0.73160   0.49560   0.51640   0.01267  Uiso   1.00
O5     O     0.96400   0.72600   0.78020   0.01267  Uiso   1.00
O6     O     0.96920   0.89600   0.76050   0.01267  Uiso   1.00
O7     O     0.40510   0.96330   0.87590   0.01267  Uiso   1.00
O8     O     0.42390   0.09270   0.97690   0.01267  Uiso   1.00
O9     O     0.59140   0.36860   0.89160   0.01267  Uiso   1.00
O10    O     0.50440   0.26840   0.98360   0.01267  Uiso   1.00
O11    O     0.27400   0.03600   0.71980   0.01267  Uiso   1.00
O12    O     0.10400   0.03080   0.73950   0.01267  Uiso   1.00
O13    O     0.96330   0.40510   0.37590   0.01267  Uiso   1.00
O14    O     0.09270   0.42390   0.47690   0.01267  Uiso   1.00
O15    O     0.36860   0.59140   0.39160   0.01267  Uiso   1.00
O16    O     0.26840   0.50440   0.48360   0.01267  Uiso   1.00
O17    O     0.03600   0.27400   0.21980   0.01267  Uiso   1.00
O18    O     0.03080   0.10400   0.23950   0.01267  Uiso   1.00
O19    O     0.59490   0.03670   0.12410   0.01267  Uiso   1.00
O20    O     0.57610   0.90730   0.02310   0.01267  Uiso   1.00
O21    O     0.40860   0.63140   0.10840   0.01267  Uiso   1.00
O22    O     0.49560   0.73160   0.01640   0.01267  Uiso   1.00
O23    O     0.72600   0.96400   0.28020   0.01267  Uiso   1.00
O24    O     0.89600   0.96920   0.26050   0.01267  Uiso   1.00
