data_image0
_cell_length_a       7.1599
_cell_length_b       39.159
_cell_length_c       9.7127
_cell_angle_alpha    90
_cell_angle_beta     90
_cell_angle_gamma    90

_symmetry_space_group_name_H-M    "P 1"
_symmetry_int_tables_number       1

loop_
  _symmetry_equiv_pos_as_xyz
  'x, y, z'

loop_
  _atom_site_label
  _atom_site_occupancy
  _atom_site_fract_x
  _atom_site_fract_y
  _atom_site_fract_z
  _atom_site_thermal_displace_type
  _atom_site_B_iso_or_equiv
  _atom_site_type_symbol
  C1       1.0000 0.09490  0.12430  0.69260  Biso   1.000  C
  C2       1.0000 0.07080  0.15496  0.62610  Biso   1.000  C
  H1       1.0000 0.03280  0.15580  0.53460  Biso   1.000  H
  C3       1.0000 0.10550  0.18500  0.70130  Biso   1.000  C
  C4       1.0000 0.16170  0.18410  0.83720  Biso   1.000  C
  H2       1.0000 0.18470  0.20410  0.88560  Biso   1.000  H
  C5       1.0000 0.18300  0.15240  0.89970  Biso   1.000  C
  C6       1.0000 0.14970  0.12260  0.82950  Biso   1.000  C
  H3       1.0000 0.16380  0.10160  0.87300  Biso   1.000  H
  C7       1.0000 0.11170  0.06110  0.66440  Biso   1.000  C
  H4       1.0000 0.19530  0.05620  0.73500  Biso   1.000  H
  C8       1.0000 0.02370  0.03850  0.58250  Biso   1.000  C
  H5       1.0000 0.03350  0.01490  0.58820  Biso   1.000  H
  C9       1.0000 0.93870  0.08870  0.51460  Biso   1.000  C
  H6       1.0000 0.88370  0.10640  0.46570  Biso   1.000  H
  C10      1.0000 0.09450  0.22140  0.48890  Biso   1.000  C
  H7       1.0000 0.10620  0.20480  0.42120  Biso   1.000  H
  C11      1.0000 0.07780  0.25590  0.47120  Biso   1.000  C
  H8       1.0000 0.07460  0.26700  0.38650  Biso   1.000  H
  C12      1.0000 0.07320  0.24720  0.69180  Biso   1.000  C
  H9       1.0000 0.06720  0.25070  0.78640  Biso   1.000  H
  C13      1.0000 0.19300  0.12380  0.12990  Biso   1.000  C
  H10      1.0000 0.12060  0.10490  0.10830  Biso   1.000  H
  C14      1.0000 0.27070  0.13040  0.25110  Biso   1.000  C
  H11      1.0000 0.26190  0.11670  0.32890  Biso   1.000  H
  C15      1.0000 0.34430  0.17250  0.11260  Biso   1.000  C
  H12      1.0000 0.39370  0.19260  0.07730  Biso   1.000  H
  C16      1.0000 0.10360  0.38020  0.26470  Biso   1.000  C
  C17      1.0000 0.09850  0.41470  0.24800  Biso   1.000  C
  H13      1.0000 0.06110  0.42830  0.32140  Biso   1.000  H
  C18      1.0000 0.14780  0.43020  0.12430  Biso   1.000  C
  C19      1.0000 0.19240  0.40960  0.01120  Biso   1.000  C
  C20      1.0000 0.19410  0.37490  0.03110  Biso   1.000  C
  H14      1.0000 0.22350  0.36100  0.95640  Biso   1.000  H
  C21      1.0000 0.15500  0.35940  0.15500  Biso   1.000  C
  H15      1.0000 0.16280  0.33580  0.16520  Biso   1.000  H
  C22      1.0000 0.05290  0.36490  0.40520  Biso   1.000  C
  C23      1.0000 0.13770  0.46960  0.12450  Biso   1.000  C
  C24      1.0000 0.23300  0.42360  0.86900  Biso   1.000  C
  Co1      1.0000 0.05255  0.32250  0.61794  Biso   1.000  Co
  N1       1.0000 0.91530  0.05644  0.48750  Biso   1.000  N
  N2       1.0000 0.05340  0.09274  0.62300  Biso   1.000  N
  N3       1.0000 0.06630  0.27200  0.59880  Biso   1.000  N
  N4       1.0000 0.08990  0.21670  0.63280  Biso   1.000  N
  N5       1.0000 0.36660  0.16090  0.24350  Biso   1.000  N
  N6       1.0000 0.23860  0.14993  0.04250  Biso   1.000  N
  O1       1.0000 0.06470  0.33338  0.41950  Biso   1.000  O
  O2       1.0000 0.00470  0.38437  0.49960  Biso   1.000  O
  O3       1.0000 0.28510  0.48642  0.12390  Biso   1.000  O
  O4       1.0000 0.98010  0.48163  0.13410  Biso   1.000  O
  O5       1.0000 0.21560  0.45480  0.85190  Biso   1.000  O
  O6       1.0000 0.27040  0.40295  0.77370  Biso   1.000  O
  Zn1      1.0000 0.74231  0.03567  0.34774  Biso   1.000  Zn
  C25      1.0000 0.40510  0.87570  0.19260  Biso   1.000  C
  C26      1.0000 0.42920  0.84504  0.12610  Biso   1.000  C
  H16      1.0000 0.46720  0.84420  0.03460  Biso   1.000  H
  C27      1.0000 0.39450  0.81500  0.20130  Biso   1.000  C
  C28      1.0000 0.33830  0.81590  0.33720  Biso   1.000  C
  H17      1.0000 0.31530  0.79590  0.38560  Biso   1.000  H
  C29      1.0000 0.31700  0.84760  0.39970  Biso   1.000  C
  C30      1.0000 0.35030  0.87740  0.32950  Biso   1.000  C
  H18      1.0000 0.33620  0.89840  0.37300  Biso   1.000  H
  C31      1.0000 0.38830  0.93890  0.16440  Biso   1.000  C
  H19      1.0000 0.30470  0.94380  0.23500  Biso   1.000  H
  C32      1.0000 0.47630  0.96150  0.08250  Biso   1.000  C
  H20      1.0000 0.46650  0.98510  0.08820  Biso   1.000  H
  C33      1.0000 0.56130  0.91130  0.01460  Biso   1.000  C
  H21      1.0000 0.61630  0.89360  0.96570  Biso   1.000  H
  C34      1.0000 0.40550  0.77860  0.98890  Biso   1.000  C
  H22      1.0000 0.39380  0.79520  0.92120  Biso   1.000  H
  C35      1.0000 0.42220  0.74410  0.97120  Biso   1.000  C
  H23      1.0000 0.42540  0.73300  0.88650  Biso   1.000  H
  C36      1.0000 0.42680  0.75280  0.19180  Biso   1.000  C
  H24      1.0000 0.43280  0.74930  0.28640  Biso   1.000  H
  C37      1.0000 0.30700  0.87620  0.62990  Biso   1.000  C
  H25      1.0000 0.37940  0.89510  0.60830  Biso   1.000  H
  C38      1.0000 0.22930  0.86960  0.75110  Biso   1.000  C
  H26      1.0000 0.23810  0.88330  0.82890  Biso   1.000  H
  C39      1.0000 0.15570  0.82750  0.61260  Biso   1.000  C
  H27      1.0000 0.10630  0.80740  0.57730  Biso   1.000  H
  C40      1.0000 0.39640  0.61980  0.76470  Biso   1.000  C
  C41      1.0000 0.40150  0.58530  0.74800  Biso   1.000  C
  H28      1.0000 0.43890  0.57170  0.82140  Biso   1.000  H
  C42      1.0000 0.35220  0.56980  0.62430  Biso   1.000  C
  C43      1.0000 0.30760  0.59040  0.51120  Biso   1.000  C
  C44      1.0000 0.30590  0.62510  0.53110  Biso   1.000  C
  H29      1.0000 0.27650  0.63900  0.45640  Biso   1.000  H
  C45      1.0000 0.34500  0.64060  0.65500  Biso   1.000  C
  H30      1.0000 0.33720  0.66420  0.66520  Biso   1.000  H
  C46      1.0000 0.44710  0.63510  0.90520  Biso   1.000  C
  C47      1.0000 0.36230  0.53040  0.62450  Biso   1.000  C
  C48      1.0000 0.26700  0.57640  0.36900  Biso   1.000  C
  Co2      1.0000 0.44745  0.67750  0.11794  Biso   1.000  Co
  N7       1.0000 0.58470  0.94356  0.98750  Biso   1.000  N
  N8       1.0000 0.44660  0.90726  0.12300  Biso   1.000  N
  N9       1.0000 0.43370  0.72800  0.09880  Biso   1.000  N
  N10      1.0000 0.41010  0.78330  0.13280  Biso   1.000  N
  N11      1.0000 0.13340  0.83910  0.74350  Biso   1.000  N
  N12      1.0000 0.26140  0.85007  0.54250  Biso   1.000  N
  O7       1.0000 0.43530  0.66662  0.91950  Biso   1.000  O
  O8       1.0000 0.49530  0.61563  0.99960  Biso   1.000  O
  O9       1.0000 0.21490  0.51358  0.62390  Biso   1.000  O
  O10      1.0000 0.51990  0.51837  0.63410  Biso   1.000  O
  O11      1.0000 0.28440  0.54520  0.35190  Biso   1.000  O
  O12      1.0000 0.22960  0.59705  0.27370  Biso   1.000  O
  Zn2      1.0000 0.75769  0.96433  0.84774  Biso   1.000  Zn
  C49      1.0000 0.90510  0.62430  0.80740  Biso   1.000  C
  C50      1.0000 0.92920  0.65496  0.87390  Biso   1.000  C
  H31      1.0000 0.96720  0.65580  0.96540  Biso   1.000  H
  C51      1.0000 0.89450  0.68500  0.79870  Biso   1.000  C
  C52      1.0000 0.83830  0.68410  0.66280  Biso   1.000  C
  H32      1.0000 0.81530  0.70410  0.61440  Biso   1.000  H
  C53      1.0000 0.81700  0.65240  0.60030  Biso   1.000  C
  C54      1.0000 0.85030  0.62260  0.67050  Biso   1.000  C
  H33      1.0000 0.83620  0.60160  0.62700  Biso   1.000  H
  C55      1.0000 0.88830  0.56110  0.83560  Biso   1.000  C
  H34      1.0000 0.80470  0.55620  0.76500  Biso   1.000  H
  C56      1.0000 0.97630  0.53850  0.91750  Biso   1.000  C
  H35      1.0000 0.96650  0.51490  0.91180  Biso   1.000  H
  C57      1.0000 0.06130  0.58870  0.98540  Biso   1.000  C
  H36      1.0000 0.11630  0.60640  0.03430  Biso   1.000  H
  C58      1.0000 0.90550  0.72140  0.01110  Biso   1.000  C
  H37      1.0000 0.89380  0.70480  0.07880  Biso   1.000  H
  C59      1.0000 0.92220  0.75590  0.02880  Biso   1.000  C
  H38      1.0000 0.92540  0.76700  0.11350  Biso   1.000  H
  C60      1.0000 0.92680  0.74720  0.80820  Biso   1.000  C
  H39      1.0000 0.93280  0.75070  0.71360  Biso   1.000  H
  C61      1.0000 0.80700  0.62380  0.37010  Biso   1.000  C
  H40      1.0000 0.87940  0.60490  0.39170  Biso   1.000  H
  C62      1.0000 0.72930  0.63040  0.24890  Biso   1.000  C
  H41      1.0000 0.73810  0.61670  0.17110  Biso   1.000  H
  C63      1.0000 0.65570  0.67250  0.38740  Biso   1.000  C
  H42      1.0000 0.60630  0.69260  0.42270  Biso   1.000  H
  C64      1.0000 0.89640  0.88020  0.23530  Biso   1.000  C
  C65      1.0000 0.90150  0.91470  0.25200  Biso   1.000  C
  H43      1.0000 0.93890  0.92830  0.17860  Biso   1.000  H
  C66      1.0000 0.85220  0.93020  0.37570  Biso   1.000  C
  C67      1.0000 0.80760  0.90960  0.48880  Biso   1.000  C
  C68      1.0000 0.80590  0.87490  0.46890  Biso   1.000  C
  H44      1.0000 0.77650  0.86100  0.54360  Biso   1.000  H
  C69      1.0000 0.84500  0.85940  0.34500  Biso   1.000  C
  H45      1.0000 0.83720  0.83580  0.33480  Biso   1.000  H
  C70      1.0000 0.94710  0.86490  0.09480  Biso   1.000  C
  C71      1.0000 0.86230  0.96960  0.37550  Biso   1.000  C
  C72      1.0000 0.76700  0.92360  0.63100  Biso   1.000  C
  Co3      1.0000 0.94745  0.82250  0.88206  Biso   1.000  Co
  N13      1.0000 0.08470  0.55644  0.01250  Biso   1.000  N
  N14      1.0000 0.94660  0.59274  0.87700  Biso   1.000  N
  N15      1.0000 0.93370  0.77200  0.90120  Biso   1.000  N
  N16      1.0000 0.91010  0.71670  0.86720  Biso   1.000  N
  N17      1.0000 0.63340  0.66090  0.25650  Biso   1.000  N
  N18      1.0000 0.76140  0.64993  0.45750  Biso   1.000  N
  O13      1.0000 0.93530  0.83338  0.08050  Biso   1.000  O
  O14      1.0000 0.99530  0.88437  0.00040  Biso   1.000  O
  O15      1.0000 0.71490  0.98642  0.37610  Biso   1.000  O
  O16      1.0000 0.01990  0.98163  0.36590  Biso   1.000  O
  O17      1.0000 0.78440  0.95480  0.64810  Biso   1.000  O
  O18      1.0000 0.72960  0.90295  0.72630  Biso   1.000  O
  Zn3      1.0000 0.25769  0.53567  0.15226  Biso   1.000  Zn
  C73      1.0000 0.59490  0.37570  0.30740  Biso   1.000  C
  C74      1.0000 0.57080  0.34504  0.37390  Biso   1.000  C
  H46      1.0000 0.53280  0.34420  0.46540  Biso   1.000  H
  C75      1.0000 0.60550  0.31500  0.29870  Biso   1.000  C
  C76      1.0000 0.66170  0.31590  0.16280  Biso   1.000  C
  H47      1.0000 0.68470  0.29590  0.11440  Biso   1.000  H
  C77      1.0000 0.68300  0.34760  0.10030  Biso   1.000  C
  C78      1.0000 0.64970  0.37740  0.17050  Biso   1.000  C
  H48      1.0000 0.66380  0.39840  0.12700  Biso   1.000  H
  C79      1.0000 0.61170  0.43890  0.33560  Biso   1.000  C
  H49      1.0000 0.69530  0.44380  0.26500  Biso   1.000  H
  C80      1.0000 0.52370  0.46150  0.41750  Biso   1.000  C
  H50      1.0000 0.53350  0.48510  0.41180  Biso   1.000  H
  C81      1.0000 0.43870  0.41130  0.48540  Biso   1.000  C
  H51      1.0000 0.38370  0.39360  0.53430  Biso   1.000  H
  C82      1.0000 0.59450  0.27860  0.51110  Biso   1.000  C
  H52      1.0000 0.60620  0.29520  0.57880  Biso   1.000  H
  C83      1.0000 0.57780  0.24410  0.52880  Biso   1.000  C
  H53      1.0000 0.57460  0.23300  0.61350  Biso   1.000  H
  C84      1.0000 0.57320  0.25280  0.30820  Biso   1.000  C
  H54      1.0000 0.56720  0.24930  0.21360  Biso   1.000  H
  C85      1.0000 0.69300  0.37620  0.87010  Biso   1.000  C
  H55      1.0000 0.62060  0.39510  0.89170  Biso   1.000  H
  C86      1.0000 0.77070  0.36960  0.74890  Biso   1.000  C
  H56      1.0000 0.76190  0.38330  0.67110  Biso   1.000  H
  C87      1.0000 0.84430  0.32750  0.88740  Biso   1.000  C
  H57      1.0000 0.89370  0.30740  0.92270  Biso   1.000  H
  C88      1.0000 0.60360  0.11980  0.73530  Biso   1.000  C
  C89      1.0000 0.59850  0.08530  0.75200  Biso   1.000  C
  H58      1.0000 0.56110  0.07170  0.67860  Biso   1.000  H
  C90      1.0000 0.64780  0.06980  0.87570  Biso   1.000  C
  C91      1.0000 0.69240  0.09040  0.98880  Biso   1.000  C
  C92      1.0000 0.69410  0.12510  0.96890  Biso   1.000  C
  H59      1.0000 0.72350  0.13900  0.04360  Biso   1.000  H
  C93      1.0000 0.65500  0.14060  0.84500  Biso   1.000  C
  H60      1.0000 0.66280  0.16420  0.83480  Biso   1.000  H
  C94      1.0000 0.55290  0.13510  0.59480  Biso   1.000  C
  C95      1.0000 0.63770  0.03040  0.87550  Biso   1.000  C
  C96      1.0000 0.73300  0.07640  0.13100  Biso   1.000  C
  Co4      1.0000 0.55255  0.17750  0.38206  Biso   1.000  Co
  N19      1.0000 0.41530  0.44356  0.51250  Biso   1.000  N
  N20      1.0000 0.55340  0.40726  0.37700  Biso   1.000  N
  N21      1.0000 0.56630  0.22800  0.40120  Biso   1.000  N
  N22      1.0000 0.58990  0.28330  0.36720  Biso   1.000  N
  N23      1.0000 0.86660  0.33910  0.75650  Biso   1.000  N
  N24      1.0000 0.73860  0.35007  0.95750  Biso   1.000  N
  O19      1.0000 0.56470  0.16662  0.58050  Biso   1.000  O
  O20      1.0000 0.50470  0.11563  0.50040  Biso   1.000  O
  O21      1.0000 0.78510  0.01358  0.87610  Biso   1.000  O
  O22      1.0000 0.48010  0.01837  0.86590  Biso   1.000  O
  O23      1.0000 0.71560  0.04520  0.14810  Biso   1.000  O
  O24      1.0000 0.77040  0.09705  0.22630  Biso   1.000  O
  Zn4      1.0000 0.24231  0.46433  0.65226  Biso   1.000  Zn
