data_RUWWOW01_clean
_audit_creation_date              2014-07-02
_audit_creation_method            'Materials Studio'
_symmetry_space_group_name_H-M    'P1'
_symmetry_Int_Tables_number       1
_symmetry_cell_setting            triclinic
loop_
_symmetry_equiv_pos_as_xyz
  x,y,z
_cell_length_a                    9.3600
_cell_length_b                    9.9360
_cell_length_c                    11.3840
_cell_angle_alpha                 93.1820
_cell_angle_beta                  97.6170
_cell_angle_gamma                 110.2710
loop_
_atom_site_label
_atom_site_type_symbol
_atom_site_fract_x
_atom_site_fract_y
_atom_site_fract_z
_atom_site_U_iso_or_equiv
_atom_site_adp_type
_atom_site_occupancy
La1    La    0.71561   0.95199   0.01691   0.01267  Uiso   1.00
La2    La    0.28439   0.04801   0.98309   0.01267  Uiso   1.00
H1     H     0.68670   0.50590   0.96560   0.01267  Uiso   1.00
H2     H     0.80960   0.21620   0.77930   0.01267  Uiso   1.00
H3     H     0.08580   0.63550   0.83520   0.01267  Uiso   1.00
H4     H     0.82950   0.40090   0.57110   0.01267  Uiso   1.00
H5     H     0.74100   0.27740   0.38150   0.01267  Uiso   1.00
H6     H     0.07020   0.10710   0.42570   0.01267  Uiso   1.00
H7     H     0.16040   0.22840   0.61510   0.01267  Uiso   1.00
H8     H     0.31330   0.49410   0.03440   0.01267  Uiso   1.00
H9     H     0.19040   0.78380   0.22070   0.01267  Uiso   1.00
H10    H     0.91420   0.36450   0.16480   0.01267  Uiso   1.00
H11    H     0.17050   0.59910   0.42890   0.01267  Uiso   1.00
H12    H     0.25900   0.72260   0.61850   0.01267  Uiso   1.00
H13    H     0.92980   0.89290   0.57430   0.01267  Uiso   1.00
H14    H     0.83960   0.77160   0.38490   0.01267  Uiso   1.00
C1     C     0.92820   0.74190   0.97040   0.01267  Uiso   1.00
C2     C     0.89200   0.59280   0.91100   0.01267  Uiso   1.00
C3     C     0.75640   0.48470   0.92370   0.01267  Uiso   1.00
C4     C     0.72380   0.34410   0.87380   0.01267  Uiso   1.00
C5     C     0.57830   0.22650   0.89230   0.01267  Uiso   1.00
C6     C     0.82720   0.31050   0.80950   0.01267  Uiso   1.00
C7     C     0.95800   0.42550   0.79300   0.01267  Uiso   1.00
C8     C     0.99450   0.56300   0.84440   0.01267  Uiso   1.00
C9     C     0.00430   0.32400   0.61140   0.01267  Uiso   1.00
C10    C     0.87710   0.34090   0.54190   0.01267  Uiso   1.00
C11    C     0.82420   0.26640   0.42910   0.01267  Uiso   1.00
C12    C     0.89330   0.17620   0.38650   0.01267  Uiso   1.00
C13    C     0.82920   0.08920   0.26780   0.01267  Uiso   1.00
C14    C     0.02070   0.16480   0.45570   0.01267  Uiso   1.00
C15    C     0.07560   0.23800   0.56870   0.01267  Uiso   1.00
C16    C     0.07180   0.25810   0.02960   0.01267  Uiso   1.00
C17    C     0.10800   0.40720   0.08900   0.01267  Uiso   1.00
C18    C     0.24360   0.51530   0.07630   0.01267  Uiso   1.00
C19    C     0.27620   0.65590   0.12620   0.01267  Uiso   1.00
C20    C     0.42170   0.77350   0.10770   0.01267  Uiso   1.00
C21    C     0.17280   0.68950   0.19050   0.01267  Uiso   1.00
C22    C     0.04200   0.57450   0.20700   0.01267  Uiso   1.00
C23    C     0.00550   0.43700   0.15560   0.01267  Uiso   1.00
C24    C     0.99570   0.67600   0.38860   0.01267  Uiso   1.00
C25    C     0.12290   0.65910   0.45810   0.01267  Uiso   1.00
C26    C     0.17580   0.73360   0.57090   0.01267  Uiso   1.00
C27    C     0.10670   0.82380   0.61350   0.01267  Uiso   1.00
C28    C     0.17080   0.91080   0.73220   0.01267  Uiso   1.00
C29    C     0.97930   0.83520   0.54430   0.01267  Uiso   1.00
C30    C     0.92440   0.76200   0.43130   0.01267  Uiso   1.00
O1     O     0.05800   0.83610   0.97020   0.01267  Uiso   1.00
O2     O     0.82220   0.76410   0.01870   0.01267  Uiso   1.00
O3     O     0.45550   0.25440   0.88160   0.01267  Uiso   1.00
O4     O     0.58320   0.10540   0.92180   0.01267  Uiso   1.00
O5     O     0.06230   0.39780   0.72480   0.01267  Uiso   1.00
O6     O     0.71360   0.10610   0.20430   0.01267  Uiso   1.00
O7     O     0.88620   0.00160   0.22890   0.01267  Uiso   1.00
O8     O     0.94200   0.16390   0.02980   0.01267  Uiso   1.00
O9     O     0.17780   0.23590   0.98130   0.01267  Uiso   1.00
O10    O     0.54450   0.74560   0.11840   0.01267  Uiso   1.00
O11    O     0.41680   0.89460   0.07820   0.01267  Uiso   1.00
O12    O     0.93770   0.60220   0.27520   0.01267  Uiso   1.00
O13    O     0.28640   0.89390   0.79570   0.01267  Uiso   1.00
O14    O     0.11380   0.99840   0.77110   0.01267  Uiso   1.00
