data_RUWXAJ_clean
_audit_creation_date              2014-07-02
_audit_creation_method            'Materials Studio'
_symmetry_space_group_name_H-M    'P1'
_symmetry_Int_Tables_number       1
_symmetry_cell_setting            triclinic
loop_
_symmetry_equiv_pos_as_xyz
  x,y,z
_cell_length_a                    9.4910
_cell_length_b                    10.0520
_cell_length_c                    11.3440
_cell_angle_alpha                 94.4290
_cell_angle_beta                  97.9140
_cell_angle_gamma                 111.3860
loop_
_atom_site_label
_atom_site_type_symbol
_atom_site_fract_x
_atom_site_fract_y
_atom_site_fract_z
_atom_site_U_iso_or_equiv
_atom_site_adp_type
_atom_site_occupancy
La1    La    0.21401   0.45409   0.01294   0.01267  Uiso   1.00
La2    La    0.78599   0.54591   0.98706   0.01267  Uiso   1.00
H1     H     0.81990   0.99670   0.03930   0.01267  Uiso   1.00
H2     H     0.68880   0.28680   0.21120   0.01267  Uiso   1.00
H3     H     0.41640   0.86380   0.15770   0.01267  Uiso   1.00
H4     H     0.65420   0.08890   0.42540   0.01267  Uiso   1.00
H5     H     0.74490   0.21200   0.61470   0.01267  Uiso   1.00
H6     H     0.43790   0.39430   0.57250   0.01267  Uiso   1.00
H7     H     0.35220   0.28500   0.37290   0.01267  Uiso   1.00
H8     H     0.96000   0.19200   0.87000   0.01267  Uiso   1.00
H9     H     0.07000   0.26000   0.81000   0.01267  Uiso   1.00
H10    H     0.18010   0.00330   0.96070   0.01267  Uiso   1.00
H11    H     0.31120   0.71320   0.78880   0.01267  Uiso   1.00
H12    H     0.58360   0.13620   0.84230   0.01267  Uiso   1.00
H13    H     0.34580   0.91110   0.57460   0.01267  Uiso   1.00
H14    H     0.25510   0.78800   0.38530   0.01267  Uiso   1.00
H15    H     0.56210   0.60570   0.42750   0.01267  Uiso   1.00
H16    H     0.64780   0.71500   0.62710   0.01267  Uiso   1.00
H17    H     0.04000   0.80800   0.13000   0.01267  Uiso   1.00
H18    H     0.93000   0.74000   0.19000   0.01267  Uiso   1.00
C1     C     0.58060   0.75860   0.03200   0.01267  Uiso   1.00
C2     C     0.61270   0.90780   0.08720   0.01267  Uiso   1.00
C3     C     0.74800   0.01760   0.07720   0.01267  Uiso   1.00
C4     C     0.77740   0.15970   0.12380   0.01267  Uiso   1.00
C5     C     0.92300   0.27580   0.10600   0.01267  Uiso   1.00
C6     C     0.67210   0.19200   0.18290   0.01267  Uiso   1.00
C7     C     0.54290   0.07970   0.19810   0.01267  Uiso   1.00
C8     C     0.50730   0.93700   0.14930   0.01267  Uiso   1.00
C9     C     0.49510   0.17580   0.37860   0.01267  Uiso   1.00
C10    C     0.61250   0.15330   0.45330   0.01267  Uiso   1.00
C11    C     0.66540   0.22610   0.56650   0.01267  Uiso   1.00
C12    C     0.60460   0.32000   0.61190   0.01267  Uiso   1.00
C13    C     0.66570   0.40210   0.73390   0.01267  Uiso   1.00
C14    C     0.48450   0.33630   0.54070   0.01267  Uiso   1.00
C15    C     0.42970   0.26850   0.42150   0.01267  Uiso   1.00
C16    C     0.41940   0.24140   0.96800   0.01267  Uiso   1.00
C17    C     0.38730   0.09220   0.91280   0.01267  Uiso   1.00
C18    C     0.25200   0.98240   0.92280   0.01267  Uiso   1.00
C19    C     0.22260   0.84030   0.87620   0.01267  Uiso   1.00
C20    C     0.07700   0.72420   0.89400   0.01267  Uiso   1.00
C21    C     0.32790   0.80800   0.81710   0.01267  Uiso   1.00
C22    C     0.45710   0.92030   0.80190   0.01267  Uiso   1.00
C23    C     0.49270   0.06300   0.85070   0.01267  Uiso   1.00
C24    C     0.50490   0.82420   0.62140   0.01267  Uiso   1.00
C25    C     0.38750   0.84670   0.54670   0.01267  Uiso   1.00
C26    C     0.33460   0.77390   0.43350   0.01267  Uiso   1.00
C27    C     0.39540   0.68000   0.38810   0.01267  Uiso   1.00
C28    C     0.33430   0.59790   0.26610   0.01267  Uiso   1.00
C29    C     0.51550   0.66370   0.45930   0.01267  Uiso   1.00
C30    C     0.57030   0.73150   0.57850   0.01267  Uiso   1.00
O1     O     0.44700   0.66340   0.02700   0.01267  Uiso   1.00
O2     O     0.68530   0.73890   0.99230   0.01267  Uiso   1.00
O3     O     0.04470   0.25190   0.11390   0.01267  Uiso   1.00
O4     O     0.91920   0.39660   0.07860   0.01267  Uiso   1.00
O5     O     0.43790   0.10770   0.26160   0.01267  Uiso   1.00
O6     O     0.77310   0.37940   0.79990   0.01267  Uiso   1.00
O7     O     0.61740   0.49450   0.77260   0.01267  Uiso   1.00
O8     O     0.00290   0.27840   0.84830   0.01267  Uiso   1.00
O9     O     0.55300   0.33660   0.97300   0.01267  Uiso   1.00
O10    O     0.31470   0.26110   0.00770   0.01267  Uiso   1.00
O11    O     0.95530   0.74810   0.88610   0.01267  Uiso   1.00
O12    O     0.08080   0.60340   0.92140   0.01267  Uiso   1.00
O13    O     0.56210   0.89230   0.73840   0.01267  Uiso   1.00
O14    O     0.22690   0.62060   0.20010   0.01267  Uiso   1.00
O15    O     0.38260   0.50550   0.22740   0.01267  Uiso   1.00
O16    O     0.99710   0.72160   0.15170   0.01267  Uiso   1.00
