data_image0
_cell_length_a       37.526
_cell_length_b       8.8468
_cell_length_c       29.72
_cell_angle_alpha    90
_cell_angle_beta     127.61
_cell_angle_gamma    90

_symmetry_space_group_name_H-M    "P 1"
_symmetry_int_tables_number       1

loop_
  _symmetry_equiv_pos_as_xyz
  'x, y, z'

loop_
  _atom_site_label
  _atom_site_occupancy
  _atom_site_fract_x
  _atom_site_fract_y
  _atom_site_fract_z
  _atom_site_thermal_displace_type
  _atom_site_B_iso_or_equiv
  _atom_site_type_symbol
  N1       1.0000 0.25887  0.76090  0.93804  Biso   1.000  N
  H1       1.0000 0.27960  0.67970  0.94540  Biso   1.000  H
  N2       1.0000 0.20350  0.57720  0.96054  Biso   1.000  N
  H2       1.0000 0.21980  0.48200  0.96880  Biso   1.000  H
  N3       1.0000 0.19239  0.60440  0.87055  Biso   1.000  N
  C1       1.0000 0.21710  0.74130  0.87946  Biso   1.000  C
  H3       1.0000 0.19760  0.82740  0.86990  Biso   1.000  H
  H4       1.0000 0.22470  0.74120  0.85360  Biso   1.000  H
  C2       1.0000 0.17129  0.59500  0.89803  Biso   1.000  C
  H5       1.0000 0.15070  0.50990  0.88230  Biso   1.000  H
  H6       1.0000 0.15370  0.68590  0.88940  Biso   1.000  H
  C3       1.0000 0.28185  0.90670  0.94700  Biso   1.000  C
  H7       1.0000 0.26040  0.98920  0.93220  Biso   1.000  H
  H8       1.0000 0.29510  0.90620  0.92740  Biso   1.000  H
  C4       1.0000 0.18154  0.57320  0.98920  Biso   1.000  C
  H9       1.0000 0.16630  0.47740  0.98170  Biso   1.000  H
  H10      1.0000 0.15950  0.65370  0.97470  Biso   1.000  H
  C5       1.0000 0.21569  0.46480  0.87500  Biso   1.000  C
  H11      1.0000 0.24080  0.44740  0.91400  Biso   1.000  H
  H12      1.0000 0.22630  0.47490  0.85280  Biso   1.000  H
  H13      1.0000 0.19520  0.38110  0.86100  Biso   1.000  H
  N4       1.0000 0.56865  0.96830  0.04884  Biso   1.000  N
  H14      1.0000 0.58290  0.05680  0.07360  Biso   1.000  H
  N5       1.0000 0.49785  0.14230  0.94341  Biso   1.000  N
  H15      1.0000 0.50740  0.24290  0.96080  Biso   1.000  H
  N6       1.0000 0.57524  0.08080  0.97848  Biso   1.000  N
  C6       1.0000 0.44976  0.15230  0.89348  Biso   1.000  C
  H16      1.0000 0.44120  0.06330  0.86980  Biso   1.000  H
  H17      1.0000 0.44490  0.24050  0.87100  Biso   1.000  H
  C7       1.0000 0.52873  0.09470  0.92980  Biso   1.000  C
  H18      1.0000 0.51850  0.99820  0.91030  Biso   1.000  H
  H19      1.0000 0.52650  0.16790  0.90390  Biso   1.000  H
  C8       1.0000 0.57849  0.83650  0.08578  Biso   1.000  C
  H20      1.0000 0.61020  0.83530  0.11800  Biso   1.000  H
  H21      1.0000 0.57150  0.74350  0.06460  Biso   1.000  H
  C9       1.0000 0.58657  0.95510  0.01580  Biso   1.000  C
  H22      1.0000 0.61910  0.94610  0.04220  Biso   1.000  H
  H23      1.0000 0.57490  0.86320  0.99340  Biso   1.000  H
  C10      1.0000 0.59670  0.22410  0.00670  Biso   1.000  C
  H24      1.0000 0.58240  0.26610  0.02180  Biso   1.000  H
  H25      1.0000 0.59380  0.29330  0.97970  Biso   1.000  H
  H26      1.0000 0.62800  0.20720  0.03700  Biso   1.000  H
  O1       1.0000 0.49527  0.68810  0.19101  Biso   1.000  O
  C11      1.0000 0.52778  0.77840  0.23971  Biso   1.000  C
  H27      1.0000 0.54510  0.83940  0.23220  Biso   1.000  H
  H28      1.0000 0.54820  0.71480  0.27250  Biso   1.000  H
  O2       1.0000 0.50766  0.19430  0.04795  Biso   1.000  O
  O3       1.0000 0.58124  0.23720  0.11302  Biso   1.000  O
  O4       1.0000 0.30148  0.58360  0.04808  Biso   1.000  O
  C12      1.0000 0.52963  0.37290  0.11982  Biso   1.000  C
  C13      1.0000 0.46914  0.97810  0.19741  Biso   1.000  C
  H29      1.0000 0.48680  0.03460  0.18940  Biso   1.000  H
  H30      1.0000 0.44800  0.91520  0.16480  Biso   1.000  H
  C14      1.0000 0.41771  0.18390  0.16621  Biso   1.000  C
  C15      1.0000 0.38174  0.29890  0.07464  Biso   1.000  C
  H31      1.0000 0.37780  0.30540  0.04060  Biso   1.000  H
  C16      1.0000 0.35793  0.39680  0.08410  Biso   1.000  C
  C17      1.0000 0.56357  0.44200  0.17067  Biso   1.000  C
  H32      1.0000 0.59340  0.41680  0.18770  Biso   1.000  H
  C18      1.0000 0.50953  0.58330  0.17138  Biso   1.000  C
  C19      1.0000 0.55414  0.54820  0.19684  Biso   1.000  C
  H33      1.0000 0.57730  0.59450  0.23060  Biso   1.000  H
  C20      1.0000 0.41126  0.19180  0.11455  Biso   1.000  C
  H34      1.0000 0.42650  0.12640  0.10710  Biso   1.000  H
  C21      1.0000 0.54024  0.26040  0.09120  Biso   1.000  C
  O5       1.0000 0.32640  0.53100  0.99810  Biso   1.000  O
  C22      1.0000 0.39452  0.28140  0.17649  Biso   1.000  C
  H35      1.0000 0.39900  0.27670  0.21090  Biso   1.000  H
  C23      1.0000 0.36479  0.38530  0.13595  Biso   1.000  C
  H36      1.0000 0.34900  0.44880  0.14310  Biso   1.000  H
  C24      1.0000 0.48518  0.41010  0.09538  Biso   1.000  C
  H37      1.0000 0.46200  0.36430  0.06150  Biso   1.000  H
  C25      1.0000 0.32596  0.51120  0.03972  Biso   1.000  C
  C26      1.0000 0.47499  0.51330  0.12040  Biso   1.000  C
  H38      1.0000 0.44510  0.53680  0.10360  Biso   1.000  H
  O6       1.0000 0.44539  0.07970  0.20785  Biso   1.000  O
  N7       1.0000 0.75887  0.26090  0.93804  Biso   1.000  N
  H39      1.0000 0.77960  0.17970  0.94540  Biso   1.000  H
  N8       1.0000 0.70350  0.07720  0.96054  Biso   1.000  N
  H40      1.0000 0.71980  0.98200  0.96880  Biso   1.000  H
  N9       1.0000 0.69239  0.10440  0.87055  Biso   1.000  N
  C27      1.0000 0.71710  0.24130  0.87946  Biso   1.000  C
  H41      1.0000 0.69760  0.32740  0.86990  Biso   1.000  H
  H42      1.0000 0.72470  0.24120  0.85360  Biso   1.000  H
  C28      1.0000 0.67129  0.09500  0.89803  Biso   1.000  C
  H43      1.0000 0.65070  0.00990  0.88230  Biso   1.000  H
  H44      1.0000 0.65370  0.18590  0.88940  Biso   1.000  H
  C29      1.0000 0.78185  0.40670  0.94700  Biso   1.000  C
  H45      1.0000 0.76040  0.48920  0.93220  Biso   1.000  H
  H46      1.0000 0.79510  0.40620  0.92740  Biso   1.000  H
  C30      1.0000 0.68154  0.07320  0.98920  Biso   1.000  C
  H47      1.0000 0.66630  0.97740  0.98170  Biso   1.000  H
  H48      1.0000 0.65950  0.15370  0.97470  Biso   1.000  H
  C31      1.0000 0.71569  0.96480  0.87500  Biso   1.000  C
  H49      1.0000 0.74080  0.94740  0.91400  Biso   1.000  H
  H50      1.0000 0.72630  0.97490  0.85280  Biso   1.000  H
  H51      1.0000 0.69520  0.88110  0.86100  Biso   1.000  H
  N10      1.0000 0.06865  0.46830  0.04884  Biso   1.000  N
  H52      1.0000 0.08290  0.55680  0.07360  Biso   1.000  H
  N11      1.0000 0.99785  0.64230  0.94341  Biso   1.000  N
  H53      1.0000 0.00740  0.74290  0.96080  Biso   1.000  H
  N12      1.0000 0.07524  0.58080  0.97848  Biso   1.000  N
  C32      1.0000 0.94976  0.65230  0.89348  Biso   1.000  C
  H54      1.0000 0.94120  0.56330  0.86980  Biso   1.000  H
  H55      1.0000 0.94490  0.74050  0.87100  Biso   1.000  H
  C33      1.0000 0.02873  0.59470  0.92980  Biso   1.000  C
  H56      1.0000 0.01850  0.49820  0.91030  Biso   1.000  H
  H57      1.0000 0.02650  0.66790  0.90390  Biso   1.000  H
  C34      1.0000 0.07849  0.33650  0.08578  Biso   1.000  C
  H58      1.0000 0.11020  0.33530  0.11800  Biso   1.000  H
  H59      1.0000 0.07150  0.24350  0.06460  Biso   1.000  H
  C35      1.0000 0.08657  0.45510  0.01580  Biso   1.000  C
  H60      1.0000 0.11910  0.44610  0.04220  Biso   1.000  H
  H61      1.0000 0.07490  0.36320  0.99340  Biso   1.000  H
  C36      1.0000 0.09670  0.72410  0.00670  Biso   1.000  C
  H62      1.0000 0.08240  0.76610  0.02180  Biso   1.000  H
  H63      1.0000 0.09380  0.79330  0.97970  Biso   1.000  H
  H64      1.0000 0.12800  0.70720  0.03700  Biso   1.000  H
  O7       1.0000 0.99527  0.18810  0.19101  Biso   1.000  O
  C37      1.0000 0.02778  0.27840  0.23971  Biso   1.000  C
  H65      1.0000 0.04510  0.33940  0.23220  Biso   1.000  H
  H66      1.0000 0.04820  0.21480  0.27250  Biso   1.000  H
  O8       1.0000 0.00766  0.69430  0.04795  Biso   1.000  O
  O9       1.0000 0.08124  0.73720  0.11302  Biso   1.000  O
  O10      1.0000 0.80148  0.08360  0.04808  Biso   1.000  O
  C38      1.0000 0.02963  0.87290  0.11982  Biso   1.000  C
  C39      1.0000 0.96914  0.47810  0.19741  Biso   1.000  C
  H67      1.0000 0.98680  0.53460  0.18940  Biso   1.000  H
  H68      1.0000 0.94800  0.41520  0.16480  Biso   1.000  H
  C40      1.0000 0.91771  0.68390  0.16621  Biso   1.000  C
  C41      1.0000 0.88174  0.79890  0.07464  Biso   1.000  C
  H69      1.0000 0.87780  0.80540  0.04060  Biso   1.000  H
  C42      1.0000 0.85793  0.89680  0.08410  Biso   1.000  C
  C43      1.0000 0.06357  0.94200  0.17067  Biso   1.000  C
  H70      1.0000 0.09340  0.91680  0.18770  Biso   1.000  H
  C44      1.0000 0.00953  0.08330  0.17138  Biso   1.000  C
  C45      1.0000 0.05414  0.04820  0.19684  Biso   1.000  C
  H71      1.0000 0.07730  0.09450  0.23060  Biso   1.000  H
  C46      1.0000 0.91126  0.69180  0.11455  Biso   1.000  C
  H72      1.0000 0.92650  0.62640  0.10710  Biso   1.000  H
  C47      1.0000 0.04024  0.76040  0.09120  Biso   1.000  C
  O11      1.0000 0.82640  0.03100  0.99810  Biso   1.000  O
  C48      1.0000 0.89452  0.78140  0.17649  Biso   1.000  C
  H73      1.0000 0.89900  0.77670  0.21090  Biso   1.000  H
  C49      1.0000 0.86479  0.88530  0.13595  Biso   1.000  C
  H74      1.0000 0.84900  0.94880  0.14310  Biso   1.000  H
  C50      1.0000 0.98518  0.91010  0.09538  Biso   1.000  C
  H75      1.0000 0.96200  0.86430  0.06150  Biso   1.000  H
  C51      1.0000 0.82596  0.01120  0.03972  Biso   1.000  C
  C52      1.0000 0.97499  0.01330  0.12040  Biso   1.000  C
  H76      1.0000 0.94510  0.03680  0.10360  Biso   1.000  H
  O12      1.0000 0.94539  0.57970  0.20785  Biso   1.000  O
  N13      1.0000 0.74113  0.76090  0.56196  Biso   1.000  N
  H77      1.0000 0.72040  0.67970  0.55460  Biso   1.000  H
  N14      1.0000 0.79650  0.57720  0.53946  Biso   1.000  N
  H78      1.0000 0.78020  0.48200  0.53120  Biso   1.000  H
  N15      1.0000 0.80761  0.60440  0.62945  Biso   1.000  N
  C53      1.0000 0.78290  0.74130  0.62054  Biso   1.000  C
  H79      1.0000 0.80240  0.82740  0.63010  Biso   1.000  H
  H80      1.0000 0.77530  0.74120  0.64640  Biso   1.000  H
  C54      1.0000 0.82871  0.59500  0.60197  Biso   1.000  C
  H81      1.0000 0.84930  0.50990  0.61770  Biso   1.000  H
  H82      1.0000 0.84630  0.68590  0.61060  Biso   1.000  H
  C55      1.0000 0.71815  0.90670  0.55300  Biso   1.000  C
  H83      1.0000 0.73960  0.98920  0.56780  Biso   1.000  H
  H84      1.0000 0.70490  0.90620  0.57260  Biso   1.000  H
  C56      1.0000 0.81846  0.57320  0.51080  Biso   1.000  C
  H85      1.0000 0.83370  0.47740  0.51830  Biso   1.000  H
  H86      1.0000 0.84050  0.65370  0.52530  Biso   1.000  H
  C57      1.0000 0.78431  0.46480  0.62500  Biso   1.000  C
  H87      1.0000 0.75920  0.44740  0.58600  Biso   1.000  H
  H88      1.0000 0.77370  0.47490  0.64720  Biso   1.000  H
  H89      1.0000 0.80480  0.38110  0.63900  Biso   1.000  H
  N16      1.0000 0.43135  0.96830  0.45116  Biso   1.000  N
  H90      1.0000 0.41710  0.05680  0.42640  Biso   1.000  H
  N17      1.0000 0.50215  0.14230  0.55659  Biso   1.000  N
  H91      1.0000 0.49260  0.24290  0.53920  Biso   1.000  H
  N18      1.0000 0.42476  0.08080  0.52152  Biso   1.000  N
  C58      1.0000 0.55024  0.15230  0.60652  Biso   1.000  C
  H92      1.0000 0.55880  0.06330  0.63020  Biso   1.000  H
  H93      1.0000 0.55510  0.24050  0.62900  Biso   1.000  H
  C59      1.0000 0.47127  0.09470  0.57020  Biso   1.000  C
  H94      1.0000 0.48150  0.99820  0.58970  Biso   1.000  H
  H95      1.0000 0.47350  0.16790  0.59610  Biso   1.000  H
  C60      1.0000 0.42151  0.83650  0.41422  Biso   1.000  C
  H96      1.0000 0.38980  0.83530  0.38200  Biso   1.000  H
  H97      1.0000 0.42850  0.74350  0.43540  Biso   1.000  H
  C61      1.0000 0.41343  0.95510  0.48420  Biso   1.000  C
  H98      1.0000 0.38090  0.94610  0.45780  Biso   1.000  H
  H99      1.0000 0.42510  0.86320  0.50660  Biso   1.000  H
  C62      1.0000 0.40330  0.22410  0.49330  Biso   1.000  C
  H100     1.0000 0.41760  0.26610  0.47820  Biso   1.000  H
  H101     1.0000 0.40620  0.29330  0.52030  Biso   1.000  H
  H102     1.0000 0.37200  0.20720  0.46300  Biso   1.000  H
  O13      1.0000 0.50473  0.68810  0.30899  Biso   1.000  O
  C63      1.0000 0.47222  0.77840  0.26029  Biso   1.000  C
  H103     1.0000 0.45490  0.83940  0.26780  Biso   1.000  H
  H104     1.0000 0.45180  0.71480  0.22750  Biso   1.000  H
  O14      1.0000 0.49234  0.19430  0.45205  Biso   1.000  O
  O15      1.0000 0.41876  0.23720  0.38698  Biso   1.000  O
  O16      1.0000 0.69852  0.58360  0.45192  Biso   1.000  O
  C64      1.0000 0.47037  0.37290  0.38018  Biso   1.000  C
  C65      1.0000 0.53086  0.97810  0.30259  Biso   1.000  C
  H105     1.0000 0.51320  0.03460  0.31060  Biso   1.000  H
  H106     1.0000 0.55200  0.91520  0.33520  Biso   1.000  H
  C66      1.0000 0.58229  0.18390  0.33379  Biso   1.000  C
  C67      1.0000 0.61826  0.29890  0.42536  Biso   1.000  C
  H107     1.0000 0.62220  0.30540  0.45940  Biso   1.000  H
  C68      1.0000 0.64207  0.39680  0.41590  Biso   1.000  C
  C69      1.0000 0.43643  0.44200  0.32933  Biso   1.000  C
  H108     1.0000 0.40660  0.41680  0.31230  Biso   1.000  H
  C70      1.0000 0.49047  0.58330  0.32862  Biso   1.000  C
  C71      1.0000 0.44586  0.54820  0.30316  Biso   1.000  C
  H109     1.0000 0.42270  0.59450  0.26940  Biso   1.000  H
  C72      1.0000 0.58874  0.19180  0.38545  Biso   1.000  C
  H110     1.0000 0.57350  0.12640  0.39290  Biso   1.000  H
  C73      1.0000 0.45976  0.26040  0.40880  Biso   1.000  C
  O17      1.0000 0.67360  0.53100  0.50190  Biso   1.000  O
  C74      1.0000 0.60548  0.28140  0.32351  Biso   1.000  C
  H111     1.0000 0.60100  0.27670  0.28910  Biso   1.000  H
  C75      1.0000 0.63521  0.38530  0.36405  Biso   1.000  C
  H112     1.0000 0.65100  0.44880  0.35690  Biso   1.000  H
  C76      1.0000 0.51482  0.41010  0.40462  Biso   1.000  C
  H113     1.0000 0.53800  0.36430  0.43850  Biso   1.000  H
  C77      1.0000 0.67404  0.51120  0.46028  Biso   1.000  C
  C78      1.0000 0.52501  0.51330  0.37960  Biso   1.000  C
  H114     1.0000 0.55490  0.53680  0.39640  Biso   1.000  H
  O18      1.0000 0.55461  0.07970  0.29215  Biso   1.000  O
  N19      1.0000 0.24113  0.26090  0.56196  Biso   1.000  N
  H115     1.0000 0.22040  0.17970  0.55460  Biso   1.000  H
  N20      1.0000 0.29650  0.07720  0.53946  Biso   1.000  N
  H116     1.0000 0.28020  0.98200  0.53120  Biso   1.000  H
  N21      1.0000 0.30761  0.10440  0.62945  Biso   1.000  N
  C79      1.0000 0.28290  0.24130  0.62054  Biso   1.000  C
  H117     1.0000 0.30240  0.32740  0.63010  Biso   1.000  H
  H118     1.0000 0.27530  0.24120  0.64640  Biso   1.000  H
  C80      1.0000 0.32871  0.09500  0.60197  Biso   1.000  C
  H119     1.0000 0.34930  0.00990  0.61770  Biso   1.000  H
  H120     1.0000 0.34630  0.18590  0.61060  Biso   1.000  H
  C81      1.0000 0.21815  0.40670  0.55300  Biso   1.000  C
  H121     1.0000 0.23960  0.48920  0.56780  Biso   1.000  H
  H122     1.0000 0.20490  0.40620  0.57260  Biso   1.000  H
  C82      1.0000 0.31846  0.07320  0.51080  Biso   1.000  C
  H123     1.0000 0.33370  0.97740  0.51830  Biso   1.000  H
  H124     1.0000 0.34050  0.15370  0.52530  Biso   1.000  H
  C83      1.0000 0.28431  0.96480  0.62500  Biso   1.000  C
  H125     1.0000 0.25920  0.94740  0.58600  Biso   1.000  H
  H126     1.0000 0.27370  0.97490  0.64720  Biso   1.000  H
  H127     1.0000 0.30480  0.88110  0.63900  Biso   1.000  H
  N22      1.0000 0.93135  0.46830  0.45116  Biso   1.000  N
  H128     1.0000 0.91710  0.55680  0.42640  Biso   1.000  H
  N23      1.0000 0.00215  0.64230  0.55659  Biso   1.000  N
  H129     1.0000 0.99260  0.74290  0.53920  Biso   1.000  H
  N24      1.0000 0.92476  0.58080  0.52152  Biso   1.000  N
  C84      1.0000 0.05024  0.65230  0.60652  Biso   1.000  C
  H130     1.0000 0.05880  0.56330  0.63020  Biso   1.000  H
  H131     1.0000 0.05510  0.74050  0.62900  Biso   1.000  H
  C85      1.0000 0.97127  0.59470  0.57020  Biso   1.000  C
  H132     1.0000 0.98150  0.49820  0.58970  Biso   1.000  H
  H133     1.0000 0.97350  0.66790  0.59610  Biso   1.000  H
  C86      1.0000 0.92151  0.33650  0.41422  Biso   1.000  C
  H134     1.0000 0.88980  0.33530  0.38200  Biso   1.000  H
  H135     1.0000 0.92850  0.24350  0.43540  Biso   1.000  H
  C87      1.0000 0.91343  0.45510  0.48420  Biso   1.000  C
  H136     1.0000 0.88090  0.44610  0.45780  Biso   1.000  H
  H137     1.0000 0.92510  0.36320  0.50660  Biso   1.000  H
  C88      1.0000 0.90330  0.72410  0.49330  Biso   1.000  C
  H138     1.0000 0.91760  0.76610  0.47820  Biso   1.000  H
  H139     1.0000 0.90620  0.79330  0.52030  Biso   1.000  H
  H140     1.0000 0.87200  0.70720  0.46300  Biso   1.000  H
  O19      1.0000 0.00473  0.18810  0.30899  Biso   1.000  O
  C89      1.0000 0.97222  0.27840  0.26029  Biso   1.000  C
  H141     1.0000 0.95490  0.33940  0.26780  Biso   1.000  H
  H142     1.0000 0.95180  0.21480  0.22750  Biso   1.000  H
  O20      1.0000 0.99234  0.69430  0.45205  Biso   1.000  O
  O21      1.0000 0.91876  0.73720  0.38698  Biso   1.000  O
  O22      1.0000 0.19852  0.08360  0.45192  Biso   1.000  O
  C90      1.0000 0.97037  0.87290  0.38018  Biso   1.000  C
  C91      1.0000 0.03086  0.47810  0.30259  Biso   1.000  C
  H143     1.0000 0.01320  0.53460  0.31060  Biso   1.000  H
  H144     1.0000 0.05200  0.41520  0.33520  Biso   1.000  H
  C92      1.0000 0.08229  0.68390  0.33379  Biso   1.000  C
  C93      1.0000 0.11826  0.79890  0.42536  Biso   1.000  C
  H145     1.0000 0.12220  0.80540  0.45940  Biso   1.000  H
  C94      1.0000 0.14207  0.89680  0.41590  Biso   1.000  C
  C95      1.0000 0.93643  0.94200  0.32933  Biso   1.000  C
  H146     1.0000 0.90660  0.91680  0.31230  Biso   1.000  H
  C96      1.0000 0.99047  0.08330  0.32862  Biso   1.000  C
  C97      1.0000 0.94586  0.04820  0.30316  Biso   1.000  C
  H147     1.0000 0.92270  0.09450  0.26940  Biso   1.000  H
  C98      1.0000 0.08874  0.69180  0.38545  Biso   1.000  C
  H148     1.0000 0.07350  0.62640  0.39290  Biso   1.000  H
  C99      1.0000 0.95976  0.76040  0.40880  Biso   1.000  C
  O23      1.0000 0.17360  0.03100  0.50190  Biso   1.000  O
  C100     1.0000 0.10548  0.78140  0.32351  Biso   1.000  C
  H149     1.0000 0.10100  0.77670  0.28910  Biso   1.000  H
  C101     1.0000 0.13521  0.88530  0.36405  Biso   1.000  C
  H150     1.0000 0.15100  0.94880  0.35690  Biso   1.000  H
  C102     1.0000 0.01482  0.91010  0.40462  Biso   1.000  C
  H151     1.0000 0.03800  0.86430  0.43850  Biso   1.000  H
  C103     1.0000 0.17404  0.01120  0.46028  Biso   1.000  C
  C104     1.0000 0.02501  0.01330  0.37960  Biso   1.000  C
  H152     1.0000 0.05490  0.03680  0.39640  Biso   1.000  H
  O24      1.0000 0.05461  0.57970  0.29215  Biso   1.000  O
  N25      1.0000 0.74113  0.23910  0.06196  Biso   1.000  N
  H153     1.0000 0.72040  0.32030  0.05460  Biso   1.000  H
  N26      1.0000 0.79650  0.42280  0.03946  Biso   1.000  N
  H154     1.0000 0.78020  0.51800  0.03120  Biso   1.000  H
  N27      1.0000 0.80761  0.39560  0.12945  Biso   1.000  N
  C105     1.0000 0.78290  0.25870  0.12054  Biso   1.000  C
  H155     1.0000 0.80240  0.17260  0.13010  Biso   1.000  H
  H156     1.0000 0.77530  0.25880  0.14640  Biso   1.000  H
  C106     1.0000 0.82871  0.40500  0.10197  Biso   1.000  C
  H157     1.0000 0.84930  0.49010  0.11770  Biso   1.000  H
  H158     1.0000 0.84630  0.31410  0.11060  Biso   1.000  H
  C107     1.0000 0.71815  0.09330  0.05300  Biso   1.000  C
  H159     1.0000 0.73960  0.01080  0.06780  Biso   1.000  H
  H160     1.0000 0.70490  0.09380  0.07260  Biso   1.000  H
  C108     1.0000 0.81846  0.42680  0.01080  Biso   1.000  C
  H161     1.0000 0.83370  0.52260  0.01830  Biso   1.000  H
  H162     1.0000 0.84050  0.34630  0.02530  Biso   1.000  H
  C109     1.0000 0.78431  0.53520  0.12500  Biso   1.000  C
  H163     1.0000 0.75920  0.55260  0.08600  Biso   1.000  H
  H164     1.0000 0.77370  0.52510  0.14720  Biso   1.000  H
  H165     1.0000 0.80480  0.61890  0.13900  Biso   1.000  H
  N28      1.0000 0.43135  0.03170  0.95116  Biso   1.000  N
  H166     1.0000 0.41710  0.94320  0.92640  Biso   1.000  H
  N29      1.0000 0.50215  0.85770  0.05659  Biso   1.000  N
  H167     1.0000 0.49260  0.75710  0.03920  Biso   1.000  H
  N30      1.0000 0.42476  0.91920  0.02152  Biso   1.000  N
  C110     1.0000 0.55024  0.84770  0.10652  Biso   1.000  C
  H168     1.0000 0.55880  0.93670  0.13020  Biso   1.000  H
  H169     1.0000 0.55510  0.75950  0.12900  Biso   1.000  H
  C111     1.0000 0.47127  0.90530  0.07020  Biso   1.000  C
  H170     1.0000 0.48150  0.00180  0.08970  Biso   1.000  H
  H171     1.0000 0.47350  0.83210  0.09610  Biso   1.000  H
  C112     1.0000 0.42151  0.16350  0.91422  Biso   1.000  C
  H172     1.0000 0.38980  0.16470  0.88200  Biso   1.000  H
  H173     1.0000 0.42850  0.25650  0.93540  Biso   1.000  H
  C113     1.0000 0.41343  0.04490  0.98420  Biso   1.000  C
  H174     1.0000 0.38090  0.05390  0.95780  Biso   1.000  H
  H175     1.0000 0.42510  0.13680  0.00660  Biso   1.000  H
  C114     1.0000 0.40330  0.77590  0.99330  Biso   1.000  C
  H176     1.0000 0.41760  0.73390  0.97820  Biso   1.000  H
  H177     1.0000 0.40620  0.70670  0.02030  Biso   1.000  H
  H178     1.0000 0.37200  0.79280  0.96300  Biso   1.000  H
  O25      1.0000 0.50473  0.31190  0.80899  Biso   1.000  O
  C115     1.0000 0.47222  0.22160  0.76029  Biso   1.000  C
  H179     1.0000 0.45490  0.16060  0.76780  Biso   1.000  H
  H180     1.0000 0.45180  0.28520  0.72750  Biso   1.000  H
  O26      1.0000 0.49234  0.80570  0.95205  Biso   1.000  O
  O27      1.0000 0.41876  0.76280  0.88698  Biso   1.000  O
  O28      1.0000 0.69852  0.41640  0.95192  Biso   1.000  O
  C116     1.0000 0.47037  0.62710  0.88018  Biso   1.000  C
  C117     1.0000 0.53086  0.02190  0.80259  Biso   1.000  C
  H181     1.0000 0.51320  0.96540  0.81060  Biso   1.000  H
  H182     1.0000 0.55200  0.08480  0.83520  Biso   1.000  H
  C118     1.0000 0.58229  0.81610  0.83379  Biso   1.000  C
  C119     1.0000 0.61826  0.70110  0.92536  Biso   1.000  C
  H183     1.0000 0.62220  0.69460  0.95940  Biso   1.000  H
  C120     1.0000 0.64207  0.60320  0.91590  Biso   1.000  C
  C121     1.0000 0.43643  0.55800  0.82933  Biso   1.000  C
  H184     1.0000 0.40660  0.58320  0.81230  Biso   1.000  H
  C122     1.0000 0.49047  0.41670  0.82862  Biso   1.000  C
  C123     1.0000 0.44586  0.45180  0.80316  Biso   1.000  C
  H185     1.0000 0.42270  0.40550  0.76940  Biso   1.000  H
  C124     1.0000 0.58874  0.80820  0.88545  Biso   1.000  C
  H186     1.0000 0.57350  0.87360  0.89290  Biso   1.000  H
  C125     1.0000 0.45976  0.73960  0.90880  Biso   1.000  C
  O29      1.0000 0.67360  0.46900  0.00190  Biso   1.000  O
  C126     1.0000 0.60548  0.71860  0.82351  Biso   1.000  C
  H187     1.0000 0.60100  0.72330  0.78910  Biso   1.000  H
  C127     1.0000 0.63521  0.61470  0.86405  Biso   1.000  C
  H188     1.0000 0.65100  0.55120  0.85690  Biso   1.000  H
  C128     1.0000 0.51482  0.58990  0.90462  Biso   1.000  C
  H189     1.0000 0.53800  0.63570  0.93850  Biso   1.000  H
  C129     1.0000 0.67404  0.48880  0.96028  Biso   1.000  C
  C130     1.0000 0.52501  0.48670  0.87960  Biso   1.000  C
  H190     1.0000 0.55490  0.46320  0.89640  Biso   1.000  H
  O30      1.0000 0.55461  0.92030  0.79215  Biso   1.000  O
  N31      1.0000 0.24113  0.73910  0.06196  Biso   1.000  N
  H191     1.0000 0.22040  0.82030  0.05460  Biso   1.000  H
  N32      1.0000 0.29650  0.92280  0.03946  Biso   1.000  N
  H192     1.0000 0.28020  0.01800  0.03120  Biso   1.000  H
  N33      1.0000 0.30761  0.89560  0.12945  Biso   1.000  N
  C131     1.0000 0.28290  0.75870  0.12054  Biso   1.000  C
  H193     1.0000 0.30240  0.67260  0.13010  Biso   1.000  H
  H194     1.0000 0.27530  0.75880  0.14640  Biso   1.000  H
  C132     1.0000 0.32871  0.90500  0.10197  Biso   1.000  C
  H195     1.0000 0.34930  0.99010  0.11770  Biso   1.000  H
  H196     1.0000 0.34630  0.81410  0.11060  Biso   1.000  H
  C133     1.0000 0.21815  0.59330  0.05300  Biso   1.000  C
  H197     1.0000 0.23960  0.51080  0.06780  Biso   1.000  H
  H198     1.0000 0.20490  0.59380  0.07260  Biso   1.000  H
  C134     1.0000 0.31846  0.92680  0.01080  Biso   1.000  C
  H199     1.0000 0.33370  0.02260  0.01830  Biso   1.000  H
  H200     1.0000 0.34050  0.84630  0.02530  Biso   1.000  H
  C135     1.0000 0.28431  0.03520  0.12500  Biso   1.000  C
  H201     1.0000 0.25920  0.05260  0.08600  Biso   1.000  H
  H202     1.0000 0.27370  0.02510  0.14720  Biso   1.000  H
  H203     1.0000 0.30480  0.11890  0.13900  Biso   1.000  H
  N34      1.0000 0.93135  0.53170  0.95116  Biso   1.000  N
  H204     1.0000 0.91710  0.44320  0.92640  Biso   1.000  H
  N35      1.0000 0.00215  0.35770  0.05659  Biso   1.000  N
  H205     1.0000 0.99260  0.25710  0.03920  Biso   1.000  H
  N36      1.0000 0.92476  0.41920  0.02152  Biso   1.000  N
  C136     1.0000 0.05024  0.34770  0.10652  Biso   1.000  C
  H206     1.0000 0.05880  0.43670  0.13020  Biso   1.000  H
  H207     1.0000 0.05510  0.25950  0.12900  Biso   1.000  H
  C137     1.0000 0.97127  0.40530  0.07020  Biso   1.000  C
  H208     1.0000 0.98150  0.50180  0.08970  Biso   1.000  H
  H209     1.0000 0.97350  0.33210  0.09610  Biso   1.000  H
  C138     1.0000 0.92151  0.66350  0.91422  Biso   1.000  C
  H210     1.0000 0.88980  0.66470  0.88200  Biso   1.000  H
  H211     1.0000 0.92850  0.75650  0.93540  Biso   1.000  H
  C139     1.0000 0.91343  0.54490  0.98420  Biso   1.000  C
  H212     1.0000 0.88090  0.55390  0.95780  Biso   1.000  H
  H213     1.0000 0.92510  0.63680  0.00660  Biso   1.000  H
  C140     1.0000 0.90330  0.27590  0.99330  Biso   1.000  C
  H214     1.0000 0.91760  0.23390  0.97820  Biso   1.000  H
  H215     1.0000 0.90620  0.20670  0.02030  Biso   1.000  H
  H216     1.0000 0.87200  0.29280  0.96300  Biso   1.000  H
  O31      1.0000 0.00473  0.81190  0.80899  Biso   1.000  O
  C141     1.0000 0.97222  0.72160  0.76029  Biso   1.000  C
  H217     1.0000 0.95490  0.66060  0.76780  Biso   1.000  H
  H218     1.0000 0.95180  0.78520  0.72750  Biso   1.000  H
  O32      1.0000 0.99234  0.30570  0.95205  Biso   1.000  O
  O33      1.0000 0.91876  0.26280  0.88698  Biso   1.000  O
  O34      1.0000 0.19852  0.91640  0.95192  Biso   1.000  O
  C142     1.0000 0.97037  0.12710  0.88018  Biso   1.000  C
  C143     1.0000 0.03086  0.52190  0.80259  Biso   1.000  C
  H219     1.0000 0.01320  0.46540  0.81060  Biso   1.000  H
  H220     1.0000 0.05200  0.58480  0.83520  Biso   1.000  H
  C144     1.0000 0.08229  0.31610  0.83379  Biso   1.000  C
  C145     1.0000 0.11826  0.20110  0.92536  Biso   1.000  C
  H221     1.0000 0.12220  0.19460  0.95940  Biso   1.000  H
  C146     1.0000 0.14207  0.10320  0.91590  Biso   1.000  C
  C147     1.0000 0.93643  0.05800  0.82933  Biso   1.000  C
  H222     1.0000 0.90660  0.08320  0.81230  Biso   1.000  H
  C148     1.0000 0.99047  0.91670  0.82862  Biso   1.000  C
  C149     1.0000 0.94586  0.95180  0.80316  Biso   1.000  C
  H223     1.0000 0.92270  0.90550  0.76940  Biso   1.000  H
  C150     1.0000 0.08874  0.30820  0.88545  Biso   1.000  C
  H224     1.0000 0.07350  0.37360  0.89290  Biso   1.000  H
  C151     1.0000 0.95976  0.23960  0.90880  Biso   1.000  C
  O35      1.0000 0.17360  0.96900  0.00190  Biso   1.000  O
  C152     1.0000 0.10548  0.21860  0.82351  Biso   1.000  C
  H225     1.0000 0.10100  0.22330  0.78910  Biso   1.000  H
  C153     1.0000 0.13521  0.11470  0.86405  Biso   1.000  C
  H226     1.0000 0.15100  0.05120  0.85690  Biso   1.000  H
  C154     1.0000 0.01482  0.08990  0.90462  Biso   1.000  C
  H227     1.0000 0.03800  0.13570  0.93850  Biso   1.000  H
  C155     1.0000 0.17404  0.98880  0.96028  Biso   1.000  C
  C156     1.0000 0.02501  0.98670  0.87960  Biso   1.000  C
  H228     1.0000 0.05490  0.96320  0.89640  Biso   1.000  H
  O36      1.0000 0.05461  0.42030  0.79215  Biso   1.000  O
  N37      1.0000 0.25887  0.23910  0.43804  Biso   1.000  N
  H229     1.0000 0.27960  0.32030  0.44540  Biso   1.000  H
  N38      1.0000 0.20350  0.42280  0.46054  Biso   1.000  N
  H230     1.0000 0.21980  0.51800  0.46880  Biso   1.000  H
  N39      1.0000 0.19239  0.39560  0.37055  Biso   1.000  N
  C157     1.0000 0.21710  0.25870  0.37946  Biso   1.000  C
  H231     1.0000 0.19760  0.17260  0.36990  Biso   1.000  H
  H232     1.0000 0.22470  0.25880  0.35360  Biso   1.000  H
  C158     1.0000 0.17129  0.40500  0.39803  Biso   1.000  C
  H233     1.0000 0.15070  0.49010  0.38230  Biso   1.000  H
  H234     1.0000 0.15370  0.31410  0.38940  Biso   1.000  H
  C159     1.0000 0.28185  0.09330  0.44700  Biso   1.000  C
  H235     1.0000 0.26040  0.01080  0.43220  Biso   1.000  H
  H236     1.0000 0.29510  0.09380  0.42740  Biso   1.000  H
  C160     1.0000 0.18154  0.42680  0.48920  Biso   1.000  C
  H237     1.0000 0.16630  0.52260  0.48170  Biso   1.000  H
  H238     1.0000 0.15950  0.34630  0.47470  Biso   1.000  H
  C161     1.0000 0.21569  0.53520  0.37500  Biso   1.000  C
  H239     1.0000 0.24080  0.55260  0.41400  Biso   1.000  H
  H240     1.0000 0.22630  0.52510  0.35280  Biso   1.000  H
  H241     1.0000 0.19520  0.61890  0.36100  Biso   1.000  H
  N40      1.0000 0.56865  0.03170  0.54884  Biso   1.000  N
  H242     1.0000 0.58290  0.94320  0.57360  Biso   1.000  H
  N41      1.0000 0.49785  0.85770  0.44341  Biso   1.000  N
  H243     1.0000 0.50740  0.75710  0.46080  Biso   1.000  H
  N42      1.0000 0.57524  0.91920  0.47848  Biso   1.000  N
  C162     1.0000 0.44976  0.84770  0.39348  Biso   1.000  C
  H244     1.0000 0.44120  0.93670  0.36980  Biso   1.000  H
  H245     1.0000 0.44490  0.75950  0.37100  Biso   1.000  H
  C163     1.0000 0.52873  0.90530  0.42980  Biso   1.000  C
  H246     1.0000 0.51850  0.00180  0.41030  Biso   1.000  H
  H247     1.0000 0.52650  0.83210  0.40390  Biso   1.000  H
  C164     1.0000 0.57849  0.16350  0.58578  Biso   1.000  C
  H248     1.0000 0.61020  0.16470  0.61800  Biso   1.000  H
  H249     1.0000 0.57150  0.25650  0.56460  Biso   1.000  H
  C165     1.0000 0.58657  0.04490  0.51580  Biso   1.000  C
  H250     1.0000 0.61910  0.05390  0.54220  Biso   1.000  H
  H251     1.0000 0.57490  0.13680  0.49340  Biso   1.000  H
  C166     1.0000 0.59670  0.77590  0.50670  Biso   1.000  C
  H252     1.0000 0.58240  0.73390  0.52180  Biso   1.000  H
  H253     1.0000 0.59380  0.70670  0.47970  Biso   1.000  H
  H254     1.0000 0.62800  0.79280  0.53700  Biso   1.000  H
  O37      1.0000 0.49527  0.31190  0.69101  Biso   1.000  O
  C167     1.0000 0.52778  0.22160  0.73971  Biso   1.000  C
  H255     1.0000 0.54510  0.16060  0.73220  Biso   1.000  H
  H256     1.0000 0.54820  0.28520  0.77250  Biso   1.000  H
  O38      1.0000 0.50766  0.80570  0.54795  Biso   1.000  O
  O39      1.0000 0.58124  0.76280  0.61302  Biso   1.000  O
  O40      1.0000 0.30148  0.41640  0.54808  Biso   1.000  O
  C168     1.0000 0.52963  0.62710  0.61982  Biso   1.000  C
  C169     1.0000 0.46914  0.02190  0.69741  Biso   1.000  C
  H257     1.0000 0.48680  0.96540  0.68940  Biso   1.000  H
  H258     1.0000 0.44800  0.08480  0.66480  Biso   1.000  H
  C170     1.0000 0.41771  0.81610  0.66621  Biso   1.000  C
  C171     1.0000 0.38174  0.70110  0.57464  Biso   1.000  C
  H259     1.0000 0.37780  0.69460  0.54060  Biso   1.000  H
  C172     1.0000 0.35793  0.60320  0.58410  Biso   1.000  C
  C173     1.0000 0.56357  0.55800  0.67067  Biso   1.000  C
  H260     1.0000 0.59340  0.58320  0.68770  Biso   1.000  H
  C174     1.0000 0.50953  0.41670  0.67138  Biso   1.000  C
  C175     1.0000 0.55414  0.45180  0.69684  Biso   1.000  C
  H261     1.0000 0.57730  0.40550  0.73060  Biso   1.000  H
  C176     1.0000 0.41126  0.80820  0.61455  Biso   1.000  C
  H262     1.0000 0.42650  0.87360  0.60710  Biso   1.000  H
  C177     1.0000 0.54024  0.73960  0.59120  Biso   1.000  C
  O41      1.0000 0.32640  0.46900  0.49810  Biso   1.000  O
  C178     1.0000 0.39452  0.71860  0.67649  Biso   1.000  C
  H263     1.0000 0.39900  0.72330  0.71090  Biso   1.000  H
  C179     1.0000 0.36479  0.61470  0.63595  Biso   1.000  C
  H264     1.0000 0.34900  0.55120  0.64310  Biso   1.000  H
  C180     1.0000 0.48518  0.58990  0.59538  Biso   1.000  C
  H265     1.0000 0.46200  0.63570  0.56150  Biso   1.000  H
  C181     1.0000 0.32596  0.48880  0.53972  Biso   1.000  C
  C182     1.0000 0.47499  0.48670  0.62040  Biso   1.000  C
  H266     1.0000 0.44510  0.46320  0.60360  Biso   1.000  H
  O42      1.0000 0.44539  0.92030  0.70785  Biso   1.000  O
  N43      1.0000 0.75887  0.73910  0.43804  Biso   1.000  N
  H267     1.0000 0.77960  0.82030  0.44540  Biso   1.000  H
  N44      1.0000 0.70350  0.92280  0.46054  Biso   1.000  N
  H268     1.0000 0.71980  0.01800  0.46880  Biso   1.000  H
  N45      1.0000 0.69239  0.89560  0.37055  Biso   1.000  N
  C183     1.0000 0.71710  0.75870  0.37946  Biso   1.000  C
  H269     1.0000 0.69760  0.67260  0.36990  Biso   1.000  H
  H270     1.0000 0.72470  0.75880  0.35360  Biso   1.000  H
  C184     1.0000 0.67129  0.90500  0.39803  Biso   1.000  C
  H271     1.0000 0.65070  0.99010  0.38230  Biso   1.000  H
  H272     1.0000 0.65370  0.81410  0.38940  Biso   1.000  H
  C185     1.0000 0.78185  0.59330  0.44700  Biso   1.000  C
  H273     1.0000 0.76040  0.51080  0.43220  Biso   1.000  H
  H274     1.0000 0.79510  0.59380  0.42740  Biso   1.000  H
  C186     1.0000 0.68154  0.92680  0.48920  Biso   1.000  C
  H275     1.0000 0.66630  0.02260  0.48170  Biso   1.000  H
  H276     1.0000 0.65950  0.84630  0.47470  Biso   1.000  H
  C187     1.0000 0.71569  0.03520  0.37500  Biso   1.000  C
  H277     1.0000 0.74080  0.05260  0.41400  Biso   1.000  H
  H278     1.0000 0.72630  0.02510  0.35280  Biso   1.000  H
  H279     1.0000 0.69520  0.11890  0.36100  Biso   1.000  H
  N46      1.0000 0.06865  0.53170  0.54884  Biso   1.000  N
  H280     1.0000 0.08290  0.44320  0.57360  Biso   1.000  H
  N47      1.0000 0.99785  0.35770  0.44341  Biso   1.000  N
  H281     1.0000 0.00740  0.25710  0.46080  Biso   1.000  H
  N48      1.0000 0.07524  0.41920  0.47848  Biso   1.000  N
  C188     1.0000 0.94976  0.34770  0.39348  Biso   1.000  C
  H282     1.0000 0.94120  0.43670  0.36980  Biso   1.000  H
  H283     1.0000 0.94490  0.25950  0.37100  Biso   1.000  H
  C189     1.0000 0.02873  0.40530  0.42980  Biso   1.000  C
  H284     1.0000 0.01850  0.50180  0.41030  Biso   1.000  H
  H285     1.0000 0.02650  0.33210  0.40390  Biso   1.000  H
  C190     1.0000 0.07849  0.66350  0.58578  Biso   1.000  C
  H286     1.0000 0.11020  0.66470  0.61800  Biso   1.000  H
  H287     1.0000 0.07150  0.75650  0.56460  Biso   1.000  H
  C191     1.0000 0.08657  0.54490  0.51580  Biso   1.000  C
  H288     1.0000 0.11910  0.55390  0.54220  Biso   1.000  H
  H289     1.0000 0.07490  0.63680  0.49340  Biso   1.000  H
  C192     1.0000 0.09670  0.27590  0.50670  Biso   1.000  C
  H290     1.0000 0.08240  0.23390  0.52180  Biso   1.000  H
  H291     1.0000 0.09380  0.20670  0.47970  Biso   1.000  H
  H292     1.0000 0.12800  0.29280  0.53700  Biso   1.000  H
  O43      1.0000 0.99527  0.81190  0.69101  Biso   1.000  O
  C193     1.0000 0.02778  0.72160  0.73971  Biso   1.000  C
  H293     1.0000 0.04510  0.66060  0.73220  Biso   1.000  H
  H294     1.0000 0.04820  0.78520  0.77250  Biso   1.000  H
  O44      1.0000 0.00766  0.30570  0.54795  Biso   1.000  O
  O45      1.0000 0.08124  0.26280  0.61302  Biso   1.000  O
  O46      1.0000 0.80148  0.91640  0.54808  Biso   1.000  O
  C194     1.0000 0.02963  0.12710  0.61982  Biso   1.000  C
  C195     1.0000 0.96914  0.52190  0.69741  Biso   1.000  C
  H295     1.0000 0.98680  0.46540  0.68940  Biso   1.000  H
  H296     1.0000 0.94800  0.58480  0.66480  Biso   1.000  H
  C196     1.0000 0.91771  0.31610  0.66621  Biso   1.000  C
  C197     1.0000 0.88174  0.20110  0.57464  Biso   1.000  C
  H297     1.0000 0.87780  0.19460  0.54060  Biso   1.000  H
  C198     1.0000 0.85793  0.10320  0.58410  Biso   1.000  C
  C199     1.0000 0.06357  0.05800  0.67067  Biso   1.000  C
  H298     1.0000 0.09340  0.08320  0.68770  Biso   1.000  H
  C200     1.0000 0.00953  0.91670  0.67138  Biso   1.000  C
  C201     1.0000 0.05414  0.95180  0.69684  Biso   1.000  C
  H299     1.0000 0.07730  0.90550  0.73060  Biso   1.000  H
  C202     1.0000 0.91126  0.30820  0.61455  Biso   1.000  C
  H300     1.0000 0.92650  0.37360  0.60710  Biso   1.000  H
  C203     1.0000 0.04024  0.23960  0.59120  Biso   1.000  C
  O47      1.0000 0.82640  0.96900  0.49810  Biso   1.000  O
  C204     1.0000 0.89452  0.21860  0.67649  Biso   1.000  C
  H301     1.0000 0.89900  0.22330  0.71090  Biso   1.000  H
  C205     1.0000 0.86479  0.11470  0.63595  Biso   1.000  C
  H302     1.0000 0.84900  0.05120  0.64310  Biso   1.000  H
  C206     1.0000 0.98518  0.08990  0.59538  Biso   1.000  C
  H303     1.0000 0.96200  0.13570  0.56150  Biso   1.000  H
  C207     1.0000 0.82596  0.98880  0.53972  Biso   1.000  C
  C208     1.0000 0.97499  0.98670  0.62040  Biso   1.000  C
  H304     1.0000 0.94510  0.96320  0.60360  Biso   1.000  H
  O48      1.0000 0.94539  0.42030  0.70785  Biso   1.000  O
  Ni1      1.0000 0.25000  0.75000  0.00000  Biso   1.000  Ni
  Ni2      1.0000 0.75000  0.75000  0.50000  Biso   1.000  Ni
  Ni3      1.0000 0.75000  0.25000  0.00000  Biso   1.000  Ni
  Ni4      1.0000 0.25000  0.25000  0.50000  Biso   1.000  Ni
  Ni5      1.0000 0.50000  0.00000  0.00000  Biso   1.000  Ni
  Ni6      1.0000 0.00000  0.50000  0.00000  Biso   1.000  Ni
  Ni7      1.0000 0.50000  0.00000  0.50000  Biso   1.000  Ni
  Ni8      1.0000 0.00000  0.50000  0.50000  Biso   1.000  Ni
  C209     1.0000 0.50000  0.87920  0.25000  Biso   1.000  C
  C210     1.0000 0.00000  0.37920  0.25000  Biso   1.000  C
  C211     1.0000 0.50000  0.12080  0.75000  Biso   1.000  C
  C212     1.0000 0.00000  0.62080  0.75000  Biso   1.000  C
