data_image0
_cell_length_a       24.197
_cell_length_b       24.197
_cell_length_c       13.1426
_cell_angle_alpha    90
_cell_angle_beta     90
_cell_angle_gamma    120

_symmetry_space_group_name_H-M    "P 1"
_symmetry_int_tables_number       1

loop_
  _symmetry_equiv_pos_as_xyz
  'x, y, z'

loop_
  _atom_site_label
  _atom_site_occupancy
  _atom_site_fract_x
  _atom_site_fract_y
  _atom_site_fract_z
  _atom_site_thermal_displace_type
  _atom_site_B_iso_or_equiv
  _atom_site_type_symbol
  O1       1.0000 0.76426  0.03560  0.10840  Biso   1.000  O
  O2       1.0000 0.71559  0.06953  0.00170  Biso   1.000  O
  O3       1.0000 0.99360  0.56750  0.08420  Biso   1.000  O
  C1       1.0000 0.94160  0.25220  0.01240  Biso   1.000  C
  C2       1.0000 0.88440  0.24670  0.97610  Biso   1.000  C
  H1       1.0000 0.88440  0.28120  0.94540  Biso   1.000  H
  C3       1.0000 0.82750  0.18850  0.98680  Biso   1.000  C
  H2       1.0000 0.79010  0.18490  0.96130  Biso   1.000  H
  C4       1.0000 0.82530  0.13790  0.03280  Biso   1.000  C
  C5       1.0000 0.94060  0.20020  0.06230  Biso   1.000  C
  H3       1.0000 0.97780  0.20370  0.08840  Biso   1.000  H
  C6       1.0000 0.88210  0.14300  0.07210  Biso   1.000  C
  H4       1.0000 0.88070  0.10820  0.10460  Biso   1.000  H
  C7       1.0000 0.76610  0.07630  0.04860  Biso   1.000  C
  C8       1.0000 0.97270  0.38400  0.07890  Biso   1.000  C
  H5       1.0000 0.95300  0.35500  0.13150  Biso   1.000  H
  C9       1.0000 0.97470  0.44180  0.07980  Biso   1.000  C
  H6       1.0000 0.95860  0.45280  0.13550  Biso   1.000  H
  O4       1.0000 0.43093  0.36893  0.44173  Biso   1.000  O
  O5       1.0000 0.38226  0.40286  0.33503  Biso   1.000  O
  O6       1.0000 0.66027  0.90083  0.41753  Biso   1.000  O
  C10      1.0000 0.60827  0.58553  0.34573  Biso   1.000  C
  C11      1.0000 0.55107  0.58003  0.30943  Biso   1.000  C
  H7       1.0000 0.55107  0.61453  0.27873  Biso   1.000  H
  C12      1.0000 0.49417  0.52183  0.32013  Biso   1.000  C
  H8       1.0000 0.45677  0.51823  0.29463  Biso   1.000  H
  C13      1.0000 0.49197  0.47123  0.36613  Biso   1.000  C
  C14      1.0000 0.60727  0.53353  0.39563  Biso   1.000  C
  H9       1.0000 0.64447  0.53703  0.42173  Biso   1.000  H
  C15      1.0000 0.54877  0.47633  0.40543  Biso   1.000  C
  H10      1.0000 0.54737  0.44153  0.43793  Biso   1.000  H
  C16      1.0000 0.43277  0.40963  0.38193  Biso   1.000  C
  C17      1.0000 0.63937  0.71733  0.41223  Biso   1.000  C
  H11      1.0000 0.61967  0.68833  0.46483  Biso   1.000  H
  C18      1.0000 0.64137  0.77513  0.41313  Biso   1.000  C
  H12      1.0000 0.62527  0.78613  0.46883  Biso   1.000  H
  O7       1.0000 0.09759  0.70227  0.77507  Biso   1.000  O
  O8       1.0000 0.04892  0.73620  0.66837  Biso   1.000  O
  O9       1.0000 0.32693  0.23417  0.75087  Biso   1.000  O
  C19      1.0000 0.27493  0.91887  0.67907  Biso   1.000  C
  C20      1.0000 0.21773  0.91337  0.64277  Biso   1.000  C
  H13      1.0000 0.21773  0.94787  0.61207  Biso   1.000  H
  C21      1.0000 0.16083  0.85517  0.65347  Biso   1.000  C
  H14      1.0000 0.12343  0.85157  0.62797  Biso   1.000  H
  C22      1.0000 0.15863  0.80457  0.69947  Biso   1.000  C
  C23      1.0000 0.27393  0.86687  0.72897  Biso   1.000  C
  H15      1.0000 0.31113  0.87037  0.75507  Biso   1.000  H
  C24      1.0000 0.21543  0.80967  0.73877  Biso   1.000  C
  H16      1.0000 0.21403  0.77487  0.77127  Biso   1.000  H
  C25      1.0000 0.09943  0.74297  0.71527  Biso   1.000  C
  C26      1.0000 0.30603  0.05067  0.74557  Biso   1.000  C
  H17      1.0000 0.28633  0.02167  0.79817  Biso   1.000  H
  C27      1.0000 0.30803  0.10847  0.74647  Biso   1.000  C
  H18      1.0000 0.29193  0.11947  0.80217  Biso   1.000  H
  O10      1.0000 0.96440  0.72866  0.10840  Biso   1.000  O
  O11      1.0000 0.93047  0.64606  0.00170  Biso   1.000  O
  O12      1.0000 0.43250  0.42610  0.08420  Biso   1.000  O
  C28      1.0000 0.74780  0.68940  0.01240  Biso   1.000  C
  C29      1.0000 0.75330  0.63770  0.97610  Biso   1.000  C
  H19      1.0000 0.71880  0.60320  0.94540  Biso   1.000  H
  C30      1.0000 0.81150  0.63900  0.98680  Biso   1.000  C
  H20      1.0000 0.81510  0.60520  0.96130  Biso   1.000  H
  C31      1.0000 0.86210  0.68740  0.03280  Biso   1.000  C
  C32      1.0000 0.79980  0.74040  0.06230  Biso   1.000  C
  H21      1.0000 0.79630  0.77410  0.08840  Biso   1.000  H
  C33      1.0000 0.85700  0.73910  0.07210  Biso   1.000  C
  H22      1.0000 0.89180  0.77250  0.10460  Biso   1.000  H
  C34      1.0000 0.92370  0.68980  0.04860  Biso   1.000  C
  C35      1.0000 0.61600  0.58870  0.07890  Biso   1.000  C
  H23      1.0000 0.64500  0.59800  0.13150  Biso   1.000  H
  C36      1.0000 0.55820  0.53290  0.07980  Biso   1.000  C
  H24      1.0000 0.54720  0.50580  0.13550  Biso   1.000  H
  O13      1.0000 0.63107  0.06199  0.44173  Biso   1.000  O
  O14      1.0000 0.59714  0.97939  0.33503  Biso   1.000  O
  O15      1.0000 0.09917  0.75943  0.41753  Biso   1.000  O
  C37      1.0000 0.41447  0.02273  0.34573  Biso   1.000  C
  C38      1.0000 0.41997  0.97103  0.30943  Biso   1.000  C
  H25      1.0000 0.38547  0.93653  0.27873  Biso   1.000  H
  C39      1.0000 0.47817  0.97233  0.32013  Biso   1.000  C
  H26      1.0000 0.48177  0.93853  0.29463  Biso   1.000  H
  C40      1.0000 0.52877  0.02073  0.36613  Biso   1.000  C
  C41      1.0000 0.46647  0.07373  0.39563  Biso   1.000  C
  H27      1.0000 0.46297  0.10743  0.42173  Biso   1.000  H
  C42      1.0000 0.52367  0.07243  0.40543  Biso   1.000  C
  H28      1.0000 0.55847  0.10583  0.43793  Biso   1.000  H
  C43      1.0000 0.59037  0.02313  0.38193  Biso   1.000  C
  C44      1.0000 0.28267  0.92203  0.41223  Biso   1.000  C
  H29      1.0000 0.31167  0.93133  0.46483  Biso   1.000  H
  C45      1.0000 0.22487  0.86623  0.41313  Biso   1.000  C
  H30      1.0000 0.21387  0.83913  0.46883  Biso   1.000  H
  O16      1.0000 0.29773  0.39533  0.77507  Biso   1.000  O
  O17      1.0000 0.26380  0.31273  0.66837  Biso   1.000  O
  O18      1.0000 0.76583  0.09277  0.75087  Biso   1.000  O
  C46      1.0000 0.08113  0.35607  0.67907  Biso   1.000  C
  C47      1.0000 0.08663  0.30437  0.64277  Biso   1.000  C
  H31      1.0000 0.05213  0.26987  0.61207  Biso   1.000  H
  C48      1.0000 0.14483  0.30567  0.65347  Biso   1.000  C
  H32      1.0000 0.14843  0.27187  0.62797  Biso   1.000  H
  C49      1.0000 0.19543  0.35407  0.69947  Biso   1.000  C
  C50      1.0000 0.13313  0.40707  0.72897  Biso   1.000  C
  H33      1.0000 0.12963  0.44077  0.75507  Biso   1.000  H
  C51      1.0000 0.19033  0.40577  0.73877  Biso   1.000  C
  H34      1.0000 0.22513  0.43917  0.77127  Biso   1.000  H
  C52      1.0000 0.25703  0.35647  0.71527  Biso   1.000  C
  C53      1.0000 0.94933  0.25537  0.74557  Biso   1.000  C
  H35      1.0000 0.97833  0.26467  0.79817  Biso   1.000  H
  C54      1.0000 0.89153  0.19957  0.74647  Biso   1.000  C
  H36      1.0000 0.88053  0.17247  0.80217  Biso   1.000  H
  O19      1.0000 0.27134  0.23574  0.10840  Biso   1.000  O
  O20      1.0000 0.35394  0.28441  0.00170  Biso   1.000  O
  O21      1.0000 0.57390  0.00640  0.08420  Biso   1.000  O
  C55      1.0000 0.31060  0.05840  0.01240  Biso   1.000  C
  C56      1.0000 0.36230  0.11560  0.97610  Biso   1.000  C
  H37      1.0000 0.39680  0.11560  0.94540  Biso   1.000  H
  C57      1.0000 0.36100  0.17250  0.98680  Biso   1.000  C
  H38      1.0000 0.39480  0.20990  0.96130  Biso   1.000  H
  C58      1.0000 0.31260  0.17470  0.03280  Biso   1.000  C
  C59      1.0000 0.25960  0.05940  0.06230  Biso   1.000  C
  H39      1.0000 0.22590  0.02220  0.08840  Biso   1.000  H
  C60      1.0000 0.26090  0.11790  0.07210  Biso   1.000  C
  H40      1.0000 0.22750  0.11930  0.10460  Biso   1.000  H
  C61      1.0000 0.31020  0.23390  0.04860  Biso   1.000  C
  C62      1.0000 0.41130  0.02730  0.07890  Biso   1.000  C
  H41      1.0000 0.40200  0.04700  0.13150  Biso   1.000  H
  C63      1.0000 0.46710  0.02530  0.07980  Biso   1.000  C
  H42      1.0000 0.49420  0.04140  0.13550  Biso   1.000  H
  O22      1.0000 0.93801  0.56907  0.44173  Biso   1.000  O
  O23      1.0000 0.02061  0.61774  0.33503  Biso   1.000  O
  O24      1.0000 0.24057  0.33973  0.41753  Biso   1.000  O
  C64      1.0000 0.97727  0.39173  0.34573  Biso   1.000  C
  C65      1.0000 0.02897  0.44893  0.30943  Biso   1.000  C
  H43      1.0000 0.06347  0.44893  0.27873  Biso   1.000  H
  C66      1.0000 0.02767  0.50583  0.32013  Biso   1.000  C
  H44      1.0000 0.06147  0.54323  0.29463  Biso   1.000  H
  C67      1.0000 0.97927  0.50803  0.36613  Biso   1.000  C
  C68      1.0000 0.92627  0.39273  0.39563  Biso   1.000  C
  H45      1.0000 0.89257  0.35553  0.42173  Biso   1.000  H
  C69      1.0000 0.92757  0.45123  0.40543  Biso   1.000  C
  H46      1.0000 0.89417  0.45263  0.43793  Biso   1.000  H
  C70      1.0000 0.97687  0.56723  0.38193  Biso   1.000  C
  C71      1.0000 0.07797  0.36063  0.41223  Biso   1.000  C
  H47      1.0000 0.06867  0.38033  0.46483  Biso   1.000  H
  C72      1.0000 0.13377  0.35863  0.41313  Biso   1.000  C
  H48      1.0000 0.16087  0.37473  0.46883  Biso   1.000  H
  O25      1.0000 0.60467  0.90241  0.77507  Biso   1.000  O
  O26      1.0000 0.68727  0.95108  0.66837  Biso   1.000  O
  O27      1.0000 0.90723  0.67307  0.75087  Biso   1.000  O
  C73      1.0000 0.64393  0.72507  0.67907  Biso   1.000  C
  C74      1.0000 0.69563  0.78227  0.64277  Biso   1.000  C
  H49      1.0000 0.73013  0.78227  0.61207  Biso   1.000  H
  C75      1.0000 0.69433  0.83917  0.65347  Biso   1.000  C
  H50      1.0000 0.72813  0.87657  0.62797  Biso   1.000  H
  C76      1.0000 0.64593  0.84137  0.69947  Biso   1.000  C
  C77      1.0000 0.59293  0.72607  0.72897  Biso   1.000  C
  H51      1.0000 0.55923  0.68887  0.75507  Biso   1.000  H
  C78      1.0000 0.59423  0.78457  0.73877  Biso   1.000  C
  H52      1.0000 0.56083  0.78597  0.77127  Biso   1.000  H
  C79      1.0000 0.64353  0.90057  0.71527  Biso   1.000  C
  C80      1.0000 0.74463  0.69397  0.74557  Biso   1.000  C
  H53      1.0000 0.73533  0.71367  0.79817  Biso   1.000  H
  C81      1.0000 0.80043  0.69197  0.74647  Biso   1.000  C
  H54      1.0000 0.82753  0.70807  0.80217  Biso   1.000  H
  O28      1.0000 0.03560  0.76426  0.89160  Biso   1.000  O
  O29      1.0000 0.06953  0.71559  0.99830  Biso   1.000  O
  O30      1.0000 0.56750  0.99360  0.91580  Biso   1.000  O
  C82      1.0000 0.25220  0.94160  0.98760  Biso   1.000  C
  C83      1.0000 0.24670  0.88440  0.02390  Biso   1.000  C
  H55      1.0000 0.28120  0.88440  0.05460  Biso   1.000  H
  C84      1.0000 0.18850  0.82750  0.01320  Biso   1.000  C
  H56      1.0000 0.18490  0.79010  0.03870  Biso   1.000  H
  C85      1.0000 0.13790  0.82530  0.96720  Biso   1.000  C
  C86      1.0000 0.20020  0.94060  0.93770  Biso   1.000  C
  H57      1.0000 0.20370  0.97780  0.91160  Biso   1.000  H
  C87      1.0000 0.14300  0.88210  0.92790  Biso   1.000  C
  H58      1.0000 0.10820  0.88070  0.89540  Biso   1.000  H
  C88      1.0000 0.07630  0.76610  0.95140  Biso   1.000  C
  C89      1.0000 0.38400  0.97270  0.92110  Biso   1.000  C
  H59      1.0000 0.35500  0.95300  0.86850  Biso   1.000  H
  C90      1.0000 0.44180  0.97470  0.92020  Biso   1.000  C
  H60      1.0000 0.45280  0.95860  0.86450  Biso   1.000  H
  O31      1.0000 0.70227  0.09759  0.22493  Biso   1.000  O
  O32      1.0000 0.73620  0.04892  0.33163  Biso   1.000  O
  O33      1.0000 0.23417  0.32693  0.24913  Biso   1.000  O
  C91      1.0000 0.91887  0.27493  0.32093  Biso   1.000  C
  C92      1.0000 0.91337  0.21773  0.35723  Biso   1.000  C
  H61      1.0000 0.94787  0.21773  0.38793  Biso   1.000  H
  C93      1.0000 0.85517  0.16083  0.34653  Biso   1.000  C
  H62      1.0000 0.85157  0.12343  0.37203  Biso   1.000  H
  C94      1.0000 0.80457  0.15863  0.30053  Biso   1.000  C
  C95      1.0000 0.86687  0.27393  0.27103  Biso   1.000  C
  H63      1.0000 0.87037  0.31113  0.24493  Biso   1.000  H
  C96      1.0000 0.80967  0.21543  0.26123  Biso   1.000  C
  H64      1.0000 0.77487  0.21403  0.22873  Biso   1.000  H
  C97      1.0000 0.74297  0.09943  0.28473  Biso   1.000  C
  C98      1.0000 0.05067  0.30603  0.25443  Biso   1.000  C
  H65      1.0000 0.02167  0.28633  0.20183  Biso   1.000  H
  C99      1.0000 0.10847  0.30803  0.25353  Biso   1.000  C
  H66      1.0000 0.11947  0.29193  0.19783  Biso   1.000  H
  O34      1.0000 0.36893  0.43093  0.55827  Biso   1.000  O
  O35      1.0000 0.40286  0.38226  0.66497  Biso   1.000  O
  O36      1.0000 0.90083  0.66027  0.58247  Biso   1.000  O
  C100     1.0000 0.58553  0.60827  0.65427  Biso   1.000  C
  C101     1.0000 0.58003  0.55107  0.69057  Biso   1.000  C
  H67      1.0000 0.61453  0.55107  0.72127  Biso   1.000  H
  C102     1.0000 0.52183  0.49417  0.67987  Biso   1.000  C
  H68      1.0000 0.51823  0.45677  0.70537  Biso   1.000  H
  C103     1.0000 0.47123  0.49197  0.63387  Biso   1.000  C
  C104     1.0000 0.53353  0.60727  0.60437  Biso   1.000  C
  H69      1.0000 0.53703  0.64447  0.57827  Biso   1.000  H
  C105     1.0000 0.47633  0.54877  0.59457  Biso   1.000  C
  H70      1.0000 0.44153  0.54737  0.56207  Biso   1.000  H
  C106     1.0000 0.40963  0.43277  0.61807  Biso   1.000  C
  C107     1.0000 0.71733  0.63937  0.58777  Biso   1.000  C
  H71      1.0000 0.68833  0.61967  0.53517  Biso   1.000  H
  C108     1.0000 0.77513  0.64137  0.58687  Biso   1.000  C
  H72      1.0000 0.78613  0.62527  0.53117  Biso   1.000  H
  O37      1.0000 0.72866  0.96440  0.89160  Biso   1.000  O
  O38      1.0000 0.64606  0.93047  0.99830  Biso   1.000  O
  O39      1.0000 0.42610  0.43250  0.91580  Biso   1.000  O
  C109     1.0000 0.68940  0.74780  0.98760  Biso   1.000  C
  C110     1.0000 0.63770  0.75330  0.02390  Biso   1.000  C
  H73      1.0000 0.60320  0.71880  0.05460  Biso   1.000  H
  C111     1.0000 0.63900  0.81150  0.01320  Biso   1.000  C
  H74      1.0000 0.60520  0.81510  0.03870  Biso   1.000  H
  C112     1.0000 0.68740  0.86210  0.96720  Biso   1.000  C
  C113     1.0000 0.74040  0.79980  0.93770  Biso   1.000  C
  H75      1.0000 0.77410  0.79630  0.91160  Biso   1.000  H
  C114     1.0000 0.73910  0.85700  0.92790  Biso   1.000  C
  H76      1.0000 0.77250  0.89180  0.89540  Biso   1.000  H
  C115     1.0000 0.68980  0.92370  0.95140  Biso   1.000  C
  C116     1.0000 0.58870  0.61600  0.92110  Biso   1.000  C
  H77      1.0000 0.59800  0.64500  0.86850  Biso   1.000  H
  C117     1.0000 0.53290  0.55820  0.92020  Biso   1.000  C
  H78      1.0000 0.50580  0.54720  0.86450  Biso   1.000  H
  O40      1.0000 0.39533  0.29773  0.22493  Biso   1.000  O
  O41      1.0000 0.31273  0.26380  0.33163  Biso   1.000  O
  O42      1.0000 0.09277  0.76583  0.24913  Biso   1.000  O
  C118     1.0000 0.35607  0.08113  0.32093  Biso   1.000  C
  C119     1.0000 0.30437  0.08663  0.35723  Biso   1.000  C
  H79      1.0000 0.26987  0.05213  0.38793  Biso   1.000  H
  C120     1.0000 0.30567  0.14483  0.34653  Biso   1.000  C
  H80      1.0000 0.27187  0.14843  0.37203  Biso   1.000  H
  C121     1.0000 0.35407  0.19543  0.30053  Biso   1.000  C
  C122     1.0000 0.40707  0.13313  0.27103  Biso   1.000  C
  H81      1.0000 0.44077  0.12963  0.24493  Biso   1.000  H
  C123     1.0000 0.40577  0.19033  0.26123  Biso   1.000  C
  H82      1.0000 0.43917  0.22513  0.22873  Biso   1.000  H
  C124     1.0000 0.35647  0.25703  0.28473  Biso   1.000  C
  C125     1.0000 0.25537  0.94933  0.25443  Biso   1.000  C
  H83      1.0000 0.26467  0.97833  0.20183  Biso   1.000  H
  C126     1.0000 0.19957  0.89153  0.25353  Biso   1.000  C
  H84      1.0000 0.17247  0.88053  0.19783  Biso   1.000  H
  O43      1.0000 0.06199  0.63107  0.55827  Biso   1.000  O
  O44      1.0000 0.97939  0.59714  0.66497  Biso   1.000  O
  O45      1.0000 0.75943  0.09917  0.58247  Biso   1.000  O
  C127     1.0000 0.02273  0.41447  0.65427  Biso   1.000  C
  C128     1.0000 0.97103  0.41997  0.69057  Biso   1.000  C
  H85      1.0000 0.93653  0.38547  0.72127  Biso   1.000  H
  C129     1.0000 0.97233  0.47817  0.67987  Biso   1.000  C
  H86      1.0000 0.93853  0.48177  0.70537  Biso   1.000  H
  C130     1.0000 0.02073  0.52877  0.63387  Biso   1.000  C
  C131     1.0000 0.07373  0.46647  0.60437  Biso   1.000  C
  H87      1.0000 0.10743  0.46297  0.57827  Biso   1.000  H
  C132     1.0000 0.07243  0.52367  0.59457  Biso   1.000  C
  H88      1.0000 0.10583  0.55847  0.56207  Biso   1.000  H
  C133     1.0000 0.02313  0.59037  0.61807  Biso   1.000  C
  C134     1.0000 0.92203  0.28267  0.58777  Biso   1.000  C
  H89      1.0000 0.93133  0.31167  0.53517  Biso   1.000  H
  C135     1.0000 0.86623  0.22487  0.58687  Biso   1.000  C
  H90      1.0000 0.83913  0.21387  0.53117  Biso   1.000  H
  O46      1.0000 0.23574  0.27134  0.89160  Biso   1.000  O
  O47      1.0000 0.28441  0.35394  0.99830  Biso   1.000  O
  O48      1.0000 0.00640  0.57390  0.91580  Biso   1.000  O
  C136     1.0000 0.05840  0.31060  0.98760  Biso   1.000  C
  C137     1.0000 0.11560  0.36230  0.02390  Biso   1.000  C
  H91      1.0000 0.11560  0.39680  0.05460  Biso   1.000  H
  C138     1.0000 0.17250  0.36100  0.01320  Biso   1.000  C
  H92      1.0000 0.20990  0.39480  0.03870  Biso   1.000  H
  C139     1.0000 0.17470  0.31260  0.96720  Biso   1.000  C
  C140     1.0000 0.05940  0.25960  0.93770  Biso   1.000  C
  H93      1.0000 0.02220  0.22590  0.91160  Biso   1.000  H
  C141     1.0000 0.11790  0.26090  0.92790  Biso   1.000  C
  H94      1.0000 0.11930  0.22750  0.89540  Biso   1.000  H
  C142     1.0000 0.23390  0.31020  0.95140  Biso   1.000  C
  C143     1.0000 0.02730  0.41130  0.92110  Biso   1.000  C
  H95      1.0000 0.04700  0.40200  0.86850  Biso   1.000  H
  C144     1.0000 0.02530  0.46710  0.92020  Biso   1.000  C
  H96      1.0000 0.04140  0.49420  0.86450  Biso   1.000  H
  O49      1.0000 0.90241  0.60467  0.22493  Biso   1.000  O
  O50      1.0000 0.95108  0.68727  0.33163  Biso   1.000  O
  O51      1.0000 0.67307  0.90723  0.24913  Biso   1.000  O
  C145     1.0000 0.72507  0.64393  0.32093  Biso   1.000  C
  C146     1.0000 0.78227  0.69563  0.35723  Biso   1.000  C
  H97      1.0000 0.78227  0.73013  0.38793  Biso   1.000  H
  C147     1.0000 0.83917  0.69433  0.34653  Biso   1.000  C
  H98      1.0000 0.87657  0.72813  0.37203  Biso   1.000  H
  C148     1.0000 0.84137  0.64593  0.30053  Biso   1.000  C
  C149     1.0000 0.72607  0.59293  0.27103  Biso   1.000  C
  H99      1.0000 0.68887  0.55923  0.24493  Biso   1.000  H
  C150     1.0000 0.78457  0.59423  0.26123  Biso   1.000  C
  H100     1.0000 0.78597  0.56083  0.22873  Biso   1.000  H
  C151     1.0000 0.90057  0.64353  0.28473  Biso   1.000  C
  C152     1.0000 0.69397  0.74463  0.25443  Biso   1.000  C
  H101     1.0000 0.71367  0.73533  0.20183  Biso   1.000  H
  C153     1.0000 0.69197  0.80043  0.25353  Biso   1.000  C
  H102     1.0000 0.70807  0.82753  0.19783  Biso   1.000  H
  O52      1.0000 0.56907  0.93801  0.55827  Biso   1.000  O
  O53      1.0000 0.61774  0.02061  0.66497  Biso   1.000  O
  O54      1.0000 0.33973  0.24057  0.58247  Biso   1.000  O
  C154     1.0000 0.39173  0.97727  0.65427  Biso   1.000  C
  C155     1.0000 0.44893  0.02897  0.69057  Biso   1.000  C
  H103     1.0000 0.44893  0.06347  0.72127  Biso   1.000  H
  C156     1.0000 0.50583  0.02767  0.67987  Biso   1.000  C
  H104     1.0000 0.54323  0.06147  0.70537  Biso   1.000  H
  C157     1.0000 0.50803  0.97927  0.63387  Biso   1.000  C
  C158     1.0000 0.39273  0.92627  0.60437  Biso   1.000  C
  H105     1.0000 0.35553  0.89257  0.57827  Biso   1.000  H
  C159     1.0000 0.45123  0.92757  0.59457  Biso   1.000  C
  H106     1.0000 0.45263  0.89417  0.56207  Biso   1.000  H
  C160     1.0000 0.56723  0.97687  0.61807  Biso   1.000  C
  C161     1.0000 0.36063  0.07797  0.58777  Biso   1.000  C
  H107     1.0000 0.38033  0.06867  0.53517  Biso   1.000  H
  C162     1.0000 0.35863  0.13377  0.58687  Biso   1.000  C
  H108     1.0000 0.37473  0.16087  0.53117  Biso   1.000  H
  La1      1.0000 0.64828  0.98161  0.16667  Biso   1.000  La
  La2      1.0000 0.31495  0.31495  0.50000  Biso   1.000  La
  La3      1.0000 0.01839  0.66667  0.16667  Biso   1.000  La
  La4      1.0000 0.68505  0.00000  0.50000  Biso   1.000  La
  La5      1.0000 0.33333  0.35172  0.16667  Biso   1.000  La
  La6      1.0000 0.00000  0.68505  0.50000  Biso   1.000  La
  La7      1.0000 0.98161  0.64828  0.83333  Biso   1.000  La
  La8      1.0000 0.66667  0.01839  0.83333  Biso   1.000  La
  La9      1.0000 0.35172  0.33333  0.83333  Biso   1.000  La
  N1       1.0000 0.00000  0.31000  0.00000  Biso   1.000  N
  C163     1.0000 0.00000  0.36970  0.00000  Biso   1.000  C
  C164     1.0000 0.00000  0.48350  0.00000  Biso   1.000  C
  C165     1.0000 0.00000  0.54570  0.00000  Biso   1.000  C
  N2       1.0000 0.66667  0.64333  0.33333  Biso   1.000  N
  C166     1.0000 0.66667  0.70303  0.33333  Biso   1.000  C
  C167     1.0000 0.66667  0.81683  0.33333  Biso   1.000  C
  C168     1.0000 0.66667  0.87903  0.33333  Biso   1.000  C
  N3       1.0000 0.33333  0.97667  0.66667  Biso   1.000  N
  C169     1.0000 0.33333  0.03637  0.66667  Biso   1.000  C
  C170     1.0000 0.33333  0.15017  0.66667  Biso   1.000  C
  C171     1.0000 0.33333  0.21237  0.66667  Biso   1.000  C
  N4       1.0000 0.69000  0.69000  0.00000  Biso   1.000  N
  C172     1.0000 0.63030  0.63030  0.00000  Biso   1.000  C
  C173     1.0000 0.51650  0.51650  0.00000  Biso   1.000  C
  C174     1.0000 0.45430  0.45430  0.00000  Biso   1.000  C
  N5       1.0000 0.35667  0.02333  0.33333  Biso   1.000  N
  C175     1.0000 0.29697  0.96363  0.33333  Biso   1.000  C
  C176     1.0000 0.18317  0.84983  0.33333  Biso   1.000  C
  C177     1.0000 0.12097  0.78763  0.33333  Biso   1.000  C
  N6       1.0000 0.02333  0.35667  0.66667  Biso   1.000  N
  C178     1.0000 0.96363  0.29697  0.66667  Biso   1.000  C
  C179     1.0000 0.84983  0.18317  0.66667  Biso   1.000  C
  C180     1.0000 0.78763  0.12097  0.66667  Biso   1.000  C
  N7       1.0000 0.31000  0.00000  0.00000  Biso   1.000  N
  C181     1.0000 0.36970  0.00000  0.00000  Biso   1.000  C
  C182     1.0000 0.48350  0.00000  0.00000  Biso   1.000  C
  C183     1.0000 0.54570  0.00000  0.00000  Biso   1.000  C
  N8       1.0000 0.97667  0.33333  0.33333  Biso   1.000  N
  C184     1.0000 0.03637  0.33333  0.33333  Biso   1.000  C
  C185     1.0000 0.15017  0.33333  0.33333  Biso   1.000  C
  C186     1.0000 0.21237  0.33333  0.33333  Biso   1.000  C
  N9       1.0000 0.64333  0.66667  0.66667  Biso   1.000  N
  C187     1.0000 0.70303  0.66667  0.66667  Biso   1.000  C
  C188     1.0000 0.81683  0.66667  0.66667  Biso   1.000  C
  C189     1.0000 0.87903  0.66667  0.66667  Biso   1.000  C
