data_image0
_cell_length_a       24.1843
_cell_length_b       24.1843
_cell_length_c       13.0217
_cell_angle_alpha    90
_cell_angle_beta     90
_cell_angle_gamma    120

_symmetry_space_group_name_H-M    "P 1"
_symmetry_int_tables_number       1

loop_
  _symmetry_equiv_pos_as_xyz
  'x, y, z'

loop_
  _atom_site_label
  _atom_site_occupancy
  _atom_site_fract_x
  _atom_site_fract_y
  _atom_site_fract_z
  _atom_site_thermal_displace_type
  _atom_site_B_iso_or_equiv
  _atom_site_type_symbol
  O1       1.0000 0.90292  0.29840  0.22530  Biso   1.000  O
  O2       1.0000 0.95103  0.26428  0.33000  Biso   1.000  O
  O3       1.0000 0.67770  0.76820  0.25020  Biso   1.000  O
  C1       1.0000 0.72520  0.08190  0.32110  Biso   1.000  C
  C2       1.0000 0.78090  0.08730  0.35760  Biso   1.000  C
  H1       1.0000 0.78080  0.05280  0.38940  Biso   1.000  H
  C3       1.0000 0.83730  0.14460  0.34640  Biso   1.000  C
  H2       1.0000 0.87480  0.14830  0.37240  Biso   1.000  H
  C4       1.0000 0.83960  0.19500  0.29940  Biso   1.000  C
  C5       1.0000 0.78480  0.18830  0.26200  Biso   1.000  C
  H3       1.0000 0.78590  0.22280  0.22840  Biso   1.000  H
  C6       1.0000 0.72630  0.13180  0.27130  Biso   1.000  C
  H4       1.0000 0.68920  0.12840  0.24430  Biso   1.000  H
  C7       1.0000 0.90090  0.25750  0.28530  Biso   1.000  C
  C8       1.0000 0.69960  0.95200  0.25540  Biso   1.000  C
  H5       1.0000 0.72180  0.98230  0.20480  Biso   1.000  H
  C9       1.0000 0.69850  0.89350  0.25510  Biso   1.000  C
  H6       1.0000 0.71880  0.88400  0.20300  Biso   1.000  H
  O4       1.0000 0.56959  0.63173  0.55863  Biso   1.000  O
  O5       1.0000 0.61770  0.59761  0.66333  Biso   1.000  O
  O6       1.0000 0.34437  0.10153  0.58353  Biso   1.000  O
  C10      1.0000 0.39187  0.41523  0.65443  Biso   1.000  C
  C11      1.0000 0.44757  0.42063  0.69093  Biso   1.000  C
  H7       1.0000 0.44747  0.38613  0.72273  Biso   1.000  H
  C12      1.0000 0.50397  0.47793  0.67973  Biso   1.000  C
  H8       1.0000 0.54147  0.48163  0.70573  Biso   1.000  H
  C13      1.0000 0.50627  0.52833  0.63273  Biso   1.000  C
  C14      1.0000 0.45147  0.52163  0.59533  Biso   1.000  C
  H9       1.0000 0.45257  0.55613  0.56173  Biso   1.000  H
  C15      1.0000 0.39297  0.46513  0.60463  Biso   1.000  C
  H10      1.0000 0.35587  0.46173  0.57763  Biso   1.000  H
  C16      1.0000 0.56757  0.59083  0.61863  Biso   1.000  C
  C17      1.0000 0.36627  0.28533  0.58873  Biso   1.000  C
  H11      1.0000 0.38847  0.31563  0.53813  Biso   1.000  H
  C18      1.0000 0.36517  0.22683  0.58843  Biso   1.000  C
  H12      1.0000 0.38547  0.21733  0.53633  Biso   1.000  H
  O7       1.0000 0.23625  0.96507  0.89197  Biso   1.000  O
  O8       1.0000 0.28436  0.93095  0.99667  Biso   1.000  O
  O9       1.0000 0.01103  0.43487  0.91687  Biso   1.000  O
  C19      1.0000 0.05853  0.74857  0.98777  Biso   1.000  C
  C20      1.0000 0.11423  0.75397  0.02427  Biso   1.000  C
  H13      1.0000 0.11413  0.71947  0.05607  Biso   1.000  H
  C21      1.0000 0.17063  0.81127  0.01307  Biso   1.000  C
  H14      1.0000 0.20813  0.81497  0.03907  Biso   1.000  H
  C22      1.0000 0.17293  0.86167  0.96607  Biso   1.000  C
  C23      1.0000 0.11813  0.85497  0.92867  Biso   1.000  C
  H15      1.0000 0.11923  0.88947  0.89507  Biso   1.000  H
  C24      1.0000 0.05963  0.79847  0.93797  Biso   1.000  C
  H16      1.0000 0.02253  0.79507  0.91097  Biso   1.000  H
  C25      1.0000 0.23423  0.92417  0.95197  Biso   1.000  C
  C26      1.0000 0.03293  0.61867  0.92207  Biso   1.000  C
  H17      1.0000 0.05513  0.64897  0.87147  Biso   1.000  H
  C27      1.0000 0.03183  0.56017  0.92177  Biso   1.000  C
  H18      1.0000 0.05213  0.55067  0.86967  Biso   1.000  H
  O10      1.0000 0.70160  0.60452  0.22530  Biso   1.000  O
  O11      1.0000 0.73572  0.68675  0.33000  Biso   1.000  O
  O12      1.0000 0.23180  0.90950  0.25020  Biso   1.000  O
  C28      1.0000 0.91810  0.64330  0.32110  Biso   1.000  C
  C29      1.0000 0.91270  0.69360  0.35760  Biso   1.000  C
  H19      1.0000 0.94720  0.72800  0.38940  Biso   1.000  H
  C30      1.0000 0.85540  0.69270  0.34640  Biso   1.000  C
  H20      1.0000 0.85170  0.72650  0.37240  Biso   1.000  H
  C31      1.0000 0.80500  0.64460  0.29940  Biso   1.000  C
  C32      1.0000 0.81170  0.59650  0.26200  Biso   1.000  C
  H21      1.0000 0.77720  0.56310  0.22840  Biso   1.000  H
  C33      1.0000 0.86820  0.59450  0.27130  Biso   1.000  C
  H22      1.0000 0.87160  0.56080  0.24430  Biso   1.000  H
  C34      1.0000 0.74250  0.64340  0.28530  Biso   1.000  C
  C35      1.0000 0.04800  0.74760  0.25540  Biso   1.000  C
  H23      1.0000 0.01770  0.73950  0.20480  Biso   1.000  H
  C36      1.0000 0.10650  0.80500  0.25510  Biso   1.000  C
  H24      1.0000 0.11600  0.83480  0.20300  Biso   1.000  H
  O13      1.0000 0.36827  0.93785  0.55863  Biso   1.000  O
  O14      1.0000 0.40239  0.02008  0.66333  Biso   1.000  O
  O15      1.0000 0.89847  0.24283  0.58353  Biso   1.000  O
  C37      1.0000 0.58477  0.97663  0.65443  Biso   1.000  C
  C38      1.0000 0.57937  0.02693  0.69093  Biso   1.000  C
  H25      1.0000 0.61387  0.06133  0.72273  Biso   1.000  H
  C39      1.0000 0.52207  0.02603  0.67973  Biso   1.000  C
  H26      1.0000 0.51837  0.05983  0.70573  Biso   1.000  H
  C40      1.0000 0.47167  0.97793  0.63273  Biso   1.000  C
  C41      1.0000 0.47837  0.92983  0.59533  Biso   1.000  C
  H27      1.0000 0.44387  0.89643  0.56173  Biso   1.000  H
  C42      1.0000 0.53487  0.92783  0.60463  Biso   1.000  C
  H28      1.0000 0.53827  0.89413  0.57763  Biso   1.000  H
  C43      1.0000 0.40917  0.97673  0.61863  Biso   1.000  C
  C44      1.0000 0.71467  0.08093  0.58873  Biso   1.000  C
  H29      1.0000 0.68437  0.07283  0.53813  Biso   1.000  H
  C45      1.0000 0.77317  0.13833  0.58843  Biso   1.000  C
  H30      1.0000 0.78267  0.16813  0.53633  Biso   1.000  H
  O16      1.0000 0.03493  0.27119  0.89197  Biso   1.000  O
  O17      1.0000 0.06905  0.35342  0.99667  Biso   1.000  O
  O18      1.0000 0.56513  0.57617  0.91687  Biso   1.000  O
  C46      1.0000 0.25143  0.30997  0.98777  Biso   1.000  C
  C47      1.0000 0.24603  0.36027  0.02427  Biso   1.000  C
  H31      1.0000 0.28053  0.39467  0.05607  Biso   1.000  H
  C48      1.0000 0.18873  0.35937  0.01307  Biso   1.000  C
  H32      1.0000 0.18503  0.39317  0.03907  Biso   1.000  H
  C49      1.0000 0.13833  0.31127  0.96607  Biso   1.000  C
  C50      1.0000 0.14503  0.26317  0.92867  Biso   1.000  C
  H33      1.0000 0.11053  0.22977  0.89507  Biso   1.000  H
  C51      1.0000 0.20153  0.26117  0.93797  Biso   1.000  C
  H34      1.0000 0.20493  0.22747  0.91097  Biso   1.000  H
  C52      1.0000 0.07583  0.31007  0.95197  Biso   1.000  C
  C53      1.0000 0.38133  0.41427  0.92207  Biso   1.000  C
  H35      1.0000 0.35103  0.40617  0.87147  Biso   1.000  H
  C54      1.0000 0.43983  0.47167  0.92177  Biso   1.000  C
  H36      1.0000 0.44933  0.50147  0.86967  Biso   1.000  H
  O19      1.0000 0.39548  0.09708  0.22530  Biso   1.000  O
  O20      1.0000 0.31325  0.04897  0.33000  Biso   1.000  O
  O21      1.0000 0.09050  0.32230  0.25020  Biso   1.000  O
  C55      1.0000 0.35670  0.27480  0.32110  Biso   1.000  C
  C56      1.0000 0.30640  0.21910  0.35760  Biso   1.000  C
  H37      1.0000 0.27200  0.21920  0.38940  Biso   1.000  H
  C57      1.0000 0.30730  0.16270  0.34640  Biso   1.000  C
  H38      1.0000 0.27350  0.12520  0.37240  Biso   1.000  H
  C58      1.0000 0.35540  0.16040  0.29940  Biso   1.000  C
  C59      1.0000 0.40350  0.21520  0.26200  Biso   1.000  C
  H39      1.0000 0.43690  0.21410  0.22840  Biso   1.000  H
  C60      1.0000 0.40550  0.27370  0.27130  Biso   1.000  C
  H40      1.0000 0.43920  0.31080  0.24430  Biso   1.000  H
  C61      1.0000 0.35660  0.09910  0.28530  Biso   1.000  C
  C62      1.0000 0.25240  0.30040  0.25540  Biso   1.000  C
  H41      1.0000 0.26050  0.27820  0.20480  Biso   1.000  H
  C63      1.0000 0.19500  0.30150  0.25510  Biso   1.000  C
  H42      1.0000 0.16520  0.28120  0.20300  Biso   1.000  H
  O22      1.0000 0.06215  0.43041  0.55863  Biso   1.000  O
  O23      1.0000 0.97992  0.38230  0.66333  Biso   1.000  O
  O24      1.0000 0.75717  0.65563  0.58353  Biso   1.000  O
  C64      1.0000 0.02337  0.60813  0.65443  Biso   1.000  C
  C65      1.0000 0.97307  0.55243  0.69093  Biso   1.000  C
  H43      1.0000 0.93867  0.55253  0.72273  Biso   1.000  H
  C66      1.0000 0.97397  0.49603  0.67973  Biso   1.000  C
  H44      1.0000 0.94017  0.45853  0.70573  Biso   1.000  H
  C67      1.0000 0.02207  0.49373  0.63273  Biso   1.000  C
  C68      1.0000 0.07017  0.54853  0.59533  Biso   1.000  C
  H45      1.0000 0.10357  0.54743  0.56173  Biso   1.000  H
  C69      1.0000 0.07217  0.60703  0.60463  Biso   1.000  C
  H46      1.0000 0.10587  0.64413  0.57763  Biso   1.000  H
  C70      1.0000 0.02327  0.43243  0.61863  Biso   1.000  C
  C71      1.0000 0.91907  0.63373  0.58873  Biso   1.000  C
  H47      1.0000 0.92717  0.61153  0.53813  Biso   1.000  H
  C72      1.0000 0.86167  0.63483  0.58843  Biso   1.000  C
  H48      1.0000 0.83187  0.61453  0.53633  Biso   1.000  H
  O25      1.0000 0.72881  0.76375  0.89197  Biso   1.000  O
  O26      1.0000 0.64658  0.71564  0.99667  Biso   1.000  O
  O27      1.0000 0.42383  0.98897  0.91687  Biso   1.000  O
  C73      1.0000 0.69003  0.94147  0.98777  Biso   1.000  C
  C74      1.0000 0.63973  0.88577  0.02427  Biso   1.000  C
  H49      1.0000 0.60533  0.88587  0.05607  Biso   1.000  H
  C75      1.0000 0.64063  0.82937  0.01307  Biso   1.000  C
  H50      1.0000 0.60683  0.79187  0.03907  Biso   1.000  H
  C76      1.0000 0.68873  0.82707  0.96607  Biso   1.000  C
  C77      1.0000 0.73683  0.88187  0.92867  Biso   1.000  C
  H51      1.0000 0.77023  0.88077  0.89507  Biso   1.000  H
  C78      1.0000 0.73883  0.94037  0.93797  Biso   1.000  C
  H52      1.0000 0.77253  0.97747  0.91097  Biso   1.000  H
  C79      1.0000 0.68993  0.76577  0.95197  Biso   1.000  C
  C80      1.0000 0.58573  0.96707  0.92207  Biso   1.000  C
  H53      1.0000 0.59383  0.94487  0.87147  Biso   1.000  H
  C81      1.0000 0.52833  0.96817  0.92177  Biso   1.000  C
  H54      1.0000 0.49853  0.94787  0.86967  Biso   1.000  H
  O28      1.0000 0.29840  0.90292  0.77470  Biso   1.000  O
  O29      1.0000 0.26428  0.95103  0.67000  Biso   1.000  O
  O30      1.0000 0.76820  0.67770  0.74980  Biso   1.000  O
  C82      1.0000 0.08190  0.72520  0.67890  Biso   1.000  C
  C83      1.0000 0.08730  0.78090  0.64240  Biso   1.000  C
  H55      1.0000 0.05280  0.78080  0.61060  Biso   1.000  H
  C84      1.0000 0.14460  0.83730  0.65360  Biso   1.000  C
  H56      1.0000 0.14830  0.87480  0.62760  Biso   1.000  H
  C85      1.0000 0.19500  0.83960  0.70060  Biso   1.000  C
  C86      1.0000 0.18830  0.78480  0.73800  Biso   1.000  C
  H57      1.0000 0.22280  0.78590  0.77160  Biso   1.000  H
  C87      1.0000 0.13180  0.72630  0.72870  Biso   1.000  C
  H58      1.0000 0.12840  0.68920  0.75570  Biso   1.000  H
  C88      1.0000 0.25750  0.90090  0.71470  Biso   1.000  C
  C89      1.0000 0.95200  0.69960  0.74460  Biso   1.000  C
  H59      1.0000 0.98230  0.72180  0.79520  Biso   1.000  H
  C90      1.0000 0.89350  0.69850  0.74490  Biso   1.000  C
  H60      1.0000 0.88400  0.71880  0.79700  Biso   1.000  H
  O31      1.0000 0.96507  0.23625  0.10803  Biso   1.000  O
  O32      1.0000 0.93095  0.28436  0.00333  Biso   1.000  O
  O33      1.0000 0.43487  0.01103  0.08313  Biso   1.000  O
  C91      1.0000 0.74857  0.05853  0.01223  Biso   1.000  C
  C92      1.0000 0.75397  0.11423  0.97573  Biso   1.000  C
  H61      1.0000 0.71947  0.11413  0.94393  Biso   1.000  H
  C93      1.0000 0.81127  0.17063  0.98693  Biso   1.000  C
  H62      1.0000 0.81497  0.20813  0.96093  Biso   1.000  H
  C94      1.0000 0.86167  0.17293  0.03393  Biso   1.000  C
  C95      1.0000 0.85497  0.11813  0.07133  Biso   1.000  C
  H63      1.0000 0.88947  0.11923  0.10493  Biso   1.000  H
  C96      1.0000 0.79847  0.05963  0.06203  Biso   1.000  C
  H64      1.0000 0.79507  0.02253  0.08903  Biso   1.000  H
  C97      1.0000 0.92417  0.23423  0.04803  Biso   1.000  C
  C98      1.0000 0.61867  0.03293  0.07793  Biso   1.000  C
  H65      1.0000 0.64897  0.05513  0.12853  Biso   1.000  H
  C99      1.0000 0.56017  0.03183  0.07823  Biso   1.000  C
  H66      1.0000 0.55067  0.05213  0.13033  Biso   1.000  H
  O34      1.0000 0.63173  0.56959  0.44137  Biso   1.000  O
  O35      1.0000 0.59761  0.61770  0.33667  Biso   1.000  O
  O36      1.0000 0.10153  0.34437  0.41647  Biso   1.000  O
  C100     1.0000 0.41523  0.39187  0.34557  Biso   1.000  C
  C101     1.0000 0.42063  0.44757  0.30907  Biso   1.000  C
  H67      1.0000 0.38613  0.44747  0.27727  Biso   1.000  H
  C102     1.0000 0.47793  0.50397  0.32027  Biso   1.000  C
  H68      1.0000 0.48163  0.54147  0.29427  Biso   1.000  H
  C103     1.0000 0.52833  0.50627  0.36727  Biso   1.000  C
  C104     1.0000 0.52163  0.45147  0.40467  Biso   1.000  C
  H69      1.0000 0.55613  0.45257  0.43827  Biso   1.000  H
  C105     1.0000 0.46513  0.39297  0.39537  Biso   1.000  C
  H70      1.0000 0.46173  0.35587  0.42237  Biso   1.000  H
  C106     1.0000 0.59083  0.56757  0.38137  Biso   1.000  C
  C107     1.0000 0.28533  0.36627  0.41127  Biso   1.000  C
  H71      1.0000 0.31563  0.38847  0.46187  Biso   1.000  H
  C108     1.0000 0.22683  0.36517  0.41157  Biso   1.000  C
  H72      1.0000 0.21733  0.38547  0.46367  Biso   1.000  H
  O37      1.0000 0.60452  0.70160  0.77470  Biso   1.000  O
  O38      1.0000 0.68675  0.73572  0.67000  Biso   1.000  O
  O39      1.0000 0.90950  0.23180  0.74980  Biso   1.000  O
  C109     1.0000 0.64330  0.91810  0.67890  Biso   1.000  C
  C110     1.0000 0.69360  0.91270  0.64240  Biso   1.000  C
  H73      1.0000 0.72800  0.94720  0.61060  Biso   1.000  H
  C111     1.0000 0.69270  0.85540  0.65360  Biso   1.000  C
  H74      1.0000 0.72650  0.85170  0.62760  Biso   1.000  H
  C112     1.0000 0.64460  0.80500  0.70060  Biso   1.000  C
  C113     1.0000 0.59650  0.81170  0.73800  Biso   1.000  C
  H75      1.0000 0.56310  0.77720  0.77160  Biso   1.000  H
  C114     1.0000 0.59450  0.86820  0.72870  Biso   1.000  C
  H76      1.0000 0.56080  0.87160  0.75570  Biso   1.000  H
  C115     1.0000 0.64340  0.74250  0.71470  Biso   1.000  C
  C116     1.0000 0.74760  0.04800  0.74460  Biso   1.000  C
  H77      1.0000 0.73950  0.01770  0.79520  Biso   1.000  H
  C117     1.0000 0.80500  0.10650  0.74490  Biso   1.000  C
  H78      1.0000 0.83480  0.11600  0.79700  Biso   1.000  H
  O40      1.0000 0.27119  0.03493  0.10803  Biso   1.000  O
  O41      1.0000 0.35342  0.06905  0.00333  Biso   1.000  O
  O42      1.0000 0.57617  0.56513  0.08313  Biso   1.000  O
  C118     1.0000 0.30997  0.25143  0.01223  Biso   1.000  C
  C119     1.0000 0.36027  0.24603  0.97573  Biso   1.000  C
  H79      1.0000 0.39467  0.28053  0.94393  Biso   1.000  H
  C120     1.0000 0.35937  0.18873  0.98693  Biso   1.000  C
  H80      1.0000 0.39317  0.18503  0.96093  Biso   1.000  H
  C121     1.0000 0.31127  0.13833  0.03393  Biso   1.000  C
  C122     1.0000 0.26317  0.14503  0.07133  Biso   1.000  C
  H81      1.0000 0.22977  0.11053  0.10493  Biso   1.000  H
  C123     1.0000 0.26117  0.20153  0.06203  Biso   1.000  C
  H82      1.0000 0.22747  0.20493  0.08903  Biso   1.000  H
  C124     1.0000 0.31007  0.07583  0.04803  Biso   1.000  C
  C125     1.0000 0.41427  0.38133  0.07793  Biso   1.000  C
  H83      1.0000 0.40617  0.35103  0.12853  Biso   1.000  H
  C126     1.0000 0.47167  0.43983  0.07823  Biso   1.000  C
  H84      1.0000 0.50147  0.44933  0.13033  Biso   1.000  H
  O43      1.0000 0.93785  0.36827  0.44137  Biso   1.000  O
  O44      1.0000 0.02008  0.40239  0.33667  Biso   1.000  O
  O45      1.0000 0.24283  0.89847  0.41647  Biso   1.000  O
  C127     1.0000 0.97663  0.58477  0.34557  Biso   1.000  C
  C128     1.0000 0.02693  0.57937  0.30907  Biso   1.000  C
  H85      1.0000 0.06133  0.61387  0.27727  Biso   1.000  H
  C129     1.0000 0.02603  0.52207  0.32027  Biso   1.000  C
  H86      1.0000 0.05983  0.51837  0.29427  Biso   1.000  H
  C130     1.0000 0.97793  0.47167  0.36727  Biso   1.000  C
  C131     1.0000 0.92983  0.47837  0.40467  Biso   1.000  C
  H87      1.0000 0.89643  0.44387  0.43827  Biso   1.000  H
  C132     1.0000 0.92783  0.53487  0.39537  Biso   1.000  C
  H88      1.0000 0.89413  0.53827  0.42237  Biso   1.000  H
  C133     1.0000 0.97673  0.40917  0.38137  Biso   1.000  C
  C134     1.0000 0.08093  0.71467  0.41127  Biso   1.000  C
  H89      1.0000 0.07283  0.68437  0.46187  Biso   1.000  H
  C135     1.0000 0.13833  0.77317  0.41157  Biso   1.000  C
  H90      1.0000 0.16813  0.78267  0.46367  Biso   1.000  H
  O46      1.0000 0.09708  0.39548  0.77470  Biso   1.000  O
  O47      1.0000 0.04897  0.31325  0.67000  Biso   1.000  O
  O48      1.0000 0.32230  0.09050  0.74980  Biso   1.000  O
  C136     1.0000 0.27480  0.35670  0.67890  Biso   1.000  C
  C137     1.0000 0.21910  0.30640  0.64240  Biso   1.000  C
  H91      1.0000 0.21920  0.27200  0.61060  Biso   1.000  H
  C138     1.0000 0.16270  0.30730  0.65360  Biso   1.000  C
  H92      1.0000 0.12520  0.27350  0.62760  Biso   1.000  H
  C139     1.0000 0.16040  0.35540  0.70060  Biso   1.000  C
  C140     1.0000 0.21520  0.40350  0.73800  Biso   1.000  C
  H93      1.0000 0.21410  0.43690  0.77160  Biso   1.000  H
  C141     1.0000 0.27370  0.40550  0.72870  Biso   1.000  C
  H94      1.0000 0.31080  0.43920  0.75570  Biso   1.000  H
  C142     1.0000 0.09910  0.35660  0.71470  Biso   1.000  C
  C143     1.0000 0.30040  0.25240  0.74460  Biso   1.000  C
  H95      1.0000 0.27820  0.26050  0.79520  Biso   1.000  H
  C144     1.0000 0.30150  0.19500  0.74490  Biso   1.000  C
  H96      1.0000 0.28120  0.16520  0.79700  Biso   1.000  H
  O49      1.0000 0.76375  0.72881  0.10803  Biso   1.000  O
  O50      1.0000 0.71564  0.64658  0.00333  Biso   1.000  O
  O51      1.0000 0.98897  0.42383  0.08313  Biso   1.000  O
  C145     1.0000 0.94147  0.69003  0.01223  Biso   1.000  C
  C146     1.0000 0.88577  0.63973  0.97573  Biso   1.000  C
  H97      1.0000 0.88587  0.60533  0.94393  Biso   1.000  H
  C147     1.0000 0.82937  0.64063  0.98693  Biso   1.000  C
  H98      1.0000 0.79187  0.60683  0.96093  Biso   1.000  H
  C148     1.0000 0.82707  0.68873  0.03393  Biso   1.000  C
  C149     1.0000 0.88187  0.73683  0.07133  Biso   1.000  C
  H99      1.0000 0.88077  0.77023  0.10493  Biso   1.000  H
  C150     1.0000 0.94037  0.73883  0.06203  Biso   1.000  C
  H100     1.0000 0.97747  0.77253  0.08903  Biso   1.000  H
  C151     1.0000 0.76577  0.68993  0.04803  Biso   1.000  C
  C152     1.0000 0.96707  0.58573  0.07793  Biso   1.000  C
  H101     1.0000 0.94487  0.59383  0.12853  Biso   1.000  H
  C153     1.0000 0.96817  0.52833  0.07823  Biso   1.000  C
  H102     1.0000 0.94787  0.49853  0.13033  Biso   1.000  H
  O52      1.0000 0.43041  0.06215  0.44137  Biso   1.000  O
  O53      1.0000 0.38230  0.97992  0.33667  Biso   1.000  O
  O54      1.0000 0.65563  0.75717  0.41647  Biso   1.000  O
  C154     1.0000 0.60813  0.02337  0.34557  Biso   1.000  C
  C155     1.0000 0.55243  0.97307  0.30907  Biso   1.000  C
  H103     1.0000 0.55253  0.93867  0.27727  Biso   1.000  H
  C156     1.0000 0.49603  0.97397  0.32027  Biso   1.000  C
  H104     1.0000 0.45853  0.94017  0.29427  Biso   1.000  H
  C157     1.0000 0.49373  0.02207  0.36727  Biso   1.000  C
  C158     1.0000 0.54853  0.07017  0.40467  Biso   1.000  C
  H105     1.0000 0.54743  0.10357  0.43827  Biso   1.000  H
  C159     1.0000 0.60703  0.07217  0.39537  Biso   1.000  C
  H106     1.0000 0.64413  0.10587  0.42237  Biso   1.000  H
  C160     1.0000 0.43243  0.02327  0.38137  Biso   1.000  C
  C161     1.0000 0.63373  0.91907  0.41127  Biso   1.000  C
  H107     1.0000 0.61153  0.92717  0.46187  Biso   1.000  H
  C162     1.0000 0.63483  0.86167  0.41157  Biso   1.000  C
  H108     1.0000 0.61453  0.83187  0.46367  Biso   1.000  H
  La1      1.0000 0.01823  0.35157  0.16667  Biso   1.000  La
  La2      1.0000 0.68490  0.68490  0.50000  Biso   1.000  La
  La3      1.0000 0.64843  0.66667  0.16667  Biso   1.000  La
  La4      1.0000 0.31510  0.00000  0.50000  Biso   1.000  La
  La5      1.0000 0.33333  0.98177  0.16667  Biso   1.000  La
  La6      1.0000 0.00000  0.31510  0.50000  Biso   1.000  La
  La7      1.0000 0.35157  0.01823  0.83333  Biso   1.000  La
  La8      1.0000 0.66667  0.64843  0.83333  Biso   1.000  La
  La9      1.0000 0.98177  0.33333  0.83333  Biso   1.000  La
  N1       1.0000 0.66667  0.02398  0.33333  Biso   1.000  N
  C163     1.0000 0.66667  0.96458  0.33333  Biso   1.000  C
  C164     1.0000 0.66667  0.84948  0.33333  Biso   1.000  C
  C165     1.0000 0.66667  0.78658  0.33333  Biso   1.000  C
  N2       1.0000 0.97602  0.64268  0.33333  Biso   1.000  N
  C166     1.0000 0.03542  0.70208  0.33333  Biso   1.000  C
  C167     1.0000 0.15052  0.81718  0.33333  Biso   1.000  C
  C168     1.0000 0.21342  0.88008  0.33333  Biso   1.000  C
  N3       1.0000 0.35732  0.33333  0.33333  Biso   1.000  N
  C169     1.0000 0.29792  0.33333  0.33333  Biso   1.000  C
  C170     1.0000 0.18282  0.33333  0.33333  Biso   1.000  C
  C171     1.0000 0.11992  0.33333  0.33333  Biso   1.000  C
  N4       1.0000 0.02398  0.66667  0.66667  Biso   1.000  N
  C172     1.0000 0.96458  0.66667  0.66667  Biso   1.000  C
  C173     1.0000 0.84948  0.66667  0.66667  Biso   1.000  C
  C174     1.0000 0.78658  0.66667  0.66667  Biso   1.000  C
  N5       1.0000 0.69065  0.00000  0.00000  Biso   1.000  N
  C175     1.0000 0.63125  0.00000  0.00000  Biso   1.000  C
  C176     1.0000 0.51615  0.00000  0.00000  Biso   1.000  C
  C177     1.0000 0.45325  0.00000  0.00000  Biso   1.000  C
  N6       1.0000 0.64268  0.97602  0.66667  Biso   1.000  N
  C178     1.0000 0.70208  0.03542  0.66667  Biso   1.000  C
  C179     1.0000 0.81718  0.15052  0.66667  Biso   1.000  C
  C180     1.0000 0.88008  0.21342  0.66667  Biso   1.000  C
  N7       1.0000 0.30935  0.30935  0.00000  Biso   1.000  N
  C181     1.0000 0.36875  0.36875  0.00000  Biso   1.000  C
  C182     1.0000 0.48385  0.48385  0.00000  Biso   1.000  C
  C183     1.0000 0.54675  0.54675  0.00000  Biso   1.000  C
  N8       1.0000 0.33333  0.35732  0.66667  Biso   1.000  N
  C184     1.0000 0.33333  0.29792  0.66667  Biso   1.000  C
  C185     1.0000 0.33333  0.18282  0.66667  Biso   1.000  C
  C186     1.0000 0.33333  0.11992  0.66667  Biso   1.000  C
  N9       1.0000 0.00000  0.69065  0.00000  Biso   1.000  N
  C187     1.0000 0.00000  0.63125  0.00000  Biso   1.000  C
  C188     1.0000 0.00000  0.51615  0.00000  Biso   1.000  C
  C189     1.0000 0.00000  0.45325  0.00000  Biso   1.000  C
