data_image0
_cell_length_a       24.2009
_cell_length_b       24.2009
_cell_length_c       12.9648
_cell_angle_alpha    90
_cell_angle_beta     90
_cell_angle_gamma    120

_symmetry_space_group_name_H-M    "P 1"
_symmetry_int_tables_number       1

loop_
  _symmetry_equiv_pos_as_xyz
  'x, y, z'

loop_
  _atom_site_label
  _atom_site_occupancy
  _atom_site_fract_x
  _atom_site_fract_y
  _atom_site_fract_z
  _atom_site_thermal_displace_type
  _atom_site_B_iso_or_equiv
  _atom_site_type_symbol
  O1       1.0000 0.56930  0.93660  0.05750  Biso   1.000  O
  O2       1.0000 0.61850  0.02050  0.16260  Biso   1.000  O
  O3       1.0000 0.32230  0.23120  0.25150  Biso   1.000  O
  C1       1.0000 0.39120  0.97620  0.15500  Biso   1.000  C
  C2       1.0000 0.44850  0.02760  0.18980  Biso   1.000  C
  H1       1.0000 0.44830  0.06230  0.22010  Biso   1.000  H
  C3       1.0000 0.50540  0.02790  0.18000  Biso   1.000  C
  H2       1.0000 0.54290  0.06190  0.20540  Biso   1.000  H
  C4       1.0000 0.50650  0.97680  0.13190  Biso   1.000  C
  C5       1.0000 0.45030  0.92560  0.09370  Biso   1.000  C
  H3       1.0000 0.45130  0.89190  0.06080  Biso   1.000  H
  C6       1.0000 0.39210  0.92510  0.10510  Biso   1.000  C
  H4       1.0000 0.35450  0.89110  0.07970  Biso   1.000  H
  C7       1.0000 0.56790  0.97740  0.11740  Biso   1.000  C
  C8       1.0000 0.36330  0.07870  0.08730  Biso   1.000  C
  H5       1.0000 0.38380  0.06960  0.03490  Biso   1.000  H
  C9       1.0000 0.36280  0.13660  0.08590  Biso   1.000  C
  H6       1.0000 0.38180  0.16530  0.03200  Biso   1.000  H
  O4       1.0000 0.23597  0.26993  0.39083  Biso   1.000  O
  O5       1.0000 0.28517  0.35383  0.49593  Biso   1.000  O
  O6       1.0000 0.98897  0.56453  0.58483  Biso   1.000  O
  C10      1.0000 0.05787  0.30953  0.48833  Biso   1.000  C
  C11      1.0000 0.11517  0.36093  0.52313  Biso   1.000  C
  H7       1.0000 0.11497  0.39563  0.55343  Biso   1.000  H
  C12      1.0000 0.17207  0.36123  0.51333  Biso   1.000  C
  H8       1.0000 0.20957  0.39523  0.53873  Biso   1.000  H
  C13      1.0000 0.17317  0.31013  0.46523  Biso   1.000  C
  C14      1.0000 0.11697  0.25893  0.42703  Biso   1.000  C
  H9       1.0000 0.11797  0.22523  0.39413  Biso   1.000  H
  C15      1.0000 0.05877  0.25843  0.43843  Biso   1.000  C
  H10      1.0000 0.02117  0.22443  0.41303  Biso   1.000  H
  C16      1.0000 0.23457  0.31073  0.45073  Biso   1.000  C
  C17      1.0000 0.02997  0.41203  0.42063  Biso   1.000  C
  H11      1.0000 0.05047  0.40293  0.36823  Biso   1.000  H
  C18      1.0000 0.02947  0.46993  0.41923  Biso   1.000  C
  H12      1.0000 0.04847  0.49863  0.36533  Biso   1.000  H
  O7       1.0000 0.90263  0.60327  0.72417  Biso   1.000  O
  O8       1.0000 0.95183  0.68717  0.82927  Biso   1.000  O
  O9       1.0000 0.65563  0.89787  0.91817  Biso   1.000  O
  C19      1.0000 0.72453  0.64287  0.82167  Biso   1.000  C
  C20      1.0000 0.78183  0.69427  0.85647  Biso   1.000  C
  H13      1.0000 0.78163  0.72897  0.88677  Biso   1.000  H
  C21      1.0000 0.83873  0.69457  0.84667  Biso   1.000  C
  H14      1.0000 0.87623  0.72857  0.87207  Biso   1.000  H
  C22      1.0000 0.83983  0.64347  0.79857  Biso   1.000  C
  C23      1.0000 0.78363  0.59227  0.76037  Biso   1.000  C
  H15      1.0000 0.78463  0.55857  0.72747  Biso   1.000  H
  C24      1.0000 0.72543  0.59177  0.77177  Biso   1.000  C
  H16      1.0000 0.68783  0.55777  0.74637  Biso   1.000  H
  C25      1.0000 0.90123  0.64407  0.78407  Biso   1.000  C
  C26      1.0000 0.69663  0.74537  0.75397  Biso   1.000  C
  H17      1.0000 0.71713  0.73627  0.70157  Biso   1.000  H
  C27      1.0000 0.69613  0.80327  0.75257  Biso   1.000  C
  H18      1.0000 0.71513  0.83197  0.69867  Biso   1.000  H
  O10      1.0000 0.06340  0.63270  0.05750  Biso   1.000  O
  O11      1.0000 0.97950  0.59800  0.16260  Biso   1.000  O
  O12      1.0000 0.76880  0.09110  0.25150  Biso   1.000  O
  C28      1.0000 0.02380  0.41500  0.15500  Biso   1.000  C
  C29      1.0000 0.97240  0.42090  0.18980  Biso   1.000  C
  H19      1.0000 0.93770  0.38600  0.22010  Biso   1.000  H
  C30      1.0000 0.97210  0.47750  0.18000  Biso   1.000  C
  H20      1.0000 0.93810  0.48100  0.20540  Biso   1.000  H
  C31      1.0000 0.02320  0.52970  0.13190  Biso   1.000  C
  C32      1.0000 0.07440  0.52470  0.09370  Biso   1.000  C
  H21      1.0000 0.10810  0.55940  0.06080  Biso   1.000  H
  C33      1.0000 0.07490  0.46700  0.10510  Biso   1.000  C
  H22      1.0000 0.10890  0.46340  0.07970  Biso   1.000  H
  C34      1.0000 0.02260  0.59050  0.11740  Biso   1.000  C
  C35      1.0000 0.92130  0.28460  0.08730  Biso   1.000  C
  H23      1.0000 0.93040  0.31420  0.03490  Biso   1.000  H
  C36      1.0000 0.86340  0.22620  0.08590  Biso   1.000  C
  H24      1.0000 0.83470  0.21650  0.03200  Biso   1.000  H
  O13      1.0000 0.73007  0.96603  0.39083  Biso   1.000  O
  O14      1.0000 0.64617  0.93133  0.49593  Biso   1.000  O
  O15      1.0000 0.43547  0.42443  0.58483  Biso   1.000  O
  C37      1.0000 0.69047  0.74833  0.48833  Biso   1.000  C
  C38      1.0000 0.63907  0.75423  0.52313  Biso   1.000  C
  H25      1.0000 0.60437  0.71933  0.55343  Biso   1.000  H
  C39      1.0000 0.63877  0.81083  0.51333  Biso   1.000  C
  H26      1.0000 0.60477  0.81433  0.53873  Biso   1.000  H
  C40      1.0000 0.68987  0.86303  0.46523  Biso   1.000  C
  C41      1.0000 0.74107  0.85803  0.42703  Biso   1.000  C
  H27      1.0000 0.77477  0.89273  0.39413  Biso   1.000  H
  C42      1.0000 0.74157  0.80033  0.43843  Biso   1.000  C
  H28      1.0000 0.77557  0.79673  0.41303  Biso   1.000  H
  C43      1.0000 0.68927  0.92383  0.45073  Biso   1.000  C
  C44      1.0000 0.58797  0.61793  0.42063  Biso   1.000  C
  H29      1.0000 0.59707  0.64753  0.36823  Biso   1.000  H
  C45      1.0000 0.53007  0.55953  0.41923  Biso   1.000  C
  H30      1.0000 0.50137  0.54983  0.36533  Biso   1.000  H
  O16      1.0000 0.39673  0.29937  0.72417  Biso   1.000  O
  O17      1.0000 0.31283  0.26467  0.82927  Biso   1.000  O
  O18      1.0000 0.10213  0.75777  0.91817  Biso   1.000  O
  C46      1.0000 0.35713  0.08167  0.82167  Biso   1.000  C
  C47      1.0000 0.30573  0.08757  0.85647  Biso   1.000  C
  H31      1.0000 0.27103  0.05267  0.88677  Biso   1.000  H
  C48      1.0000 0.30543  0.14417  0.84667  Biso   1.000  C
  H32      1.0000 0.27143  0.14767  0.87207  Biso   1.000  H
  C49      1.0000 0.35653  0.19637  0.79857  Biso   1.000  C
  C50      1.0000 0.40773  0.19137  0.76037  Biso   1.000  C
  H33      1.0000 0.44143  0.22607  0.72747  Biso   1.000  H
  C51      1.0000 0.40823  0.13367  0.77177  Biso   1.000  C
  H34      1.0000 0.44223  0.13007  0.74637  Biso   1.000  H
  C52      1.0000 0.35593  0.25717  0.78407  Biso   1.000  C
  C53      1.0000 0.25463  0.95127  0.75397  Biso   1.000  C
  H35      1.0000 0.26373  0.98087  0.70157  Biso   1.000  H
  C54      1.0000 0.19673  0.89287  0.75257  Biso   1.000  C
  H36      1.0000 0.16803  0.88317  0.69867  Biso   1.000  H
  O19      1.0000 0.36730  0.43070  0.05750  Biso   1.000  O
  O20      1.0000 0.40200  0.38150  0.16260  Biso   1.000  O
  O21      1.0000 0.90890  0.67770  0.25150  Biso   1.000  O
  C55      1.0000 0.58500  0.60880  0.15500  Biso   1.000  C
  C56      1.0000 0.57910  0.55150  0.18980  Biso   1.000  C
  H37      1.0000 0.61400  0.55170  0.22010  Biso   1.000  H
  C57      1.0000 0.52250  0.49460  0.18000  Biso   1.000  C
  H38      1.0000 0.51900  0.45710  0.20540  Biso   1.000  H
  C58      1.0000 0.47030  0.49350  0.13190  Biso   1.000  C
  C59      1.0000 0.47530  0.54970  0.09370  Biso   1.000  C
  H39      1.0000 0.44060  0.54870  0.06080  Biso   1.000  H
  C60      1.0000 0.53300  0.60790  0.10510  Biso   1.000  C
  H40      1.0000 0.53660  0.64550  0.07970  Biso   1.000  H
  C61      1.0000 0.40950  0.43210  0.11740  Biso   1.000  C
  C62      1.0000 0.71540  0.63670  0.08730  Biso   1.000  C
  H41      1.0000 0.68580  0.61620  0.03490  Biso   1.000  H
  C63      1.0000 0.77380  0.63720  0.08590  Biso   1.000  C
  H42      1.0000 0.78350  0.61820  0.03200  Biso   1.000  H
  O22      1.0000 0.03397  0.76403  0.39083  Biso   1.000  O
  O23      1.0000 0.06867  0.71483  0.49593  Biso   1.000  O
  O24      1.0000 0.57557  0.01103  0.58483  Biso   1.000  O
  C64      1.0000 0.25167  0.94213  0.48833  Biso   1.000  C
  C65      1.0000 0.24577  0.88483  0.52313  Biso   1.000  C
  H43      1.0000 0.28067  0.88503  0.55343  Biso   1.000  H
  C66      1.0000 0.18917  0.82793  0.51333  Biso   1.000  C
  H44      1.0000 0.18567  0.79043  0.53873  Biso   1.000  H
  C67      1.0000 0.13697  0.82683  0.46523  Biso   1.000  C
  C68      1.0000 0.14197  0.88303  0.42703  Biso   1.000  C
  H45      1.0000 0.10727  0.88203  0.39413  Biso   1.000  H
  C69      1.0000 0.19967  0.94123  0.43843  Biso   1.000  C
  H46      1.0000 0.20327  0.97883  0.41303  Biso   1.000  H
  C70      1.0000 0.07617  0.76543  0.45073  Biso   1.000  C
  C71      1.0000 0.38207  0.97003  0.42063  Biso   1.000  C
  H47      1.0000 0.35247  0.94953  0.36823  Biso   1.000  H
  C72      1.0000 0.44047  0.97053  0.41923  Biso   1.000  C
  H48      1.0000 0.45017  0.95153  0.36533  Biso   1.000  H
  O25      1.0000 0.70063  0.09737  0.72417  Biso   1.000  O
  O26      1.0000 0.73533  0.04817  0.82927  Biso   1.000  O
  O27      1.0000 0.24223  0.34437  0.91817  Biso   1.000  O
  C73      1.0000 0.91833  0.27547  0.82167  Biso   1.000  C
  C74      1.0000 0.91243  0.21817  0.85647  Biso   1.000  C
  H49      1.0000 0.94733  0.21837  0.88677  Biso   1.000  H
  C75      1.0000 0.85583  0.16127  0.84667  Biso   1.000  C
  H50      1.0000 0.85233  0.12377  0.87207  Biso   1.000  H
  C76      1.0000 0.80363  0.16017  0.79857  Biso   1.000  C
  C77      1.0000 0.80863  0.21637  0.76037  Biso   1.000  C
  H51      1.0000 0.77393  0.21537  0.72747  Biso   1.000  H
  C78      1.0000 0.86633  0.27457  0.77177  Biso   1.000  C
  H52      1.0000 0.86993  0.31217  0.74637  Biso   1.000  H
  C79      1.0000 0.74283  0.09877  0.78407  Biso   1.000  C
  C80      1.0000 0.04873  0.30337  0.75397  Biso   1.000  C
  H53      1.0000 0.01913  0.28287  0.70157  Biso   1.000  H
  C81      1.0000 0.10713  0.30387  0.75257  Biso   1.000  C
  H54      1.0000 0.11683  0.28487  0.69867  Biso   1.000  H
  O28      1.0000 0.93660  0.56930  0.94250  Biso   1.000  O
  O29      1.0000 0.02050  0.61850  0.83740  Biso   1.000  O
  O30      1.0000 0.23120  0.32230  0.74850  Biso   1.000  O
  C82      1.0000 0.97620  0.39120  0.84500  Biso   1.000  C
  C83      1.0000 0.02760  0.44850  0.81020  Biso   1.000  C
  H55      1.0000 0.06230  0.44830  0.77990  Biso   1.000  H
  C84      1.0000 0.02790  0.50540  0.82000  Biso   1.000  C
  H56      1.0000 0.06190  0.54290  0.79460  Biso   1.000  H
  C85      1.0000 0.97680  0.50650  0.86810  Biso   1.000  C
  C86      1.0000 0.92560  0.45030  0.90630  Biso   1.000  C
  H57      1.0000 0.89190  0.45130  0.93920  Biso   1.000  H
  C87      1.0000 0.92510  0.39210  0.89490  Biso   1.000  C
  H58      1.0000 0.89110  0.35450  0.92030  Biso   1.000  H
  C88      1.0000 0.97740  0.56790  0.88260  Biso   1.000  C
  C89      1.0000 0.07870  0.36330  0.91270  Biso   1.000  C
  H59      1.0000 0.06960  0.38380  0.96510  Biso   1.000  H
  C90      1.0000 0.13660  0.36280  0.91410  Biso   1.000  C
  H60      1.0000 0.16530  0.38180  0.96800  Biso   1.000  H
  O31      1.0000 0.60327  0.90263  0.27583  Biso   1.000  O
  O32      1.0000 0.68717  0.95183  0.17073  Biso   1.000  O
  O33      1.0000 0.89787  0.65563  0.08183  Biso   1.000  O
  C91      1.0000 0.64287  0.72453  0.17833  Biso   1.000  C
  C92      1.0000 0.69427  0.78183  0.14353  Biso   1.000  C
  H61      1.0000 0.72897  0.78163  0.11323  Biso   1.000  H
  C93      1.0000 0.69457  0.83873  0.15333  Biso   1.000  C
  H62      1.0000 0.72857  0.87623  0.12793  Biso   1.000  H
  C94      1.0000 0.64347  0.83983  0.20143  Biso   1.000  C
  C95      1.0000 0.59227  0.78363  0.23963  Biso   1.000  C
  H63      1.0000 0.55857  0.78463  0.27253  Biso   1.000  H
  C96      1.0000 0.59177  0.72543  0.22823  Biso   1.000  C
  H64      1.0000 0.55777  0.68783  0.25363  Biso   1.000  H
  C97      1.0000 0.64407  0.90123  0.21593  Biso   1.000  C
  C98      1.0000 0.74537  0.69663  0.24603  Biso   1.000  C
  H65      1.0000 0.73627  0.71713  0.29843  Biso   1.000  H
  C99      1.0000 0.80327  0.69613  0.24743  Biso   1.000  C
  H66      1.0000 0.83197  0.71513  0.30133  Biso   1.000  H
  O34      1.0000 0.26993  0.23597  0.60917  Biso   1.000  O
  O35      1.0000 0.35383  0.28517  0.50407  Biso   1.000  O
  O36      1.0000 0.56453  0.98897  0.41517  Biso   1.000  O
  C100     1.0000 0.30953  0.05787  0.51167  Biso   1.000  C
  C101     1.0000 0.36093  0.11517  0.47687  Biso   1.000  C
  H67      1.0000 0.39563  0.11497  0.44657  Biso   1.000  H
  C102     1.0000 0.36123  0.17207  0.48667  Biso   1.000  C
  H68      1.0000 0.39523  0.20957  0.46127  Biso   1.000  H
  C103     1.0000 0.31013  0.17317  0.53477  Biso   1.000  C
  C104     1.0000 0.25893  0.11697  0.57297  Biso   1.000  C
  H69      1.0000 0.22523  0.11797  0.60587  Biso   1.000  H
  C105     1.0000 0.25843  0.05877  0.56157  Biso   1.000  C
  H70      1.0000 0.22443  0.02117  0.58697  Biso   1.000  H
  C106     1.0000 0.31073  0.23457  0.54927  Biso   1.000  C
  C107     1.0000 0.41203  0.02997  0.57937  Biso   1.000  C
  H71      1.0000 0.40293  0.05047  0.63177  Biso   1.000  H
  C108     1.0000 0.46993  0.02947  0.58077  Biso   1.000  C
  H72      1.0000 0.49863  0.04847  0.63467  Biso   1.000  H
  O37      1.0000 0.63270  0.06340  0.94250  Biso   1.000  O
  O38      1.0000 0.59800  0.97950  0.83740  Biso   1.000  O
  O39      1.0000 0.09110  0.76880  0.74850  Biso   1.000  O
  C109     1.0000 0.41500  0.02380  0.84500  Biso   1.000  C
  C110     1.0000 0.42090  0.97240  0.81020  Biso   1.000  C
  H73      1.0000 0.38600  0.93770  0.77990  Biso   1.000  H
  C111     1.0000 0.47750  0.97210  0.82000  Biso   1.000  C
  H74      1.0000 0.48100  0.93810  0.79460  Biso   1.000  H
  C112     1.0000 0.52970  0.02320  0.86810  Biso   1.000  C
  C113     1.0000 0.52470  0.07440  0.90630  Biso   1.000  C
  H75      1.0000 0.55940  0.10810  0.93920  Biso   1.000  H
  C114     1.0000 0.46700  0.07490  0.89490  Biso   1.000  C
  H76      1.0000 0.46340  0.10890  0.92030  Biso   1.000  H
  C115     1.0000 0.59050  0.02260  0.88260  Biso   1.000  C
  C116     1.0000 0.28460  0.92130  0.91270  Biso   1.000  C
  H77      1.0000 0.31420  0.93040  0.96510  Biso   1.000  H
  C117     1.0000 0.22620  0.86340  0.91410  Biso   1.000  C
  H78      1.0000 0.21650  0.83470  0.96800  Biso   1.000  H
  O40      1.0000 0.29937  0.39673  0.27583  Biso   1.000  O
  O41      1.0000 0.26467  0.31283  0.17073  Biso   1.000  O
  O42      1.0000 0.75777  0.10213  0.08183  Biso   1.000  O
  C118     1.0000 0.08167  0.35713  0.17833  Biso   1.000  C
  C119     1.0000 0.08757  0.30573  0.14353  Biso   1.000  C
  H79      1.0000 0.05267  0.27103  0.11323  Biso   1.000  H
  C120     1.0000 0.14417  0.30543  0.15333  Biso   1.000  C
  H80      1.0000 0.14767  0.27143  0.12793  Biso   1.000  H
  C121     1.0000 0.19637  0.35653  0.20143  Biso   1.000  C
  C122     1.0000 0.19137  0.40773  0.23963  Biso   1.000  C
  H81      1.0000 0.22607  0.44143  0.27253  Biso   1.000  H
  C123     1.0000 0.13367  0.40823  0.22823  Biso   1.000  C
  H82      1.0000 0.13007  0.44223  0.25363  Biso   1.000  H
  C124     1.0000 0.25717  0.35593  0.21593  Biso   1.000  C
  C125     1.0000 0.95127  0.25463  0.24603  Biso   1.000  C
  H83      1.0000 0.98087  0.26373  0.29843  Biso   1.000  H
  C126     1.0000 0.89287  0.19673  0.24743  Biso   1.000  C
  H84      1.0000 0.88317  0.16803  0.30133  Biso   1.000  H
  O43      1.0000 0.96603  0.73007  0.60917  Biso   1.000  O
  O44      1.0000 0.93133  0.64617  0.50407  Biso   1.000  O
  O45      1.0000 0.42443  0.43547  0.41517  Biso   1.000  O
  C127     1.0000 0.74833  0.69047  0.51167  Biso   1.000  C
  C128     1.0000 0.75423  0.63907  0.47687  Biso   1.000  C
  H85      1.0000 0.71933  0.60437  0.44657  Biso   1.000  H
  C129     1.0000 0.81083  0.63877  0.48667  Biso   1.000  C
  H86      1.0000 0.81433  0.60477  0.46127  Biso   1.000  H
  C130     1.0000 0.86303  0.68987  0.53477  Biso   1.000  C
  C131     1.0000 0.85803  0.74107  0.57297  Biso   1.000  C
  H87      1.0000 0.89273  0.77477  0.60587  Biso   1.000  H
  C132     1.0000 0.80033  0.74157  0.56157  Biso   1.000  C
  H88      1.0000 0.79673  0.77557  0.58697  Biso   1.000  H
  C133     1.0000 0.92383  0.68927  0.54927  Biso   1.000  C
  C134     1.0000 0.61793  0.58797  0.57937  Biso   1.000  C
  H89      1.0000 0.64753  0.59707  0.63177  Biso   1.000  H
  C135     1.0000 0.55953  0.53007  0.58077  Biso   1.000  C
  H90      1.0000 0.54983  0.50137  0.63467  Biso   1.000  H
  O46      1.0000 0.43070  0.36730  0.94250  Biso   1.000  O
  O47      1.0000 0.38150  0.40200  0.83740  Biso   1.000  O
  O48      1.0000 0.67770  0.90890  0.74850  Biso   1.000  O
  C136     1.0000 0.60880  0.58500  0.84500  Biso   1.000  C
  C137     1.0000 0.55150  0.57910  0.81020  Biso   1.000  C
  H91      1.0000 0.55170  0.61400  0.77990  Biso   1.000  H
  C138     1.0000 0.49460  0.52250  0.82000  Biso   1.000  C
  H92      1.0000 0.45710  0.51900  0.79460  Biso   1.000  H
  C139     1.0000 0.49350  0.47030  0.86810  Biso   1.000  C
  C140     1.0000 0.54970  0.47530  0.90630  Biso   1.000  C
  H93      1.0000 0.54870  0.44060  0.93920  Biso   1.000  H
  C141     1.0000 0.60790  0.53300  0.89490  Biso   1.000  C
  H94      1.0000 0.64550  0.53660  0.92030  Biso   1.000  H
  C142     1.0000 0.43210  0.40950  0.88260  Biso   1.000  C
  C143     1.0000 0.63670  0.71540  0.91270  Biso   1.000  C
  H95      1.0000 0.61620  0.68580  0.96510  Biso   1.000  H
  C144     1.0000 0.63720  0.77380  0.91410  Biso   1.000  C
  H96      1.0000 0.61820  0.78350  0.96800  Biso   1.000  H
  O49      1.0000 0.09737  0.70063  0.27583  Biso   1.000  O
  O50      1.0000 0.04817  0.73533  0.17073  Biso   1.000  O
  O51      1.0000 0.34437  0.24223  0.08183  Biso   1.000  O
  C145     1.0000 0.27547  0.91833  0.17833  Biso   1.000  C
  C146     1.0000 0.21817  0.91243  0.14353  Biso   1.000  C
  H97      1.0000 0.21837  0.94733  0.11323  Biso   1.000  H
  C147     1.0000 0.16127  0.85583  0.15333  Biso   1.000  C
  H98      1.0000 0.12377  0.85233  0.12793  Biso   1.000  H
  C148     1.0000 0.16017  0.80363  0.20143  Biso   1.000  C
  C149     1.0000 0.21637  0.80863  0.23963  Biso   1.000  C
  H99      1.0000 0.21537  0.77393  0.27253  Biso   1.000  H
  C150     1.0000 0.27457  0.86633  0.22823  Biso   1.000  C
  H100     1.0000 0.31217  0.86993  0.25363  Biso   1.000  H
  C151     1.0000 0.09877  0.74283  0.21593  Biso   1.000  C
  C152     1.0000 0.30337  0.04873  0.24603  Biso   1.000  C
  H101     1.0000 0.28287  0.01913  0.29843  Biso   1.000  H
  C153     1.0000 0.30387  0.10713  0.24743  Biso   1.000  C
  H102     1.0000 0.28487  0.11683  0.30133  Biso   1.000  H
  O52      1.0000 0.76403  0.03397  0.60917  Biso   1.000  O
  O53      1.0000 0.71483  0.06867  0.50407  Biso   1.000  O
  O54      1.0000 0.01103  0.57557  0.41517  Biso   1.000  O
  C154     1.0000 0.94213  0.25167  0.51167  Biso   1.000  C
  C155     1.0000 0.88483  0.24577  0.47687  Biso   1.000  C
  H103     1.0000 0.88503  0.28067  0.44657  Biso   1.000  H
  C156     1.0000 0.82793  0.18917  0.48667  Biso   1.000  C
  H104     1.0000 0.79043  0.18567  0.46127  Biso   1.000  H
  C157     1.0000 0.82683  0.13697  0.53477  Biso   1.000  C
  C158     1.0000 0.88303  0.14197  0.57297  Biso   1.000  C
  H105     1.0000 0.88203  0.10727  0.60587  Biso   1.000  H
  C159     1.0000 0.94123  0.19967  0.56157  Biso   1.000  C
  H106     1.0000 0.97883  0.20327  0.58697  Biso   1.000  H
  C160     1.0000 0.76543  0.07617  0.54927  Biso   1.000  C
  C161     1.0000 0.97003  0.38207  0.57937  Biso   1.000  C
  H107     1.0000 0.94953  0.35247  0.63177  Biso   1.000  H
  C162     1.0000 0.97053  0.44047  0.58077  Biso   1.000  C
  H108     1.0000 0.95153  0.45017  0.63467  Biso   1.000  H
  La1      1.0000 0.66667  0.01888  0.33333  Biso   1.000  La
  La2      1.0000 0.98112  0.64778  0.33333  Biso   1.000  La
  La3      1.0000 0.35222  0.33333  0.33333  Biso   1.000  La
  La4      1.0000 0.01888  0.66667  0.66667  Biso   1.000  La
  La5      1.0000 0.68555  0.00000  0.00000  Biso   1.000  La
  La6      1.0000 0.64778  0.98112  0.66667  Biso   1.000  La
  La7      1.0000 0.31445  0.31445  0.00000  Biso   1.000  La
  La8      1.0000 0.33333  0.35222  0.66667  Biso   1.000  La
  La9      1.0000 0.00000  0.68555  0.00000  Biso   1.000  La
  N1       1.0000 0.33333  0.97572  0.16667  Biso   1.000  N
  C163     1.0000 0.33333  0.03492  0.16667  Biso   1.000  C
  C164     1.0000 0.33333  0.15002  0.16667  Biso   1.000  C
  C165     1.0000 0.33333  0.21322  0.16667  Biso   1.000  C
  N2       1.0000 0.00000  0.30905  0.50000  Biso   1.000  N
  C166     1.0000 0.00000  0.36825  0.50000  Biso   1.000  C
  C167     1.0000 0.00000  0.48335  0.50000  Biso   1.000  C
  C168     1.0000 0.00000  0.54655  0.50000  Biso   1.000  C
  N3       1.0000 0.02428  0.35762  0.16667  Biso   1.000  N
  C169     1.0000 0.96508  0.29842  0.16667  Biso   1.000  C
  C170     1.0000 0.84998  0.18332  0.16667  Biso   1.000  C
  C171     1.0000 0.78678  0.12012  0.16667  Biso   1.000  C
  N4       1.0000 0.69095  0.69095  0.50000  Biso   1.000  N
  C172     1.0000 0.63175  0.63175  0.50000  Biso   1.000  C
  C173     1.0000 0.51665  0.51665  0.50000  Biso   1.000  C
  C174     1.0000 0.45345  0.45345  0.50000  Biso   1.000  C
  N5       1.0000 0.64238  0.66667  0.16667  Biso   1.000  N
  C175     1.0000 0.70158  0.66667  0.16667  Biso   1.000  C
  C176     1.0000 0.81668  0.66667  0.16667  Biso   1.000  C
  C177     1.0000 0.87988  0.66667  0.16667  Biso   1.000  C
  N6       1.0000 0.30905  0.00000  0.50000  Biso   1.000  N
  C178     1.0000 0.36825  0.00000  0.50000  Biso   1.000  C
  C179     1.0000 0.48335  0.00000  0.50000  Biso   1.000  C
  C180     1.0000 0.54655  0.00000  0.50000  Biso   1.000  C
  N7       1.0000 0.97572  0.33333  0.83333  Biso   1.000  N
  C181     1.0000 0.03492  0.33333  0.83333  Biso   1.000  C
  C182     1.0000 0.15002  0.33333  0.83333  Biso   1.000  C
  C183     1.0000 0.21322  0.33333  0.83333  Biso   1.000  C
  N8       1.0000 0.35762  0.02428  0.83333  Biso   1.000  N
  C184     1.0000 0.29842  0.96508  0.83333  Biso   1.000  C
  C185     1.0000 0.18332  0.84998  0.83333  Biso   1.000  C
  C186     1.0000 0.12012  0.78678  0.83333  Biso   1.000  C
  N9       1.0000 0.66667  0.64238  0.83333  Biso   1.000  N
  C187     1.0000 0.66667  0.70158  0.83333  Biso   1.000  C
  C188     1.0000 0.66667  0.81668  0.83333  Biso   1.000  C
  C189     1.0000 0.66667  0.87988  0.83333  Biso   1.000  C
