data_image0
_cell_length_a       24.2447
_cell_length_b       24.2447
_cell_length_c       13.1705
_cell_angle_alpha    90
_cell_angle_beta     90
_cell_angle_gamma    120

_symmetry_space_group_name_H-M    "P 1"
_symmetry_int_tables_number       1

loop_
  _symmetry_equiv_pos_as_xyz
  'x, y, z'

loop_
  _atom_site_label
  _atom_site_occupancy
  _atom_site_fract_x
  _atom_site_fract_y
  _atom_site_fract_z
  _atom_site_thermal_displace_type
  _atom_site_B_iso_or_equiv
  _atom_site_type_symbol
  O1       1.0000 0.76480  0.03570  0.10940  Biso   1.000  O
  O2       1.0000 0.71580  0.06980  0.00040  Biso   1.000  O
  O3       1.0000 0.99290  0.56730  0.08350  Biso   1.000  O
  C1       1.0000 0.94220  0.25380  0.01200  Biso   1.000  C
  C2       1.0000 0.88440  0.24680  0.97700  Biso   1.000  C
  H1       1.0000 0.88380  0.28110  0.94660  Biso   1.000  H
  C3       1.0000 0.82780  0.18860  0.98760  Biso   1.000  C
  H2       1.0000 0.79020  0.18500  0.96250  Biso   1.000  H
  C4       1.0000 0.82550  0.13850  0.03190  Biso   1.000  C
  C5       1.0000 0.94030  0.20080  0.06260  Biso   1.000  C
  H3       1.0000 0.97760  0.20450  0.08870  Biso   1.000  H
  C6       1.0000 0.88150  0.14180  0.07390  Biso   1.000  C
  H4       1.0000 0.87990  0.10720  0.10710  Biso   1.000  H
  C7       1.0000 0.76600  0.07710  0.04690  Biso   1.000  C
  C8       1.0000 0.97240  0.38400  0.07690  Biso   1.000  C
  H5       1.0000 0.95250  0.35470  0.12910  Biso   1.000  H
  C9       1.0000 0.97370  0.44030  0.07780  Biso   1.000  C
  H6       1.0000 0.95620  0.45010  0.13300  Biso   1.000  H
  O4       1.0000 0.43147  0.36903  0.44273  Biso   1.000  O
  O5       1.0000 0.38247  0.40313  0.33373  Biso   1.000  O
  O6       1.0000 0.65957  0.90063  0.41683  Biso   1.000  O
  C10      1.0000 0.60887  0.58713  0.34533  Biso   1.000  C
  C11      1.0000 0.55107  0.58013  0.31033  Biso   1.000  C
  H7       1.0000 0.55047  0.61443  0.27993  Biso   1.000  H
  C12      1.0000 0.49447  0.52193  0.32093  Biso   1.000  C
  H8       1.0000 0.45687  0.51833  0.29583  Biso   1.000  H
  C13      1.0000 0.49217  0.47183  0.36523  Biso   1.000  C
  C14      1.0000 0.60697  0.53413  0.39593  Biso   1.000  C
  H9       1.0000 0.64427  0.53783  0.42203  Biso   1.000  H
  C15      1.0000 0.54817  0.47513  0.40723  Biso   1.000  C
  H10      1.0000 0.54657  0.44053  0.44043  Biso   1.000  H
  C16      1.0000 0.43267  0.41043  0.38023  Biso   1.000  C
  C17      1.0000 0.63907  0.71733  0.41023  Biso   1.000  C
  H11      1.0000 0.61917  0.68803  0.46243  Biso   1.000  H
  C18      1.0000 0.64037  0.77363  0.41113  Biso   1.000  C
  H12      1.0000 0.62287  0.78343  0.46633  Biso   1.000  H
  O7       1.0000 0.09813  0.70237  0.77607  Biso   1.000  O
  O8       1.0000 0.04913  0.73647  0.66707  Biso   1.000  O
  O9       1.0000 0.32623  0.23397  0.75017  Biso   1.000  O
  C19      1.0000 0.27553  0.92047  0.67867  Biso   1.000  C
  C20      1.0000 0.21773  0.91347  0.64367  Biso   1.000  C
  H13      1.0000 0.21713  0.94777  0.61327  Biso   1.000  H
  C21      1.0000 0.16113  0.85527  0.65427  Biso   1.000  C
  H14      1.0000 0.12353  0.85167  0.62917  Biso   1.000  H
  C22      1.0000 0.15883  0.80517  0.69857  Biso   1.000  C
  C23      1.0000 0.27363  0.86747  0.72927  Biso   1.000  C
  H15      1.0000 0.31093  0.87117  0.75537  Biso   1.000  H
  C24      1.0000 0.21483  0.80847  0.74057  Biso   1.000  C
  H16      1.0000 0.21323  0.77387  0.77377  Biso   1.000  H
  C25      1.0000 0.09933  0.74377  0.71357  Biso   1.000  C
  C26      1.0000 0.30573  0.05067  0.74357  Biso   1.000  C
  H17      1.0000 0.28583  0.02137  0.79577  Biso   1.000  H
  C27      1.0000 0.30703  0.10697  0.74447  Biso   1.000  C
  H18      1.0000 0.28953  0.11677  0.79967  Biso   1.000  H
  O10      1.0000 0.96430  0.72910  0.10940  Biso   1.000  O
  O11      1.0000 0.93020  0.64600  0.00040  Biso   1.000  O
  O12      1.0000 0.43270  0.42560  0.08350  Biso   1.000  O
  C28      1.0000 0.74620  0.68840  0.01200  Biso   1.000  C
  C29      1.0000 0.75320  0.63760  0.97700  Biso   1.000  C
  H19      1.0000 0.71890  0.60270  0.94660  Biso   1.000  H
  C30      1.0000 0.81140  0.63920  0.98760  Biso   1.000  C
  H20      1.0000 0.81500  0.60520  0.96250  Biso   1.000  H
  C31      1.0000 0.86150  0.68700  0.03190  Biso   1.000  C
  C32      1.0000 0.79920  0.73950  0.06260  Biso   1.000  C
  H21      1.0000 0.79550  0.77310  0.08870  Biso   1.000  H
  C33      1.0000 0.85820  0.73970  0.07390  Biso   1.000  C
  H22      1.0000 0.89280  0.77270  0.10710  Biso   1.000  H
  C34      1.0000 0.92290  0.68890  0.04690  Biso   1.000  C
  C35      1.0000 0.61600  0.58840  0.07690  Biso   1.000  C
  H23      1.0000 0.64530  0.59780  0.12910  Biso   1.000  H
  C36      1.0000 0.55970  0.53340  0.07780  Biso   1.000  C
  H24      1.0000 0.54990  0.50610  0.13300  Biso   1.000  H
  O13      1.0000 0.63097  0.06243  0.44273  Biso   1.000  O
  O14      1.0000 0.59687  0.97933  0.33373  Biso   1.000  O
  O15      1.0000 0.09937  0.75893  0.41683  Biso   1.000  O
  C37      1.0000 0.41287  0.02173  0.34533  Biso   1.000  C
  C38      1.0000 0.41987  0.97093  0.31033  Biso   1.000  C
  H25      1.0000 0.38557  0.93603  0.27993  Biso   1.000  H
  C39      1.0000 0.47807  0.97253  0.32093  Biso   1.000  C
  H26      1.0000 0.48167  0.93853  0.29583  Biso   1.000  H
  C40      1.0000 0.52817  0.02033  0.36523  Biso   1.000  C
  C41      1.0000 0.46587  0.07283  0.39593  Biso   1.000  C
  H27      1.0000 0.46217  0.10643  0.42203  Biso   1.000  H
  C42      1.0000 0.52487  0.07303  0.40723  Biso   1.000  C
  H28      1.0000 0.55947  0.10603  0.44043  Biso   1.000  H
  C43      1.0000 0.58957  0.02223  0.38023  Biso   1.000  C
  C44      1.0000 0.28267  0.92173  0.41023  Biso   1.000  C
  H29      1.0000 0.31197  0.93113  0.46243  Biso   1.000  H
  C45      1.0000 0.22637  0.86673  0.41113  Biso   1.000  C
  H30      1.0000 0.21657  0.83943  0.46633  Biso   1.000  H
  O16      1.0000 0.29763  0.39577  0.77607  Biso   1.000  O
  O17      1.0000 0.26353  0.31267  0.66707  Biso   1.000  O
  O18      1.0000 0.76603  0.09227  0.75017  Biso   1.000  O
  C46      1.0000 0.07953  0.35507  0.67867  Biso   1.000  C
  C47      1.0000 0.08653  0.30427  0.64367  Biso   1.000  C
  H31      1.0000 0.05223  0.26937  0.61327  Biso   1.000  H
  C48      1.0000 0.14473  0.30587  0.65427  Biso   1.000  C
  H32      1.0000 0.14833  0.27187  0.62917  Biso   1.000  H
  C49      1.0000 0.19483  0.35367  0.69857  Biso   1.000  C
  C50      1.0000 0.13253  0.40617  0.72927  Biso   1.000  C
  H33      1.0000 0.12883  0.43977  0.75537  Biso   1.000  H
  C51      1.0000 0.19153  0.40637  0.74057  Biso   1.000  C
  H34      1.0000 0.22613  0.43937  0.77377  Biso   1.000  H
  C52      1.0000 0.25623  0.35557  0.71357  Biso   1.000  C
  C53      1.0000 0.94933  0.25507  0.74357  Biso   1.000  C
  H35      1.0000 0.97863  0.26447  0.79577  Biso   1.000  H
  C54      1.0000 0.89303  0.20007  0.74447  Biso   1.000  C
  H36      1.0000 0.88323  0.17277  0.79967  Biso   1.000  H
  O19      1.0000 0.27090  0.23520  0.10940  Biso   1.000  O
  O20      1.0000 0.35400  0.28420  0.00040  Biso   1.000  O
  O21      1.0000 0.57440  0.00710  0.08350  Biso   1.000  O
  C55      1.0000 0.31160  0.05780  0.01200  Biso   1.000  C
  C56      1.0000 0.36240  0.11560  0.97700  Biso   1.000  C
  H37      1.0000 0.39730  0.11620  0.94660  Biso   1.000  H
  C57      1.0000 0.36080  0.17220  0.98760  Biso   1.000  C
  H38      1.0000 0.39480  0.20980  0.96250  Biso   1.000  H
  C58      1.0000 0.31300  0.17450  0.03190  Biso   1.000  C
  C59      1.0000 0.26050  0.05970  0.06260  Biso   1.000  C
  H39      1.0000 0.22690  0.02240  0.08870  Biso   1.000  H
  C60      1.0000 0.26030  0.11850  0.07390  Biso   1.000  C
  H40      1.0000 0.22730  0.12010  0.10710  Biso   1.000  H
  C61      1.0000 0.31110  0.23400  0.04690  Biso   1.000  C
  C62      1.0000 0.41160  0.02760  0.07690  Biso   1.000  C
  H41      1.0000 0.40220  0.04750  0.12910  Biso   1.000  H
  C63      1.0000 0.46660  0.02630  0.07780  Biso   1.000  C
  H42      1.0000 0.49390  0.04380  0.13300  Biso   1.000  H
  O22      1.0000 0.93757  0.56853  0.44273  Biso   1.000  O
  O23      1.0000 0.02067  0.61753  0.33373  Biso   1.000  O
  O24      1.0000 0.24107  0.34043  0.41683  Biso   1.000  O
  C64      1.0000 0.97827  0.39113  0.34533  Biso   1.000  C
  C65      1.0000 0.02907  0.44893  0.31033  Biso   1.000  C
  H43      1.0000 0.06397  0.44953  0.27993  Biso   1.000  H
  C66      1.0000 0.02747  0.50553  0.32093  Biso   1.000  C
  H44      1.0000 0.06147  0.54313  0.29583  Biso   1.000  H
  C67      1.0000 0.97967  0.50783  0.36523  Biso   1.000  C
  C68      1.0000 0.92717  0.39303  0.39593  Biso   1.000  C
  H45      1.0000 0.89357  0.35573  0.42203  Biso   1.000  H
  C69      1.0000 0.92697  0.45183  0.40723  Biso   1.000  C
  H46      1.0000 0.89397  0.45343  0.44043  Biso   1.000  H
  C70      1.0000 0.97777  0.56733  0.38023  Biso   1.000  C
  C71      1.0000 0.07827  0.36093  0.41023  Biso   1.000  C
  H47      1.0000 0.06887  0.38083  0.46243  Biso   1.000  H
  C72      1.0000 0.13327  0.35963  0.41113  Biso   1.000  C
  H48      1.0000 0.16057  0.37713  0.46633  Biso   1.000  H
  O25      1.0000 0.60423  0.90187  0.77607  Biso   1.000  O
  O26      1.0000 0.68733  0.95087  0.66707  Biso   1.000  O
  O27      1.0000 0.90773  0.67377  0.75017  Biso   1.000  O
  C73      1.0000 0.64493  0.72447  0.67867  Biso   1.000  C
  C74      1.0000 0.69573  0.78227  0.64367  Biso   1.000  C
  H49      1.0000 0.73063  0.78287  0.61327  Biso   1.000  H
  C75      1.0000 0.69413  0.83887  0.65427  Biso   1.000  C
  H50      1.0000 0.72813  0.87647  0.62917  Biso   1.000  H
  C76      1.0000 0.64633  0.84117  0.69857  Biso   1.000  C
  C77      1.0000 0.59383  0.72637  0.72927  Biso   1.000  C
  H51      1.0000 0.56023  0.68907  0.75537  Biso   1.000  H
  C78      1.0000 0.59363  0.78517  0.74057  Biso   1.000  C
  H52      1.0000 0.56063  0.78677  0.77377  Biso   1.000  H
  C79      1.0000 0.64443  0.90067  0.71357  Biso   1.000  C
  C80      1.0000 0.74493  0.69427  0.74357  Biso   1.000  C
  H53      1.0000 0.73553  0.71417  0.79577  Biso   1.000  H
  C81      1.0000 0.79993  0.69297  0.74447  Biso   1.000  C
  H54      1.0000 0.82723  0.71047  0.79967  Biso   1.000  H
  O28      1.0000 0.03570  0.76480  0.89060  Biso   1.000  O
  O29      1.0000 0.06980  0.71580  0.99960  Biso   1.000  O
  O30      1.0000 0.56730  0.99290  0.91650  Biso   1.000  O
  C82      1.0000 0.25380  0.94220  0.98800  Biso   1.000  C
  C83      1.0000 0.24680  0.88440  0.02300  Biso   1.000  C
  H55      1.0000 0.28110  0.88380  0.05340  Biso   1.000  H
  C84      1.0000 0.18860  0.82780  0.01240  Biso   1.000  C
  H56      1.0000 0.18500  0.79020  0.03750  Biso   1.000  H
  C85      1.0000 0.13850  0.82550  0.96810  Biso   1.000  C
  C86      1.0000 0.20080  0.94030  0.93740  Biso   1.000  C
  H57      1.0000 0.20450  0.97760  0.91130  Biso   1.000  H
  C87      1.0000 0.14180  0.88150  0.92610  Biso   1.000  C
  H58      1.0000 0.10720  0.87990  0.89290  Biso   1.000  H
  C88      1.0000 0.07710  0.76600  0.95310  Biso   1.000  C
  C89      1.0000 0.38400  0.97240  0.92310  Biso   1.000  C
  H59      1.0000 0.35470  0.95250  0.87090  Biso   1.000  H
  C90      1.0000 0.44030  0.97370  0.92220  Biso   1.000  C
  H60      1.0000 0.45010  0.95620  0.86700  Biso   1.000  H
  O31      1.0000 0.70237  0.09813  0.22393  Biso   1.000  O
  O32      1.0000 0.73647  0.04913  0.33293  Biso   1.000  O
  O33      1.0000 0.23397  0.32623  0.24983  Biso   1.000  O
  C91      1.0000 0.92047  0.27553  0.32133  Biso   1.000  C
  C92      1.0000 0.91347  0.21773  0.35633  Biso   1.000  C
  H61      1.0000 0.94777  0.21713  0.38673  Biso   1.000  H
  C93      1.0000 0.85527  0.16113  0.34573  Biso   1.000  C
  H62      1.0000 0.85167  0.12353  0.37083  Biso   1.000  H
  C94      1.0000 0.80517  0.15883  0.30143  Biso   1.000  C
  C95      1.0000 0.86747  0.27363  0.27073  Biso   1.000  C
  H63      1.0000 0.87117  0.31093  0.24463  Biso   1.000  H
  C96      1.0000 0.80847  0.21483  0.25943  Biso   1.000  C
  H64      1.0000 0.77387  0.21323  0.22623  Biso   1.000  H
  C97      1.0000 0.74377  0.09933  0.28643  Biso   1.000  C
  C98      1.0000 0.05067  0.30573  0.25643  Biso   1.000  C
  H65      1.0000 0.02137  0.28583  0.20423  Biso   1.000  H
  C99      1.0000 0.10697  0.30703  0.25553  Biso   1.000  C
  H66      1.0000 0.11677  0.28953  0.20033  Biso   1.000  H
  O34      1.0000 0.36903  0.43147  0.55727  Biso   1.000  O
  O35      1.0000 0.40313  0.38247  0.66627  Biso   1.000  O
  O36      1.0000 0.90063  0.65957  0.58317  Biso   1.000  O
  C100     1.0000 0.58713  0.60887  0.65467  Biso   1.000  C
  C101     1.0000 0.58013  0.55107  0.68967  Biso   1.000  C
  H67      1.0000 0.61443  0.55047  0.72007  Biso   1.000  H
  C102     1.0000 0.52193  0.49447  0.67907  Biso   1.000  C
  H68      1.0000 0.51833  0.45687  0.70417  Biso   1.000  H
  C103     1.0000 0.47183  0.49217  0.63477  Biso   1.000  C
  C104     1.0000 0.53413  0.60697  0.60407  Biso   1.000  C
  H69      1.0000 0.53783  0.64427  0.57797  Biso   1.000  H
  C105     1.0000 0.47513  0.54817  0.59277  Biso   1.000  C
  H70      1.0000 0.44053  0.54657  0.55957  Biso   1.000  H
  C106     1.0000 0.41043  0.43267  0.61977  Biso   1.000  C
  C107     1.0000 0.71733  0.63907  0.58977  Biso   1.000  C
  H71      1.0000 0.68803  0.61917  0.53757  Biso   1.000  H
  C108     1.0000 0.77363  0.64037  0.58887  Biso   1.000  C
  H72      1.0000 0.78343  0.62287  0.53367  Biso   1.000  H
  O37      1.0000 0.72910  0.96430  0.89060  Biso   1.000  O
  O38      1.0000 0.64600  0.93020  0.99960  Biso   1.000  O
  O39      1.0000 0.42560  0.43270  0.91650  Biso   1.000  O
  C109     1.0000 0.68840  0.74620  0.98800  Biso   1.000  C
  C110     1.0000 0.63760  0.75320  0.02300  Biso   1.000  C
  H73      1.0000 0.60270  0.71890  0.05340  Biso   1.000  H
  C111     1.0000 0.63920  0.81140  0.01240  Biso   1.000  C
  H74      1.0000 0.60520  0.81500  0.03750  Biso   1.000  H
  C112     1.0000 0.68700  0.86150  0.96810  Biso   1.000  C
  C113     1.0000 0.73950  0.79920  0.93740  Biso   1.000  C
  H75      1.0000 0.77310  0.79550  0.91130  Biso   1.000  H
  C114     1.0000 0.73970  0.85820  0.92610  Biso   1.000  C
  H76      1.0000 0.77270  0.89280  0.89290  Biso   1.000  H
  C115     1.0000 0.68890  0.92290  0.95310  Biso   1.000  C
  C116     1.0000 0.58840  0.61600  0.92310  Biso   1.000  C
  H77      1.0000 0.59780  0.64530  0.87090  Biso   1.000  H
  C117     1.0000 0.53340  0.55970  0.92220  Biso   1.000  C
  H78      1.0000 0.50610  0.54990  0.86700  Biso   1.000  H
  O40      1.0000 0.39577  0.29763  0.22393  Biso   1.000  O
  O41      1.0000 0.31267  0.26353  0.33293  Biso   1.000  O
  O42      1.0000 0.09227  0.76603  0.24983  Biso   1.000  O
  C118     1.0000 0.35507  0.07953  0.32133  Biso   1.000  C
  C119     1.0000 0.30427  0.08653  0.35633  Biso   1.000  C
  H79      1.0000 0.26937  0.05223  0.38673  Biso   1.000  H
  C120     1.0000 0.30587  0.14473  0.34573  Biso   1.000  C
  H80      1.0000 0.27187  0.14833  0.37083  Biso   1.000  H
  C121     1.0000 0.35367  0.19483  0.30143  Biso   1.000  C
  C122     1.0000 0.40617  0.13253  0.27073  Biso   1.000  C
  H81      1.0000 0.43977  0.12883  0.24463  Biso   1.000  H
  C123     1.0000 0.40637  0.19153  0.25943  Biso   1.000  C
  H82      1.0000 0.43937  0.22613  0.22623  Biso   1.000  H
  C124     1.0000 0.35557  0.25623  0.28643  Biso   1.000  C
  C125     1.0000 0.25507  0.94933  0.25643  Biso   1.000  C
  H83      1.0000 0.26447  0.97863  0.20423  Biso   1.000  H
  C126     1.0000 0.20007  0.89303  0.25553  Biso   1.000  C
  H84      1.0000 0.17277  0.88323  0.20033  Biso   1.000  H
  O43      1.0000 0.06243  0.63097  0.55727  Biso   1.000  O
  O44      1.0000 0.97933  0.59687  0.66627  Biso   1.000  O
  O45      1.0000 0.75893  0.09937  0.58317  Biso   1.000  O
  C127     1.0000 0.02173  0.41287  0.65467  Biso   1.000  C
  C128     1.0000 0.97093  0.41987  0.68967  Biso   1.000  C
  H85      1.0000 0.93603  0.38557  0.72007  Biso   1.000  H
  C129     1.0000 0.97253  0.47807  0.67907  Biso   1.000  C
  H86      1.0000 0.93853  0.48167  0.70417  Biso   1.000  H
  C130     1.0000 0.02033  0.52817  0.63477  Biso   1.000  C
  C131     1.0000 0.07283  0.46587  0.60407  Biso   1.000  C
  H87      1.0000 0.10643  0.46217  0.57797  Biso   1.000  H
  C132     1.0000 0.07303  0.52487  0.59277  Biso   1.000  C
  H88      1.0000 0.10603  0.55947  0.55957  Biso   1.000  H
  C133     1.0000 0.02223  0.58957  0.61977  Biso   1.000  C
  C134     1.0000 0.92173  0.28267  0.58977  Biso   1.000  C
  H89      1.0000 0.93113  0.31197  0.53757  Biso   1.000  H
  C135     1.0000 0.86673  0.22637  0.58887  Biso   1.000  C
  H90      1.0000 0.83943  0.21657  0.53367  Biso   1.000  H
  O46      1.0000 0.23520  0.27090  0.89060  Biso   1.000  O
  O47      1.0000 0.28420  0.35400  0.99960  Biso   1.000  O
  O48      1.0000 0.00710  0.57440  0.91650  Biso   1.000  O
  C136     1.0000 0.05780  0.31160  0.98800  Biso   1.000  C
  C137     1.0000 0.11560  0.36240  0.02300  Biso   1.000  C
  H91      1.0000 0.11620  0.39730  0.05340  Biso   1.000  H
  C138     1.0000 0.17220  0.36080  0.01240  Biso   1.000  C
  H92      1.0000 0.20980  0.39480  0.03750  Biso   1.000  H
  C139     1.0000 0.17450  0.31300  0.96810  Biso   1.000  C
  C140     1.0000 0.05970  0.26050  0.93740  Biso   1.000  C
  H93      1.0000 0.02240  0.22690  0.91130  Biso   1.000  H
  C141     1.0000 0.11850  0.26030  0.92610  Biso   1.000  C
  H94      1.0000 0.12010  0.22730  0.89290  Biso   1.000  H
  C142     1.0000 0.23400  0.31110  0.95310  Biso   1.000  C
  C143     1.0000 0.02760  0.41160  0.92310  Biso   1.000  C
  H95      1.0000 0.04750  0.40220  0.87090  Biso   1.000  H
  C144     1.0000 0.02630  0.46660  0.92220  Biso   1.000  C
  H96      1.0000 0.04380  0.49390  0.86700  Biso   1.000  H
  O49      1.0000 0.90187  0.60423  0.22393  Biso   1.000  O
  O50      1.0000 0.95087  0.68733  0.33293  Biso   1.000  O
  O51      1.0000 0.67377  0.90773  0.24983  Biso   1.000  O
  C145     1.0000 0.72447  0.64493  0.32133  Biso   1.000  C
  C146     1.0000 0.78227  0.69573  0.35633  Biso   1.000  C
  H97      1.0000 0.78287  0.73063  0.38673  Biso   1.000  H
  C147     1.0000 0.83887  0.69413  0.34573  Biso   1.000  C
  H98      1.0000 0.87647  0.72813  0.37083  Biso   1.000  H
  C148     1.0000 0.84117  0.64633  0.30143  Biso   1.000  C
  C149     1.0000 0.72637  0.59383  0.27073  Biso   1.000  C
  H99      1.0000 0.68907  0.56023  0.24463  Biso   1.000  H
  C150     1.0000 0.78517  0.59363  0.25943  Biso   1.000  C
  H100     1.0000 0.78677  0.56063  0.22623  Biso   1.000  H
  C151     1.0000 0.90067  0.64443  0.28643  Biso   1.000  C
  C152     1.0000 0.69427  0.74493  0.25643  Biso   1.000  C
  H101     1.0000 0.71417  0.73553  0.20423  Biso   1.000  H
  C153     1.0000 0.69297  0.79993  0.25553  Biso   1.000  C
  H102     1.0000 0.71047  0.82723  0.20033  Biso   1.000  H
  O52      1.0000 0.56853  0.93757  0.55727  Biso   1.000  O
  O53      1.0000 0.61753  0.02067  0.66627  Biso   1.000  O
  O54      1.0000 0.34043  0.24107  0.58317  Biso   1.000  O
  C154     1.0000 0.39113  0.97827  0.65467  Biso   1.000  C
  C155     1.0000 0.44893  0.02907  0.68967  Biso   1.000  C
  H103     1.0000 0.44953  0.06397  0.72007  Biso   1.000  H
  C156     1.0000 0.50553  0.02747  0.67907  Biso   1.000  C
  H104     1.0000 0.54313  0.06147  0.70417  Biso   1.000  H
  C157     1.0000 0.50783  0.97967  0.63477  Biso   1.000  C
  C158     1.0000 0.39303  0.92717  0.60407  Biso   1.000  C
  H105     1.0000 0.35573  0.89357  0.57797  Biso   1.000  H
  C159     1.0000 0.45183  0.92697  0.59277  Biso   1.000  C
  H106     1.0000 0.45343  0.89397  0.55957  Biso   1.000  H
  C160     1.0000 0.56733  0.97777  0.61977  Biso   1.000  C
  C161     1.0000 0.36093  0.07827  0.58977  Biso   1.000  C
  H107     1.0000 0.38083  0.06887  0.53757  Biso   1.000  H
  C162     1.0000 0.35963  0.13327  0.58887  Biso   1.000  C
  H108     1.0000 0.37713  0.16057  0.53367  Biso   1.000  H
  La1      1.0000 0.64903  0.98236  0.16667  Biso   1.000  La
  La2      1.0000 0.31570  0.31570  0.50000  Biso   1.000  La
  La3      1.0000 0.01764  0.66667  0.16667  Biso   1.000  La
  La4      1.0000 0.68430  0.00000  0.50000  Biso   1.000  La
  La5      1.0000 0.33333  0.35097  0.16667  Biso   1.000  La
  La6      1.0000 0.00000  0.68430  0.50000  Biso   1.000  La
  La7      1.0000 0.98236  0.64903  0.83333  Biso   1.000  La
  La8      1.0000 0.66667  0.01764  0.83333  Biso   1.000  La
  La9      1.0000 0.35097  0.33333  0.83333  Biso   1.000  La
  N1       1.0000 0.00000  0.31160  0.00000  Biso   1.000  N
  C163     1.0000 0.00000  0.37050  0.00000  Biso   1.000  C
  C164     1.0000 0.00000  0.48390  0.00000  Biso   1.000  C
  C165     1.0000 0.00000  0.54570  0.00000  Biso   1.000  C
  N2       1.0000 0.66667  0.64493  0.33333  Biso   1.000  N
  C166     1.0000 0.66667  0.70383  0.33333  Biso   1.000  C
  C167     1.0000 0.66667  0.81723  0.33333  Biso   1.000  C
  C168     1.0000 0.66667  0.87903  0.33333  Biso   1.000  C
  N3       1.0000 0.33333  0.97827  0.66667  Biso   1.000  N
  C169     1.0000 0.33333  0.03717  0.66667  Biso   1.000  C
  C170     1.0000 0.33333  0.15057  0.66667  Biso   1.000  C
  C171     1.0000 0.33333  0.21237  0.66667  Biso   1.000  C
  N4       1.0000 0.68840  0.68840  0.00000  Biso   1.000  N
  C172     1.0000 0.62950  0.62950  0.00000  Biso   1.000  C
  C173     1.0000 0.51610  0.51610  0.00000  Biso   1.000  C
  C174     1.0000 0.45430  0.45430  0.00000  Biso   1.000  C
  N5       1.0000 0.35507  0.02173  0.33333  Biso   1.000  N
  C175     1.0000 0.29617  0.96283  0.33333  Biso   1.000  C
  C176     1.0000 0.18277  0.84943  0.33333  Biso   1.000  C
  C177     1.0000 0.12097  0.78763  0.33333  Biso   1.000  C
  N6       1.0000 0.02173  0.35507  0.66667  Biso   1.000  N
  C178     1.0000 0.96283  0.29617  0.66667  Biso   1.000  C
  C179     1.0000 0.84943  0.18277  0.66667  Biso   1.000  C
  C180     1.0000 0.78763  0.12097  0.66667  Biso   1.000  C
  N7       1.0000 0.31160  0.00000  0.00000  Biso   1.000  N
  C181     1.0000 0.37050  0.00000  0.00000  Biso   1.000  C
  C182     1.0000 0.48390  0.00000  0.00000  Biso   1.000  C
  C183     1.0000 0.54570  0.00000  0.00000  Biso   1.000  C
  N8       1.0000 0.97827  0.33333  0.33333  Biso   1.000  N
  C184     1.0000 0.03717  0.33333  0.33333  Biso   1.000  C
  C185     1.0000 0.15057  0.33333  0.33333  Biso   1.000  C
  C186     1.0000 0.21237  0.33333  0.33333  Biso   1.000  C
  N9       1.0000 0.64493  0.66667  0.66667  Biso   1.000  N
  C187     1.0000 0.70383  0.66667  0.66667  Biso   1.000  C
  C188     1.0000 0.81723  0.66667  0.66667  Biso   1.000  C
  C189     1.0000 0.87903  0.66667  0.66667  Biso   1.000  C
