data_image0
_cell_length_a       24.2372
_cell_length_b       24.2372
_cell_length_c       13.2135
_cell_angle_alpha    90
_cell_angle_beta     90
_cell_angle_gamma    120

_symmetry_space_group_name_H-M    "P 1"
_symmetry_int_tables_number       1

loop_
  _symmetry_equiv_pos_as_xyz
  'x, y, z'

loop_
  _atom_site_label
  _atom_site_occupancy
  _atom_site_fract_x
  _atom_site_fract_y
  _atom_site_fract_z
  _atom_site_thermal_displace_type
  _atom_site_B_iso_or_equiv
  _atom_site_type_symbol
  O1       1.0000 0.76530  0.03760  0.10810  Biso   1.000  O
  O2       1.0000 0.71660  0.06980  0.99880  Biso   1.000  O
  O3       1.0000 0.99400  0.56900  0.08380  Biso   1.000  O
  C1       1.0000 0.94070  0.25270  0.01290  Biso   1.000  C
  C2       1.0000 0.88460  0.24680  0.97440  Biso   1.000  C
  H1       1.0000 0.88520  0.28120  0.94190  Biso   1.000  H
  C3       1.0000 0.82770  0.18960  0.98430  Biso   1.000  C
  H2       1.0000 0.79020  0.18560  0.95850  Biso   1.000  H
  C4       1.0000 0.82680  0.13830  0.03290  Biso   1.000  C
  C5       1.0000 0.88290  0.14420  0.07140  Biso   1.000  C
  H3       1.0000 0.88230  0.10990  0.10390  Biso   1.000  H
  C6       1.0000 0.93980  0.20140  0.06150  Biso   1.000  C
  H4       1.0000 0.97730  0.20540  0.08730  Biso   1.000  H
  C7       1.0000 0.76700  0.07710  0.04610  Biso   1.000  C
  C8       1.0000 0.97210  0.38560  0.07730  Biso   1.000  C
  H5       1.0000 0.95290  0.35690  0.13010  Biso   1.000  H
  C9       1.0000 0.97250  0.44170  0.07700  Biso   1.000  C
  H6       1.0000 0.95360  0.45140  0.13020  Biso   1.000  H
  O4       1.0000 0.43197  0.37093  0.44143  Biso   1.000  O
  O5       1.0000 0.38327  0.40313  0.33213  Biso   1.000  O
  O6       1.0000 0.66067  0.90233  0.41713  Biso   1.000  O
  C10      1.0000 0.60737  0.58603  0.34623  Biso   1.000  C
  C11      1.0000 0.55127  0.58013  0.30773  Biso   1.000  C
  H7       1.0000 0.55187  0.61453  0.27523  Biso   1.000  H
  C12      1.0000 0.49437  0.52293  0.31763  Biso   1.000  C
  H8       1.0000 0.45687  0.51893  0.29183  Biso   1.000  H
  C13      1.0000 0.49347  0.47163  0.36623  Biso   1.000  C
  C14      1.0000 0.54957  0.47753  0.40473  Biso   1.000  C
  H9       1.0000 0.54897  0.44323  0.43723  Biso   1.000  H
  C15      1.0000 0.60647  0.53473  0.39483  Biso   1.000  C
  H10      1.0000 0.64397  0.53873  0.42063  Biso   1.000  H
  C16      1.0000 0.43367  0.41043  0.37943  Biso   1.000  C
  C17      1.0000 0.63877  0.71893  0.41063  Biso   1.000  C
  H11      1.0000 0.61957  0.69023  0.46343  Biso   1.000  H
  C18      1.0000 0.63917  0.77503  0.41033  Biso   1.000  C
  H12      1.0000 0.62027  0.78473  0.46353  Biso   1.000  H
  O7       1.0000 0.09863  0.70427  0.77477  Biso   1.000  O
  O8       1.0000 0.04993  0.73647  0.66547  Biso   1.000  O
  O9       1.0000 0.32733  0.23567  0.75047  Biso   1.000  O
  C19      1.0000 0.27403  0.91937  0.67957  Biso   1.000  C
  C20      1.0000 0.21793  0.91347  0.64107  Biso   1.000  C
  H13      1.0000 0.21853  0.94787  0.60857  Biso   1.000  H
  C21      1.0000 0.16103  0.85627  0.65097  Biso   1.000  C
  H14      1.0000 0.12353  0.85227  0.62517  Biso   1.000  H
  C22      1.0000 0.16013  0.80497  0.69957  Biso   1.000  C
  C23      1.0000 0.21623  0.81087  0.73807  Biso   1.000  C
  H15      1.0000 0.21563  0.77657  0.77057  Biso   1.000  H
  C24      1.0000 0.27313  0.86807  0.72817  Biso   1.000  C
  H16      1.0000 0.31063  0.87207  0.75397  Biso   1.000  H
  C25      1.0000 0.10033  0.74377  0.71277  Biso   1.000  C
  C26      1.0000 0.30543  0.05227  0.74397  Biso   1.000  C
  H17      1.0000 0.28623  0.02357  0.79677  Biso   1.000  H
  C27      1.0000 0.30583  0.10837  0.74367  Biso   1.000  C
  H18      1.0000 0.28693  0.11807  0.79687  Biso   1.000  H
  O10      1.0000 0.96240  0.72770  0.10810  Biso   1.000  O
  O11      1.0000 0.93020  0.64680  0.99880  Biso   1.000  O
  O12      1.0000 0.43100  0.42500  0.08380  Biso   1.000  O
  C28      1.0000 0.74730  0.68800  0.01290  Biso   1.000  C
  C29      1.0000 0.75320  0.63780  0.97440  Biso   1.000  C
  H19      1.0000 0.71880  0.60400  0.94190  Biso   1.000  H
  C30      1.0000 0.81040  0.63810  0.98430  Biso   1.000  C
  H20      1.0000 0.81440  0.60460  0.95850  Biso   1.000  H
  C31      1.0000 0.86170  0.68850  0.03290  Biso   1.000  C
  C32      1.0000 0.85580  0.73870  0.07140  Biso   1.000  C
  H21      1.0000 0.89010  0.77240  0.10390  Biso   1.000  H
  C33      1.0000 0.79860  0.73840  0.06150  Biso   1.000  C
  H22      1.0000 0.79460  0.77190  0.08730  Biso   1.000  H
  C34      1.0000 0.92290  0.68990  0.04610  Biso   1.000  C
  C35      1.0000 0.61440  0.58650  0.07730  Biso   1.000  C
  H23      1.0000 0.64310  0.59600  0.13010  Biso   1.000  H
  C36      1.0000 0.55830  0.53080  0.07700  Biso   1.000  C
  H24      1.0000 0.54860  0.50220  0.13020  Biso   1.000  H
  O13      1.0000 0.62907  0.06103  0.44143  Biso   1.000  O
  O14      1.0000 0.59687  0.98013  0.33213  Biso   1.000  O
  O15      1.0000 0.09767  0.75833  0.41713  Biso   1.000  O
  C37      1.0000 0.41397  0.02133  0.34623  Biso   1.000  C
  C38      1.0000 0.41987  0.97113  0.30773  Biso   1.000  C
  H25      1.0000 0.38547  0.93733  0.27523  Biso   1.000  H
  C39      1.0000 0.47707  0.97143  0.31763  Biso   1.000  C
  H26      1.0000 0.48107  0.93793  0.29183  Biso   1.000  H
  C40      1.0000 0.52837  0.02183  0.36623  Biso   1.000  C
  C41      1.0000 0.52247  0.07203  0.40473  Biso   1.000  C
  H27      1.0000 0.55677  0.10573  0.43723  Biso   1.000  H
  C42      1.0000 0.46527  0.07173  0.39483  Biso   1.000  C
  H28      1.0000 0.46127  0.10523  0.42063  Biso   1.000  H
  C43      1.0000 0.58957  0.02323  0.37943  Biso   1.000  C
  C44      1.0000 0.28107  0.91983  0.41063  Biso   1.000  C
  H29      1.0000 0.30977  0.92933  0.46343  Biso   1.000  H
  C45      1.0000 0.22497  0.86413  0.41033  Biso   1.000  C
  H30      1.0000 0.21527  0.83553  0.46353  Biso   1.000  H
  O16      1.0000 0.29573  0.39437  0.77477  Biso   1.000  O
  O17      1.0000 0.26353  0.31347  0.66547  Biso   1.000  O
  O18      1.0000 0.76433  0.09167  0.75047  Biso   1.000  O
  C46      1.0000 0.08063  0.35467  0.67957  Biso   1.000  C
  C47      1.0000 0.08653  0.30447  0.64107  Biso   1.000  C
  H31      1.0000 0.05213  0.27067  0.60857  Biso   1.000  H
  C48      1.0000 0.14373  0.30477  0.65097  Biso   1.000  C
  H32      1.0000 0.14773  0.27127  0.62517  Biso   1.000  H
  C49      1.0000 0.19503  0.35517  0.69957  Biso   1.000  C
  C50      1.0000 0.18913  0.40537  0.73807  Biso   1.000  C
  H33      1.0000 0.22343  0.43907  0.77057  Biso   1.000  H
  C51      1.0000 0.13193  0.40507  0.72817  Biso   1.000  C
  H34      1.0000 0.12793  0.43857  0.75397  Biso   1.000  H
  C52      1.0000 0.25623  0.35657  0.71277  Biso   1.000  C
  C53      1.0000 0.94773  0.25317  0.74397  Biso   1.000  C
  H35      1.0000 0.97643  0.26267  0.79677  Biso   1.000  H
  C54      1.0000 0.89163  0.19747  0.74367  Biso   1.000  C
  H36      1.0000 0.88193  0.16887  0.79687  Biso   1.000  H
  O19      1.0000 0.27230  0.23470  0.10810  Biso   1.000  O
  O20      1.0000 0.35320  0.28340  0.99880  Biso   1.000  O
  O21      1.0000 0.57500  0.00600  0.08380  Biso   1.000  O
  C55      1.0000 0.31200  0.05930  0.01290  Biso   1.000  C
  C56      1.0000 0.36220  0.11540  0.97440  Biso   1.000  C
  H37      1.0000 0.39600  0.11480  0.94190  Biso   1.000  H
  C57      1.0000 0.36190  0.17230  0.98430  Biso   1.000  C
  H38      1.0000 0.39540  0.20980  0.95850  Biso   1.000  H
  C58      1.0000 0.31150  0.17320  0.03290  Biso   1.000  C
  C59      1.0000 0.26130  0.11710  0.07140  Biso   1.000  C
  H39      1.0000 0.22760  0.11770  0.10390  Biso   1.000  H
  C60      1.0000 0.26160  0.06020  0.06150  Biso   1.000  C
  H40      1.0000 0.22810  0.02270  0.08730  Biso   1.000  H
  C61      1.0000 0.31010  0.23300  0.04610  Biso   1.000  C
  C62      1.0000 0.41350  0.02790  0.07730  Biso   1.000  C
  H41      1.0000 0.40400  0.04710  0.13010  Biso   1.000  H
  C63      1.0000 0.46920  0.02750  0.07700  Biso   1.000  C
  H42      1.0000 0.49780  0.04640  0.13020  Biso   1.000  H
  O22      1.0000 0.93897  0.56803  0.44143  Biso   1.000  O
  O23      1.0000 0.01987  0.61673  0.33213  Biso   1.000  O
  O24      1.0000 0.24167  0.33933  0.41713  Biso   1.000  O
  C64      1.0000 0.97867  0.39263  0.34623  Biso   1.000  C
  C65      1.0000 0.02887  0.44873  0.30773  Biso   1.000  C
  H43      1.0000 0.06267  0.44813  0.27523  Biso   1.000  H
  C66      1.0000 0.02857  0.50563  0.31763  Biso   1.000  C
  H44      1.0000 0.06207  0.54313  0.29183  Biso   1.000  H
  C67      1.0000 0.97817  0.50653  0.36623  Biso   1.000  C
  C68      1.0000 0.92797  0.45043  0.40473  Biso   1.000  C
  H45      1.0000 0.89427  0.45103  0.43723  Biso   1.000  H
  C69      1.0000 0.92827  0.39353  0.39483  Biso   1.000  C
  H46      1.0000 0.89477  0.35603  0.42063  Biso   1.000  H
  C70      1.0000 0.97677  0.56633  0.37943  Biso   1.000  C
  C71      1.0000 0.08017  0.36123  0.41063  Biso   1.000  C
  H47      1.0000 0.07067  0.38043  0.46343  Biso   1.000  H
  C72      1.0000 0.13587  0.36083  0.41033  Biso   1.000  C
  H48      1.0000 0.16447  0.37973  0.46353  Biso   1.000  H
  O25      1.0000 0.60563  0.90137  0.77477  Biso   1.000  O
  O26      1.0000 0.68653  0.95007  0.66547  Biso   1.000  O
  O27      1.0000 0.90833  0.67267  0.75047  Biso   1.000  O
  C73      1.0000 0.64533  0.72597  0.67957  Biso   1.000  C
  C74      1.0000 0.69553  0.78207  0.64107  Biso   1.000  C
  H49      1.0000 0.72933  0.78147  0.60857  Biso   1.000  H
  C75      1.0000 0.69523  0.83897  0.65097  Biso   1.000  C
  H50      1.0000 0.72873  0.87647  0.62517  Biso   1.000  H
  C76      1.0000 0.64483  0.83987  0.69957  Biso   1.000  C
  C77      1.0000 0.59463  0.78377  0.73807  Biso   1.000  C
  H51      1.0000 0.56093  0.78437  0.77057  Biso   1.000  H
  C78      1.0000 0.59493  0.72687  0.72817  Biso   1.000  C
  H52      1.0000 0.56143  0.68937  0.75397  Biso   1.000  H
  C79      1.0000 0.64343  0.89967  0.71277  Biso   1.000  C
  C80      1.0000 0.74683  0.69457  0.74397  Biso   1.000  C
  H53      1.0000 0.73733  0.71377  0.79677  Biso   1.000  H
  C81      1.0000 0.80253  0.69417  0.74367  Biso   1.000  C
  H54      1.0000 0.83113  0.71307  0.79687  Biso   1.000  H
  O28      1.0000 0.03760  0.76530  0.89190  Biso   1.000  O
  O29      1.0000 0.06980  0.71660  0.00120  Biso   1.000  O
  O30      1.0000 0.56900  0.99400  0.91620  Biso   1.000  O
  C82      1.0000 0.25270  0.94070  0.98710  Biso   1.000  C
  C83      1.0000 0.24680  0.88460  0.02560  Biso   1.000  C
  H55      1.0000 0.28120  0.88520  0.05810  Biso   1.000  H
  C84      1.0000 0.18960  0.82770  0.01570  Biso   1.000  C
  H56      1.0000 0.18560  0.79020  0.04150  Biso   1.000  H
  C85      1.0000 0.13830  0.82680  0.96710  Biso   1.000  C
  C86      1.0000 0.14420  0.88290  0.92860  Biso   1.000  C
  H57      1.0000 0.10990  0.88230  0.89610  Biso   1.000  H
  C87      1.0000 0.20140  0.93980  0.93850  Biso   1.000  C
  H58      1.0000 0.20540  0.97730  0.91270  Biso   1.000  H
  C88      1.0000 0.07710  0.76700  0.95390  Biso   1.000  C
  C89      1.0000 0.38560  0.97210  0.92270  Biso   1.000  C
  H59      1.0000 0.35690  0.95290  0.86990  Biso   1.000  H
  C90      1.0000 0.44170  0.97250  0.92300  Biso   1.000  C
  H60      1.0000 0.45140  0.95360  0.86980  Biso   1.000  H
  O31      1.0000 0.70427  0.09863  0.22523  Biso   1.000  O
  O32      1.0000 0.73647  0.04993  0.33453  Biso   1.000  O
  O33      1.0000 0.23567  0.32733  0.24953  Biso   1.000  O
  C91      1.0000 0.91937  0.27403  0.32043  Biso   1.000  C
  C92      1.0000 0.91347  0.21793  0.35893  Biso   1.000  C
  H61      1.0000 0.94787  0.21853  0.39143  Biso   1.000  H
  C93      1.0000 0.85627  0.16103  0.34903  Biso   1.000  C
  H62      1.0000 0.85227  0.12353  0.37483  Biso   1.000  H
  C94      1.0000 0.80497  0.16013  0.30043  Biso   1.000  C
  C95      1.0000 0.81087  0.21623  0.26193  Biso   1.000  C
  H63      1.0000 0.77657  0.21563  0.22943  Biso   1.000  H
  C96      1.0000 0.86807  0.27313  0.27183  Biso   1.000  C
  H64      1.0000 0.87207  0.31063  0.24603  Biso   1.000  H
  C97      1.0000 0.74377  0.10033  0.28723  Biso   1.000  C
  C98      1.0000 0.05227  0.30543  0.25603  Biso   1.000  C
  H65      1.0000 0.02357  0.28623  0.20323  Biso   1.000  H
  C99      1.0000 0.10837  0.30583  0.25633  Biso   1.000  C
  H66      1.0000 0.11807  0.28693  0.20313  Biso   1.000  H
  O34      1.0000 0.37093  0.43197  0.55857  Biso   1.000  O
  O35      1.0000 0.40313  0.38327  0.66787  Biso   1.000  O
  O36      1.0000 0.90233  0.66067  0.58287  Biso   1.000  O
  C100     1.0000 0.58603  0.60737  0.65377  Biso   1.000  C
  C101     1.0000 0.58013  0.55127  0.69227  Biso   1.000  C
  H67      1.0000 0.61453  0.55187  0.72477  Biso   1.000  H
  C102     1.0000 0.52293  0.49437  0.68237  Biso   1.000  C
  H68      1.0000 0.51893  0.45687  0.70817  Biso   1.000  H
  C103     1.0000 0.47163  0.49347  0.63377  Biso   1.000  C
  C104     1.0000 0.47753  0.54957  0.59527  Biso   1.000  C
  H69      1.0000 0.44323  0.54897  0.56277  Biso   1.000  H
  C105     1.0000 0.53473  0.60647  0.60517  Biso   1.000  C
  H70      1.0000 0.53873  0.64397  0.57937  Biso   1.000  H
  C106     1.0000 0.41043  0.43367  0.62057  Biso   1.000  C
  C107     1.0000 0.71893  0.63877  0.58937  Biso   1.000  C
  H71      1.0000 0.69023  0.61957  0.53657  Biso   1.000  H
  C108     1.0000 0.77503  0.63917  0.58967  Biso   1.000  C
  H72      1.0000 0.78473  0.62027  0.53647  Biso   1.000  H
  O37      1.0000 0.72770  0.96240  0.89190  Biso   1.000  O
  O38      1.0000 0.64680  0.93020  0.00120  Biso   1.000  O
  O39      1.0000 0.42500  0.43100  0.91620  Biso   1.000  O
  C109     1.0000 0.68800  0.74730  0.98710  Biso   1.000  C
  C110     1.0000 0.63780  0.75320  0.02560  Biso   1.000  C
  H73      1.0000 0.60400  0.71880  0.05810  Biso   1.000  H
  C111     1.0000 0.63810  0.81040  0.01570  Biso   1.000  C
  H74      1.0000 0.60460  0.81440  0.04150  Biso   1.000  H
  C112     1.0000 0.68850  0.86170  0.96710  Biso   1.000  C
  C113     1.0000 0.73870  0.85580  0.92860  Biso   1.000  C
  H75      1.0000 0.77240  0.89010  0.89610  Biso   1.000  H
  C114     1.0000 0.73840  0.79860  0.93850  Biso   1.000  C
  H76      1.0000 0.77190  0.79460  0.91270  Biso   1.000  H
  C115     1.0000 0.68990  0.92290  0.95390  Biso   1.000  C
  C116     1.0000 0.58650  0.61440  0.92270  Biso   1.000  C
  H77      1.0000 0.59600  0.64310  0.86990  Biso   1.000  H
  C117     1.0000 0.53080  0.55830  0.92300  Biso   1.000  C
  H78      1.0000 0.50220  0.54860  0.86980  Biso   1.000  H
  O40      1.0000 0.39437  0.29573  0.22523  Biso   1.000  O
  O41      1.0000 0.31347  0.26353  0.33453  Biso   1.000  O
  O42      1.0000 0.09167  0.76433  0.24953  Biso   1.000  O
  C118     1.0000 0.35467  0.08063  0.32043  Biso   1.000  C
  C119     1.0000 0.30447  0.08653  0.35893  Biso   1.000  C
  H79      1.0000 0.27067  0.05213  0.39143  Biso   1.000  H
  C120     1.0000 0.30477  0.14373  0.34903  Biso   1.000  C
  H80      1.0000 0.27127  0.14773  0.37483  Biso   1.000  H
  C121     1.0000 0.35517  0.19503  0.30043  Biso   1.000  C
  C122     1.0000 0.40537  0.18913  0.26193  Biso   1.000  C
  H81      1.0000 0.43907  0.22343  0.22943  Biso   1.000  H
  C123     1.0000 0.40507  0.13193  0.27183  Biso   1.000  C
  H82      1.0000 0.43857  0.12793  0.24603  Biso   1.000  H
  C124     1.0000 0.35657  0.25623  0.28723  Biso   1.000  C
  C125     1.0000 0.25317  0.94773  0.25603  Biso   1.000  C
  H83      1.0000 0.26267  0.97643  0.20323  Biso   1.000  H
  C126     1.0000 0.19747  0.89163  0.25633  Biso   1.000  C
  H84      1.0000 0.16887  0.88193  0.20313  Biso   1.000  H
  O43      1.0000 0.06103  0.62907  0.55857  Biso   1.000  O
  O44      1.0000 0.98013  0.59687  0.66787  Biso   1.000  O
  O45      1.0000 0.75833  0.09767  0.58287  Biso   1.000  O
  C127     1.0000 0.02133  0.41397  0.65377  Biso   1.000  C
  C128     1.0000 0.97113  0.41987  0.69227  Biso   1.000  C
  H85      1.0000 0.93733  0.38547  0.72477  Biso   1.000  H
  C129     1.0000 0.97143  0.47707  0.68237  Biso   1.000  C
  H86      1.0000 0.93793  0.48107  0.70817  Biso   1.000  H
  C130     1.0000 0.02183  0.52837  0.63377  Biso   1.000  C
  C131     1.0000 0.07203  0.52247  0.59527  Biso   1.000  C
  H87      1.0000 0.10573  0.55677  0.56277  Biso   1.000  H
  C132     1.0000 0.07173  0.46527  0.60517  Biso   1.000  C
  H88      1.0000 0.10523  0.46127  0.57937  Biso   1.000  H
  C133     1.0000 0.02323  0.58957  0.62057  Biso   1.000  C
  C134     1.0000 0.91983  0.28107  0.58937  Biso   1.000  C
  H89      1.0000 0.92933  0.30977  0.53657  Biso   1.000  H
  C135     1.0000 0.86413  0.22497  0.58967  Biso   1.000  C
  H90      1.0000 0.83553  0.21527  0.53647  Biso   1.000  H
  O46      1.0000 0.23470  0.27230  0.89190  Biso   1.000  O
  O47      1.0000 0.28340  0.35320  0.00120  Biso   1.000  O
  O48      1.0000 0.00600  0.57500  0.91620  Biso   1.000  O
  C136     1.0000 0.05930  0.31200  0.98710  Biso   1.000  C
  C137     1.0000 0.11540  0.36220  0.02560  Biso   1.000  C
  H91      1.0000 0.11480  0.39600  0.05810  Biso   1.000  H
  C138     1.0000 0.17230  0.36190  0.01570  Biso   1.000  C
  H92      1.0000 0.20980  0.39540  0.04150  Biso   1.000  H
  C139     1.0000 0.17320  0.31150  0.96710  Biso   1.000  C
  C140     1.0000 0.11710  0.26130  0.92860  Biso   1.000  C
  H93      1.0000 0.11770  0.22760  0.89610  Biso   1.000  H
  C141     1.0000 0.06020  0.26160  0.93850  Biso   1.000  C
  H94      1.0000 0.02270  0.22810  0.91270  Biso   1.000  H
  C142     1.0000 0.23300  0.31010  0.95390  Biso   1.000  C
  C143     1.0000 0.02790  0.41350  0.92270  Biso   1.000  C
  H95      1.0000 0.04710  0.40400  0.86990  Biso   1.000  H
  C144     1.0000 0.02750  0.46920  0.92300  Biso   1.000  C
  H96      1.0000 0.04640  0.49780  0.86980  Biso   1.000  H
  O49      1.0000 0.90137  0.60563  0.22523  Biso   1.000  O
  O50      1.0000 0.95007  0.68653  0.33453  Biso   1.000  O
  O51      1.0000 0.67267  0.90833  0.24953  Biso   1.000  O
  C145     1.0000 0.72597  0.64533  0.32043  Biso   1.000  C
  C146     1.0000 0.78207  0.69553  0.35893  Biso   1.000  C
  H97      1.0000 0.78147  0.72933  0.39143  Biso   1.000  H
  C147     1.0000 0.83897  0.69523  0.34903  Biso   1.000  C
  H98      1.0000 0.87647  0.72873  0.37483  Biso   1.000  H
  C148     1.0000 0.83987  0.64483  0.30043  Biso   1.000  C
  C149     1.0000 0.78377  0.59463  0.26193  Biso   1.000  C
  H99      1.0000 0.78437  0.56093  0.22943  Biso   1.000  H
  C150     1.0000 0.72687  0.59493  0.27183  Biso   1.000  C
  H100     1.0000 0.68937  0.56143  0.24603  Biso   1.000  H
  C151     1.0000 0.89967  0.64343  0.28723  Biso   1.000  C
  C152     1.0000 0.69457  0.74683  0.25603  Biso   1.000  C
  H101     1.0000 0.71377  0.73733  0.20323  Biso   1.000  H
  C153     1.0000 0.69417  0.80253  0.25633  Biso   1.000  C
  H102     1.0000 0.71307  0.83113  0.20313  Biso   1.000  H
  O52      1.0000 0.56803  0.93897  0.55857  Biso   1.000  O
  O53      1.0000 0.61673  0.01987  0.66787  Biso   1.000  O
  O54      1.0000 0.33933  0.24167  0.58287  Biso   1.000  O
  C154     1.0000 0.39263  0.97867  0.65377  Biso   1.000  C
  C155     1.0000 0.44873  0.02887  0.69227  Biso   1.000  C
  H103     1.0000 0.44813  0.06267  0.72477  Biso   1.000  H
  C156     1.0000 0.50563  0.02857  0.68237  Biso   1.000  C
  H104     1.0000 0.54313  0.06207  0.70817  Biso   1.000  H
  C157     1.0000 0.50653  0.97817  0.63377  Biso   1.000  C
  C158     1.0000 0.45043  0.92797  0.59527  Biso   1.000  C
  H105     1.0000 0.45103  0.89427  0.56277  Biso   1.000  H
  C159     1.0000 0.39353  0.92827  0.60517  Biso   1.000  C
  H106     1.0000 0.35603  0.89477  0.57937  Biso   1.000  H
  C160     1.0000 0.56633  0.97677  0.62057  Biso   1.000  C
  C161     1.0000 0.36123  0.08017  0.58937  Biso   1.000  C
  H107     1.0000 0.38043  0.07067  0.53657  Biso   1.000  H
  C162     1.0000 0.36083  0.13587  0.58967  Biso   1.000  C
  H108     1.0000 0.37973  0.16447  0.53647  Biso   1.000  H
  La1      1.0000 0.65071  0.98404  0.16667  Biso   1.000  La
  La2      1.0000 0.31738  0.31738  0.50000  Biso   1.000  La
  La3      1.0000 0.01596  0.66667  0.16667  Biso   1.000  La
  La4      1.0000 0.68262  0.00000  0.50000  Biso   1.000  La
  La5      1.0000 0.33333  0.34929  0.16667  Biso   1.000  La
  La6      1.0000 0.00000  0.68262  0.50000  Biso   1.000  La
  La7      1.0000 0.98404  0.65071  0.83333  Biso   1.000  La
  La8      1.0000 0.66667  0.01596  0.83333  Biso   1.000  La
  La9      1.0000 0.34929  0.33333  0.83333  Biso   1.000  La
  N1       1.0000 0.00000  0.31080  0.00000  Biso   1.000  N
  C163     1.0000 0.00000  0.37150  0.00000  Biso   1.000  C
  C164     1.0000 0.00000  0.48410  0.00000  Biso   1.000  C
  C165     1.0000 0.00000  0.54840  0.00000  Biso   1.000  C
  N2       1.0000 0.66667  0.64413  0.33333  Biso   1.000  N
  C166     1.0000 0.66667  0.70483  0.33333  Biso   1.000  C
  C167     1.0000 0.66667  0.81743  0.33333  Biso   1.000  C
  C168     1.0000 0.66667  0.88173  0.33333  Biso   1.000  C
  N3       1.0000 0.33333  0.97747  0.66667  Biso   1.000  N
  C169     1.0000 0.33333  0.03817  0.66667  Biso   1.000  C
  C170     1.0000 0.33333  0.15077  0.66667  Biso   1.000  C
  C171     1.0000 0.33333  0.21507  0.66667  Biso   1.000  C
  N4       1.0000 0.68920  0.68920  0.00000  Biso   1.000  N
  C172     1.0000 0.62850  0.62850  0.00000  Biso   1.000  C
  C173     1.0000 0.51590  0.51590  0.00000  Biso   1.000  C
  C174     1.0000 0.45160  0.45160  0.00000  Biso   1.000  C
  N5       1.0000 0.35587  0.02253  0.33333  Biso   1.000  N
  C175     1.0000 0.29517  0.96183  0.33333  Biso   1.000  C
  C176     1.0000 0.18257  0.84923  0.33333  Biso   1.000  C
  C177     1.0000 0.11827  0.78493  0.33333  Biso   1.000  C
  N6       1.0000 0.02253  0.35587  0.66667  Biso   1.000  N
  C178     1.0000 0.96183  0.29517  0.66667  Biso   1.000  C
  C179     1.0000 0.84923  0.18257  0.66667  Biso   1.000  C
  C180     1.0000 0.78493  0.11827  0.66667  Biso   1.000  C
  N7       1.0000 0.31080  0.00000  0.00000  Biso   1.000  N
  C181     1.0000 0.37150  0.00000  0.00000  Biso   1.000  C
  C182     1.0000 0.48410  0.00000  0.00000  Biso   1.000  C
  C183     1.0000 0.54840  0.00000  0.00000  Biso   1.000  C
  N8       1.0000 0.97747  0.33333  0.33333  Biso   1.000  N
  C184     1.0000 0.03817  0.33333  0.33333  Biso   1.000  C
  C185     1.0000 0.15077  0.33333  0.33333  Biso   1.000  C
  C186     1.0000 0.21507  0.33333  0.33333  Biso   1.000  C
  N9       1.0000 0.64413  0.66667  0.66667  Biso   1.000  N
  C187     1.0000 0.70483  0.66667  0.66667  Biso   1.000  C
  C188     1.0000 0.81743  0.66667  0.66667  Biso   1.000  C
  C189     1.0000 0.88173  0.66667  0.66667  Biso   1.000  C
