data_image0
_cell_length_a       24.313
_cell_length_b       24.313
_cell_length_c       13.184
_cell_angle_alpha    90
_cell_angle_beta     90
_cell_angle_gamma    120

_symmetry_space_group_name_H-M    "P 1"
_symmetry_int_tables_number       1

loop_
  _symmetry_equiv_pos_as_xyz
  'x, y, z'

loop_
  _atom_site_label
  _atom_site_occupancy
  _atom_site_fract_x
  _atom_site_fract_y
  _atom_site_fract_z
  _atom_site_thermal_displace_type
  _atom_site_B_iso_or_equiv
  _atom_site_type_symbol
  O1       1.0000 0.76740  0.03830  0.10530  Biso   1.000  O
  O2       1.0000 0.71920  0.07240  0.99740  Biso   1.000  O
  O3       1.0000 0.99920  0.57150  0.08500  Biso   1.000  O
  C1       1.0000 0.94240  0.25570  0.01320  Biso   1.000  C
  C2       1.0000 0.88680  0.25050  0.97430  Biso   1.000  C
  H1       1.0000 0.88780  0.28520  0.94270  Biso   1.000  H
  C3       1.0000 0.82980  0.19350  0.98260  Biso   1.000  C
  H2       1.0000 0.79270  0.19010  0.95660  Biso   1.000  H
  C4       1.0000 0.82840  0.14170  0.02980  Biso   1.000  C
  C5       1.0000 0.88400  0.14690  0.06870  Biso   1.000  C
  H3       1.0000 0.88300  0.11220  0.10030  Biso   1.000  H
  C6       1.0000 0.94090  0.20390  0.06040  Biso   1.000  C
  H4       1.0000 0.97810  0.20740  0.08630  Biso   1.000  H
  C7       1.0000 0.77050  0.07910  0.04590  Biso   1.000  C
  C8       1.0000 0.97290  0.38510  0.07550  Biso   1.000  C
  H5       1.0000 0.95360  0.35670  0.12870  Biso   1.000  H
  C9       1.0000 0.97280  0.44240  0.07680  Biso   1.000  C
  H6       1.0000 0.95370  0.45070  0.13110  Biso   1.000  H
  O4       1.0000 0.43407  0.37163  0.43863  Biso   1.000  O
  O5       1.0000 0.38587  0.40573  0.33073  Biso   1.000  O
  O6       1.0000 0.66587  0.90483  0.41833  Biso   1.000  O
  C10      1.0000 0.60907  0.58903  0.34653  Biso   1.000  C
  C11      1.0000 0.55347  0.58383  0.30763  Biso   1.000  C
  H7       1.0000 0.55447  0.61853  0.27603  Biso   1.000  H
  C12      1.0000 0.49647  0.52683  0.31593  Biso   1.000  C
  H8       1.0000 0.45937  0.52343  0.28993  Biso   1.000  H
  C13      1.0000 0.49507  0.47503  0.36313  Biso   1.000  C
  C14      1.0000 0.55067  0.48023  0.40203  Biso   1.000  C
  H9       1.0000 0.54967  0.44553  0.43363  Biso   1.000  H
  C15      1.0000 0.60757  0.53723  0.39373  Biso   1.000  C
  H10      1.0000 0.64477  0.54073  0.41963  Biso   1.000  H
  C16      1.0000 0.43717  0.41243  0.37923  Biso   1.000  C
  C17      1.0000 0.63957  0.71843  0.40883  Biso   1.000  C
  H11      1.0000 0.62027  0.69003  0.46203  Biso   1.000  H
  C18      1.0000 0.63947  0.77573  0.41013  Biso   1.000  C
  H12      1.0000 0.62037  0.78403  0.46443  Biso   1.000  H
  O7       1.0000 0.10073  0.70497  0.77197  Biso   1.000  O
  O8       1.0000 0.05253  0.73907  0.66407  Biso   1.000  O
  O9       1.0000 0.33253  0.23817  0.75167  Biso   1.000  O
  C19      1.0000 0.27573  0.92237  0.67987  Biso   1.000  C
  C20      1.0000 0.22013  0.91717  0.64097  Biso   1.000  C
  H13      1.0000 0.22113  0.95187  0.60937  Biso   1.000  H
  C21      1.0000 0.16313  0.86017  0.64927  Biso   1.000  C
  H14      1.0000 0.12603  0.85677  0.62327  Biso   1.000  H
  C22      1.0000 0.16173  0.80837  0.69647  Biso   1.000  C
  C23      1.0000 0.21733  0.81357  0.73537  Biso   1.000  C
  H15      1.0000 0.21633  0.77887  0.76697  Biso   1.000  H
  C24      1.0000 0.27423  0.87057  0.72707  Biso   1.000  C
  H16      1.0000 0.31143  0.87407  0.75297  Biso   1.000  H
  C25      1.0000 0.10383  0.74577  0.71257  Biso   1.000  C
  C26      1.0000 0.30623  0.05177  0.74217  Biso   1.000  C
  H17      1.0000 0.28693  0.02337  0.79537  Biso   1.000  H
  C27      1.0000 0.30613  0.10907  0.74347  Biso   1.000  C
  H18      1.0000 0.28703  0.11737  0.79777  Biso   1.000  H
  O10      1.0000 0.96170  0.72910  0.10530  Biso   1.000  O
  O11      1.0000 0.92760  0.64680  0.99740  Biso   1.000  O
  O12      1.0000 0.42850  0.42770  0.08500  Biso   1.000  O
  C28      1.0000 0.74430  0.68670  0.01320  Biso   1.000  C
  C29      1.0000 0.74950  0.63630  0.97430  Biso   1.000  C
  H19      1.0000 0.71480  0.60260  0.94270  Biso   1.000  H
  C30      1.0000 0.80650  0.63630  0.98260  Biso   1.000  C
  H20      1.0000 0.80990  0.60260  0.95660  Biso   1.000  H
  C31      1.0000 0.85830  0.68670  0.02980  Biso   1.000  C
  C32      1.0000 0.85310  0.73710  0.06870  Biso   1.000  C
  H21      1.0000 0.88780  0.77080  0.10030  Biso   1.000  H
  C33      1.0000 0.79610  0.73700  0.06040  Biso   1.000  C
  H22      1.0000 0.79260  0.77070  0.08630  Biso   1.000  H
  C34      1.0000 0.92090  0.69140  0.04590  Biso   1.000  C
  C35      1.0000 0.61490  0.58780  0.07550  Biso   1.000  C
  H23      1.0000 0.64330  0.59690  0.12870  Biso   1.000  H
  C36      1.0000 0.55760  0.53040  0.07680  Biso   1.000  C
  H24      1.0000 0.54930  0.50300  0.13110  Biso   1.000  H
  O13      1.0000 0.62837  0.06243  0.43863  Biso   1.000  O
  O14      1.0000 0.59427  0.98013  0.33073  Biso   1.000  O
  O15      1.0000 0.09517  0.76103  0.41833  Biso   1.000  O
  C37      1.0000 0.41097  0.02003  0.34653  Biso   1.000  C
  C38      1.0000 0.41617  0.96963  0.30763  Biso   1.000  C
  H25      1.0000 0.38147  0.93593  0.27603  Biso   1.000  H
  C39      1.0000 0.47317  0.96963  0.31593  Biso   1.000  C
  H26      1.0000 0.47657  0.93593  0.28993  Biso   1.000  H
  C40      1.0000 0.52497  0.02003  0.36313  Biso   1.000  C
  C41      1.0000 0.51977  0.07043  0.40203  Biso   1.000  C
  H27      1.0000 0.55447  0.10413  0.43363  Biso   1.000  H
  C42      1.0000 0.46277  0.07033  0.39373  Biso   1.000  C
  H28      1.0000 0.45927  0.10403  0.41963  Biso   1.000  H
  C43      1.0000 0.58757  0.02473  0.37923  Biso   1.000  C
  C44      1.0000 0.28157  0.92113  0.40883  Biso   1.000  C
  H29      1.0000 0.30997  0.93023  0.46203  Biso   1.000  H
  C45      1.0000 0.22427  0.86373  0.41013  Biso   1.000  C
  H30      1.0000 0.21597  0.83633  0.46443  Biso   1.000  H
  O16      1.0000 0.29503  0.39577  0.77197  Biso   1.000  O
  O17      1.0000 0.26093  0.31347  0.66407  Biso   1.000  O
  O18      1.0000 0.76183  0.09437  0.75167  Biso   1.000  O
  C46      1.0000 0.07763  0.35337  0.67987  Biso   1.000  C
  C47      1.0000 0.08283  0.30297  0.64097  Biso   1.000  C
  H31      1.0000 0.04813  0.26927  0.60937  Biso   1.000  H
  C48      1.0000 0.13983  0.30297  0.64927  Biso   1.000  C
  H32      1.0000 0.14323  0.26927  0.62327  Biso   1.000  H
  C49      1.0000 0.19163  0.35337  0.69647  Biso   1.000  C
  C50      1.0000 0.18643  0.40377  0.73537  Biso   1.000  C
  H33      1.0000 0.22113  0.43747  0.76697  Biso   1.000  H
  C51      1.0000 0.12943  0.40367  0.72707  Biso   1.000  C
  H34      1.0000 0.12593  0.43737  0.75297  Biso   1.000  H
  C52      1.0000 0.25423  0.35807  0.71257  Biso   1.000  C
  C53      1.0000 0.94823  0.25447  0.74217  Biso   1.000  C
  H35      1.0000 0.97663  0.26357  0.79537  Biso   1.000  H
  C54      1.0000 0.89093  0.19707  0.74347  Biso   1.000  C
  H36      1.0000 0.88263  0.16967  0.79777  Biso   1.000  H
  O19      1.0000 0.27090  0.23260  0.10530  Biso   1.000  O
  O20      1.0000 0.35320  0.28080  0.99740  Biso   1.000  O
  O21      1.0000 0.57230  0.00080  0.08500  Biso   1.000  O
  C55      1.0000 0.31330  0.05760  0.01320  Biso   1.000  C
  C56      1.0000 0.36370  0.11320  0.97430  Biso   1.000  C
  H37      1.0000 0.39740  0.11220  0.94270  Biso   1.000  H
  C57      1.0000 0.36370  0.17020  0.98260  Biso   1.000  C
  H38      1.0000 0.39740  0.20730  0.95660  Biso   1.000  H
  C58      1.0000 0.31330  0.17160  0.02980  Biso   1.000  C
  C59      1.0000 0.26290  0.11600  0.06870  Biso   1.000  C
  H39      1.0000 0.22920  0.11700  0.10030  Biso   1.000  H
  C60      1.0000 0.26300  0.05910  0.06040  Biso   1.000  C
  H40      1.0000 0.22930  0.02190  0.08630  Biso   1.000  H
  C61      1.0000 0.30860  0.22950  0.04590  Biso   1.000  C
  C62      1.0000 0.41220  0.02710  0.07550  Biso   1.000  C
  H41      1.0000 0.40310  0.04640  0.12870  Biso   1.000  H
  C63      1.0000 0.46960  0.02720  0.07680  Biso   1.000  C
  H42      1.0000 0.49700  0.04630  0.13110  Biso   1.000  H
  O22      1.0000 0.93757  0.56593  0.43863  Biso   1.000  O
  O23      1.0000 0.01987  0.61413  0.33073  Biso   1.000  O
  O24      1.0000 0.23897  0.33413  0.41833  Biso   1.000  O
  C64      1.0000 0.97997  0.39093  0.34653  Biso   1.000  C
  C65      1.0000 0.03037  0.44653  0.30763  Biso   1.000  C
  H43      1.0000 0.06407  0.44553  0.27603  Biso   1.000  H
  C66      1.0000 0.03037  0.50353  0.31593  Biso   1.000  C
  H44      1.0000 0.06407  0.54063  0.28993  Biso   1.000  H
  C67      1.0000 0.97997  0.50493  0.36313  Biso   1.000  C
  C68      1.0000 0.92957  0.44933  0.40203  Biso   1.000  C
  H45      1.0000 0.89587  0.45033  0.43363  Biso   1.000  H
  C69      1.0000 0.92967  0.39243  0.39373  Biso   1.000  C
  H46      1.0000 0.89597  0.35523  0.41963  Biso   1.000  H
  C70      1.0000 0.97527  0.56283  0.37923  Biso   1.000  C
  C71      1.0000 0.07887  0.36043  0.40883  Biso   1.000  C
  H47      1.0000 0.06977  0.37973  0.46203  Biso   1.000  H
  C72      1.0000 0.13627  0.36053  0.41013  Biso   1.000  C
  H48      1.0000 0.16367  0.37963  0.46443  Biso   1.000  H
  O25      1.0000 0.60423  0.89927  0.77197  Biso   1.000  O
  O26      1.0000 0.68653  0.94747  0.66407  Biso   1.000  O
  O27      1.0000 0.90563  0.66747  0.75167  Biso   1.000  O
  C73      1.0000 0.64663  0.72427  0.67987  Biso   1.000  C
  C74      1.0000 0.69703  0.77987  0.64097  Biso   1.000  C
  H49      1.0000 0.73073  0.77887  0.60937  Biso   1.000  H
  C75      1.0000 0.69703  0.83687  0.64927  Biso   1.000  C
  H50      1.0000 0.73073  0.87397  0.62327  Biso   1.000  H
  C76      1.0000 0.64663  0.83827  0.69647  Biso   1.000  C
  C77      1.0000 0.59623  0.78267  0.73537  Biso   1.000  C
  H51      1.0000 0.56253  0.78367  0.76697  Biso   1.000  H
  C78      1.0000 0.59633  0.72577  0.72707  Biso   1.000  C
  H52      1.0000 0.56263  0.68857  0.75297  Biso   1.000  H
  C79      1.0000 0.64193  0.89617  0.71257  Biso   1.000  C
  C80      1.0000 0.74553  0.69377  0.74217  Biso   1.000  C
  H53      1.0000 0.73643  0.71307  0.79537  Biso   1.000  H
  C81      1.0000 0.80293  0.69387  0.74347  Biso   1.000  C
  H54      1.0000 0.83033  0.71297  0.79777  Biso   1.000  H
  O28      1.0000 0.03830  0.76740  0.89470  Biso   1.000  O
  O29      1.0000 0.07240  0.71920  0.00260  Biso   1.000  O
  O30      1.0000 0.57150  0.99920  0.91500  Biso   1.000  O
  C82      1.0000 0.25570  0.94240  0.98680  Biso   1.000  C
  C83      1.0000 0.25050  0.88680  0.02570  Biso   1.000  C
  H55      1.0000 0.28520  0.88780  0.05730  Biso   1.000  H
  C84      1.0000 0.19350  0.82980  0.01740  Biso   1.000  C
  H56      1.0000 0.19010  0.79270  0.04340  Biso   1.000  H
  C85      1.0000 0.14170  0.82840  0.97020  Biso   1.000  C
  C86      1.0000 0.14690  0.88400  0.93130  Biso   1.000  C
  H57      1.0000 0.11220  0.88300  0.89970  Biso   1.000  H
  C87      1.0000 0.20390  0.94090  0.93960  Biso   1.000  C
  H58      1.0000 0.20740  0.97810  0.91370  Biso   1.000  H
  C88      1.0000 0.07910  0.77050  0.95410  Biso   1.000  C
  C89      1.0000 0.38510  0.97290  0.92450  Biso   1.000  C
  H59      1.0000 0.35670  0.95360  0.87130  Biso   1.000  H
  C90      1.0000 0.44240  0.97280  0.92320  Biso   1.000  C
  H60      1.0000 0.45070  0.95370  0.86890  Biso   1.000  H
  O31      1.0000 0.70497  0.10073  0.22803  Biso   1.000  O
  O32      1.0000 0.73907  0.05253  0.33593  Biso   1.000  O
  O33      1.0000 0.23817  0.33253  0.24833  Biso   1.000  O
  C91      1.0000 0.92237  0.27573  0.32013  Biso   1.000  C
  C92      1.0000 0.91717  0.22013  0.35903  Biso   1.000  C
  H61      1.0000 0.95187  0.22113  0.39063  Biso   1.000  H
  C93      1.0000 0.86017  0.16313  0.35073  Biso   1.000  C
  H62      1.0000 0.85677  0.12603  0.37673  Biso   1.000  H
  C94      1.0000 0.80837  0.16173  0.30353  Biso   1.000  C
  C95      1.0000 0.81357  0.21733  0.26463  Biso   1.000  C
  H63      1.0000 0.77887  0.21633  0.23303  Biso   1.000  H
  C96      1.0000 0.87057  0.27423  0.27293  Biso   1.000  C
  H64      1.0000 0.87407  0.31143  0.24703  Biso   1.000  H
  C97      1.0000 0.74577  0.10383  0.28743  Biso   1.000  C
  C98      1.0000 0.05177  0.30623  0.25783  Biso   1.000  C
  H65      1.0000 0.02337  0.28693  0.20463  Biso   1.000  H
  C99      1.0000 0.10907  0.30613  0.25653  Biso   1.000  C
  H66      1.0000 0.11737  0.28703  0.20223  Biso   1.000  H
  O34      1.0000 0.37163  0.43407  0.56137  Biso   1.000  O
  O35      1.0000 0.40573  0.38587  0.66927  Biso   1.000  O
  O36      1.0000 0.90483  0.66587  0.58167  Biso   1.000  O
  C100     1.0000 0.58903  0.60907  0.65347  Biso   1.000  C
  C101     1.0000 0.58383  0.55347  0.69237  Biso   1.000  C
  H67      1.0000 0.61853  0.55447  0.72397  Biso   1.000  H
  C102     1.0000 0.52683  0.49647  0.68407  Biso   1.000  C
  H68      1.0000 0.52343  0.45937  0.71007  Biso   1.000  H
  C103     1.0000 0.47503  0.49507  0.63687  Biso   1.000  C
  C104     1.0000 0.48023  0.55067  0.59797  Biso   1.000  C
  H69      1.0000 0.44553  0.54967  0.56637  Biso   1.000  H
  C105     1.0000 0.53723  0.60757  0.60627  Biso   1.000  C
  H70      1.0000 0.54073  0.64477  0.58037  Biso   1.000  H
  C106     1.0000 0.41243  0.43717  0.62077  Biso   1.000  C
  C107     1.0000 0.71843  0.63957  0.59117  Biso   1.000  C
  H71      1.0000 0.69003  0.62027  0.53797  Biso   1.000  H
  C108     1.0000 0.77573  0.63947  0.58987  Biso   1.000  C
  H72      1.0000 0.78403  0.62037  0.53557  Biso   1.000  H
  O37      1.0000 0.72910  0.96170  0.89470  Biso   1.000  O
  O38      1.0000 0.64680  0.92760  0.00260  Biso   1.000  O
  O39      1.0000 0.42770  0.42850  0.91500  Biso   1.000  O
  C109     1.0000 0.68670  0.74430  0.98680  Biso   1.000  C
  C110     1.0000 0.63630  0.74950  0.02570  Biso   1.000  C
  H73      1.0000 0.60260  0.71480  0.05730  Biso   1.000  H
  C111     1.0000 0.63630  0.80650  0.01740  Biso   1.000  C
  H74      1.0000 0.60260  0.80990  0.04340  Biso   1.000  H
  C112     1.0000 0.68670  0.85830  0.97020  Biso   1.000  C
  C113     1.0000 0.73710  0.85310  0.93130  Biso   1.000  C
  H75      1.0000 0.77080  0.88780  0.89970  Biso   1.000  H
  C114     1.0000 0.73700  0.79610  0.93960  Biso   1.000  C
  H76      1.0000 0.77070  0.79260  0.91370  Biso   1.000  H
  C115     1.0000 0.69140  0.92090  0.95410  Biso   1.000  C
  C116     1.0000 0.58780  0.61490  0.92450  Biso   1.000  C
  H77      1.0000 0.59690  0.64330  0.87130  Biso   1.000  H
  C117     1.0000 0.53040  0.55760  0.92320  Biso   1.000  C
  H78      1.0000 0.50300  0.54930  0.86890  Biso   1.000  H
  O40      1.0000 0.39577  0.29503  0.22803  Biso   1.000  O
  O41      1.0000 0.31347  0.26093  0.33593  Biso   1.000  O
  O42      1.0000 0.09437  0.76183  0.24833  Biso   1.000  O
  C118     1.0000 0.35337  0.07763  0.32013  Biso   1.000  C
  C119     1.0000 0.30297  0.08283  0.35903  Biso   1.000  C
  H79      1.0000 0.26927  0.04813  0.39063  Biso   1.000  H
  C120     1.0000 0.30297  0.13983  0.35073  Biso   1.000  C
  H80      1.0000 0.26927  0.14323  0.37673  Biso   1.000  H
  C121     1.0000 0.35337  0.19163  0.30353  Biso   1.000  C
  C122     1.0000 0.40377  0.18643  0.26463  Biso   1.000  C
  H81      1.0000 0.43747  0.22113  0.23303  Biso   1.000  H
  C123     1.0000 0.40367  0.12943  0.27293  Biso   1.000  C
  H82      1.0000 0.43737  0.12593  0.24703  Biso   1.000  H
  C124     1.0000 0.35807  0.25423  0.28743  Biso   1.000  C
  C125     1.0000 0.25447  0.94823  0.25783  Biso   1.000  C
  H83      1.0000 0.26357  0.97663  0.20463  Biso   1.000  H
  C126     1.0000 0.19707  0.89093  0.25653  Biso   1.000  C
  H84      1.0000 0.16967  0.88263  0.20223  Biso   1.000  H
  O43      1.0000 0.06243  0.62837  0.56137  Biso   1.000  O
  O44      1.0000 0.98013  0.59427  0.66927  Biso   1.000  O
  O45      1.0000 0.76103  0.09517  0.58167  Biso   1.000  O
  C127     1.0000 0.02003  0.41097  0.65347  Biso   1.000  C
  C128     1.0000 0.96963  0.41617  0.69237  Biso   1.000  C
  H85      1.0000 0.93593  0.38147  0.72397  Biso   1.000  H
  C129     1.0000 0.96963  0.47317  0.68407  Biso   1.000  C
  H86      1.0000 0.93593  0.47657  0.71007  Biso   1.000  H
  C130     1.0000 0.02003  0.52497  0.63687  Biso   1.000  C
  C131     1.0000 0.07043  0.51977  0.59797  Biso   1.000  C
  H87      1.0000 0.10413  0.55447  0.56637  Biso   1.000  H
  C132     1.0000 0.07033  0.46277  0.60627  Biso   1.000  C
  H88      1.0000 0.10403  0.45927  0.58037  Biso   1.000  H
  C133     1.0000 0.02473  0.58757  0.62077  Biso   1.000  C
  C134     1.0000 0.92113  0.28157  0.59117  Biso   1.000  C
  H89      1.0000 0.93023  0.30997  0.53797  Biso   1.000  H
  C135     1.0000 0.86373  0.22427  0.58987  Biso   1.000  C
  H90      1.0000 0.83633  0.21597  0.53557  Biso   1.000  H
  O46      1.0000 0.23260  0.27090  0.89470  Biso   1.000  O
  O47      1.0000 0.28080  0.35320  0.00260  Biso   1.000  O
  O48      1.0000 0.00080  0.57230  0.91500  Biso   1.000  O
  C136     1.0000 0.05760  0.31330  0.98680  Biso   1.000  C
  C137     1.0000 0.11320  0.36370  0.02570  Biso   1.000  C
  H91      1.0000 0.11220  0.39740  0.05730  Biso   1.000  H
  C138     1.0000 0.17020  0.36370  0.01740  Biso   1.000  C
  H92      1.0000 0.20730  0.39740  0.04340  Biso   1.000  H
  C139     1.0000 0.17160  0.31330  0.97020  Biso   1.000  C
  C140     1.0000 0.11600  0.26290  0.93130  Biso   1.000  C
  H93      1.0000 0.11700  0.22920  0.89970  Biso   1.000  H
  C141     1.0000 0.05910  0.26300  0.93960  Biso   1.000  C
  H94      1.0000 0.02190  0.22930  0.91370  Biso   1.000  H
  C142     1.0000 0.22950  0.30860  0.95410  Biso   1.000  C
  C143     1.0000 0.02710  0.41220  0.92450  Biso   1.000  C
  H95      1.0000 0.04640  0.40310  0.87130  Biso   1.000  H
  C144     1.0000 0.02720  0.46960  0.92320  Biso   1.000  C
  H96      1.0000 0.04630  0.49700  0.86890  Biso   1.000  H
  O49      1.0000 0.89927  0.60423  0.22803  Biso   1.000  O
  O50      1.0000 0.94747  0.68653  0.33593  Biso   1.000  O
  O51      1.0000 0.66747  0.90563  0.24833  Biso   1.000  O
  C145     1.0000 0.72427  0.64663  0.32013  Biso   1.000  C
  C146     1.0000 0.77987  0.69703  0.35903  Biso   1.000  C
  H97      1.0000 0.77887  0.73073  0.39063  Biso   1.000  H
  C147     1.0000 0.83687  0.69703  0.35073  Biso   1.000  C
  H98      1.0000 0.87397  0.73073  0.37673  Biso   1.000  H
  C148     1.0000 0.83827  0.64663  0.30353  Biso   1.000  C
  C149     1.0000 0.78267  0.59623  0.26463  Biso   1.000  C
  H99      1.0000 0.78367  0.56253  0.23303  Biso   1.000  H
  C150     1.0000 0.72577  0.59633  0.27293  Biso   1.000  C
  H100     1.0000 0.68857  0.56263  0.24703  Biso   1.000  H
  C151     1.0000 0.89617  0.64193  0.28743  Biso   1.000  C
  C152     1.0000 0.69377  0.74553  0.25783  Biso   1.000  C
  H101     1.0000 0.71307  0.73643  0.20463  Biso   1.000  H
  C153     1.0000 0.69387  0.80293  0.25653  Biso   1.000  C
  H102     1.0000 0.71297  0.83033  0.20223  Biso   1.000  H
  O52      1.0000 0.56593  0.93757  0.56137  Biso   1.000  O
  O53      1.0000 0.61413  0.01987  0.66927  Biso   1.000  O
  O54      1.0000 0.33413  0.23897  0.58167  Biso   1.000  O
  C154     1.0000 0.39093  0.97997  0.65347  Biso   1.000  C
  C155     1.0000 0.44653  0.03037  0.69237  Biso   1.000  C
  H103     1.0000 0.44553  0.06407  0.72397  Biso   1.000  H
  C156     1.0000 0.50353  0.03037  0.68407  Biso   1.000  C
  H104     1.0000 0.54063  0.06407  0.71007  Biso   1.000  H
  C157     1.0000 0.50493  0.97997  0.63687  Biso   1.000  C
  C158     1.0000 0.44933  0.92957  0.59797  Biso   1.000  C
  H105     1.0000 0.45033  0.89587  0.56637  Biso   1.000  H
  C159     1.0000 0.39243  0.92967  0.60627  Biso   1.000  C
  H106     1.0000 0.35523  0.89597  0.58037  Biso   1.000  H
  C160     1.0000 0.56283  0.97527  0.62077  Biso   1.000  C
  C161     1.0000 0.36043  0.07887  0.59117  Biso   1.000  C
  H107     1.0000 0.37973  0.06977  0.53797  Biso   1.000  H
  C162     1.0000 0.36053  0.13627  0.58987  Biso   1.000  C
  H108     1.0000 0.37963  0.16367  0.53557  Biso   1.000  H
  La1      1.0000 0.65366  0.98699  0.16667  Biso   1.000  La
  La2      1.0000 0.32032  0.32032  0.50000  Biso   1.000  La
  La3      1.0000 0.01301  0.66667  0.16667  Biso   1.000  La
  La4      1.0000 0.67967  0.00000  0.50000  Biso   1.000  La
  La5      1.0000 0.33333  0.34634  0.16667  Biso   1.000  La
  La6      1.0000 0.00000  0.67968  0.50000  Biso   1.000  La
  La7      1.0000 0.98699  0.65366  0.83333  Biso   1.000  La
  La8      1.0000 0.66667  0.01301  0.83333  Biso   1.000  La
  La9      1.0000 0.34634  0.33333  0.83333  Biso   1.000  La
  N1       1.0000 0.00000  0.31360  0.00000  Biso   1.000  N
  C163     1.0000 0.00000  0.36930  0.00000  Biso   1.000  C
  C164     1.0000 0.00000  0.48780  0.00000  Biso   1.000  C
  C165     1.0000 0.00000  0.55060  0.00000  Biso   1.000  C
  N2       1.0000 0.66667  0.64693  0.33333  Biso   1.000  N
  C166     1.0000 0.66667  0.70263  0.33333  Biso   1.000  C
  C167     1.0000 0.66667  0.82113  0.33333  Biso   1.000  C
  C168     1.0000 0.66667  0.88393  0.33333  Biso   1.000  C
  N3       1.0000 0.33333  0.98027  0.66667  Biso   1.000  N
  C169     1.0000 0.33333  0.03597  0.66667  Biso   1.000  C
  C170     1.0000 0.33333  0.15447  0.66667  Biso   1.000  C
  C171     1.0000 0.33333  0.21727  0.66667  Biso   1.000  C
  N4       1.0000 0.68640  0.68640  0.00000  Biso   1.000  N
  C172     1.0000 0.63070  0.63070  0.00000  Biso   1.000  C
  C173     1.0000 0.51220  0.51220  0.00000  Biso   1.000  C
  C174     1.0000 0.44940  0.44940  0.00000  Biso   1.000  C
  N5       1.0000 0.35307  0.01973  0.33333  Biso   1.000  N
  C175     1.0000 0.29737  0.96403  0.33333  Biso   1.000  C
  C176     1.0000 0.17887  0.84553  0.33333  Biso   1.000  C
  C177     1.0000 0.11607  0.78273  0.33333  Biso   1.000  C
  N6       1.0000 0.01973  0.35307  0.66667  Biso   1.000  N
  C178     1.0000 0.96403  0.29737  0.66667  Biso   1.000  C
  C179     1.0000 0.84553  0.17887  0.66667  Biso   1.000  C
  C180     1.0000 0.78273  0.11607  0.66667  Biso   1.000  C
  N7       1.0000 0.31360  0.00000  0.00000  Biso   1.000  N
  C181     1.0000 0.36930  0.00000  0.00000  Biso   1.000  C
  C182     1.0000 0.48780  0.00000  0.00000  Biso   1.000  C
  C183     1.0000 0.55060  0.00000  0.00000  Biso   1.000  C
  N8       1.0000 0.98027  0.33333  0.33333  Biso   1.000  N
  C184     1.0000 0.03597  0.33333  0.33333  Biso   1.000  C
  C185     1.0000 0.15447  0.33333  0.33333  Biso   1.000  C
  C186     1.0000 0.21727  0.33333  0.33333  Biso   1.000  C
  N9       1.0000 0.64693  0.66667  0.66667  Biso   1.000  N
  C187     1.0000 0.70263  0.66667  0.66667  Biso   1.000  C
  C188     1.0000 0.82113  0.66667  0.66667  Biso   1.000  C
  C189     1.0000 0.88393  0.66667  0.66667  Biso   1.000  C
