data_image0
_cell_length_a       24.1719
_cell_length_b       24.1719
_cell_length_c       13.011
_cell_angle_alpha    90
_cell_angle_beta     90
_cell_angle_gamma    120

_symmetry_space_group_name_H-M    "P 1"
_symmetry_int_tables_number       1

loop_
  _symmetry_equiv_pos_as_xyz
  'x, y, z'

loop_
  _atom_site_label
  _atom_site_occupancy
  _atom_site_fract_x
  _atom_site_fract_y
  _atom_site_fract_z
  _atom_site_thermal_displace_type
  _atom_site_B_iso_or_equiv
  _atom_site_type_symbol
  O1       1.0000 0.56910  0.93810  0.05780  Biso   1.000  O
  O2       1.0000 0.61780  0.01960  0.16360  Biso   1.000  O
  O3       1.0000 0.32190  0.23200  0.24900  Biso   1.000  O
  C1       1.0000 0.39160  0.97680  0.15380  Biso   1.000  C
  C2       1.0000 0.44790  0.02760  0.19170  Biso   1.000  C
  H1       1.0000 0.44730  0.06150  0.22430  Biso   1.000  H
  C3       1.0000 0.50510  0.02770  0.18080  Biso   1.000  C
  H2       1.0000 0.54280  0.06170  0.20620  Biso   1.000  H
  C4       1.0000 0.50610  0.97700  0.13210  Biso   1.000  C
  C5       1.0000 0.44980  0.92620  0.09420  Biso   1.000  C
  H3       1.0000 0.45040  0.89230  0.06160  Biso   1.000  H
  C6       1.0000 0.39253  0.92610  0.10510  Biso   1.000  C
  H4       1.0000 0.35490  0.89210  0.07970  Biso   1.000  H
  C7       1.0000 0.56690  0.97470  0.12000  Biso   1.000  C
  C8       1.0000 0.36600  0.08130  0.09070  Biso   1.000  C
  H5       1.0000 0.38900  0.07420  0.04030  Biso   1.000  H
  C9       1.0000 0.36450  0.13750  0.08950  Biso   1.000  C
  H6       1.0000 0.38460  0.16650  0.03650  Biso   1.000  H
  O4       1.0000 0.23577  0.27143  0.39113  Biso   1.000  O
  O5       1.0000 0.28447  0.35293  0.49693  Biso   1.000  O
  O6       1.0000 0.98857  0.56533  0.58233  Biso   1.000  O
  C10      1.0000 0.05827  0.31013  0.48713  Biso   1.000  C
  C11      1.0000 0.11457  0.36093  0.52503  Biso   1.000  C
  H7       1.0000 0.11397  0.39483  0.55763  Biso   1.000  H
  C12      1.0000 0.17177  0.36103  0.51413  Biso   1.000  C
  H8       1.0000 0.20947  0.39503  0.53953  Biso   1.000  H
  C13      1.0000 0.17277  0.31033  0.46543  Biso   1.000  C
  C14      1.0000 0.11647  0.25953  0.42753  Biso   1.000  C
  H9       1.0000 0.11707  0.22563  0.39493  Biso   1.000  H
  C15      1.0000 0.05920  0.25943  0.43843  Biso   1.000  C
  H10      1.0000 0.02157  0.22543  0.41303  Biso   1.000  H
  C16      1.0000 0.23357  0.30803  0.45333  Biso   1.000  C
  C17      1.0000 0.03267  0.41463  0.42403  Biso   1.000  C
  H11      1.0000 0.05567  0.40753  0.37363  Biso   1.000  H
  C18      1.0000 0.03117  0.47083  0.42283  Biso   1.000  C
  H12      1.0000 0.05127  0.49983  0.36983  Biso   1.000  H
  O7       1.0000 0.90243  0.60477  0.72447  Biso   1.000  O
  O8       1.0000 0.95113  0.68627  0.83027  Biso   1.000  O
  O9       1.0000 0.65523  0.89867  0.91567  Biso   1.000  O
  C19      1.0000 0.72493  0.64347  0.82047  Biso   1.000  C
  C20      1.0000 0.78123  0.69427  0.85837  Biso   1.000  C
  H13      1.0000 0.78063  0.72817  0.89097  Biso   1.000  H
  C21      1.0000 0.83843  0.69437  0.84747  Biso   1.000  C
  H14      1.0000 0.87613  0.72837  0.87287  Biso   1.000  H
  C22      1.0000 0.83943  0.64367  0.79877  Biso   1.000  C
  C23      1.0000 0.78313  0.59287  0.76087  Biso   1.000  C
  H15      1.0000 0.78373  0.55897  0.72827  Biso   1.000  H
  C24      1.0000 0.72586  0.59277  0.77177  Biso   1.000  C
  H16      1.0000 0.68823  0.55877  0.74637  Biso   1.000  H
  C25      1.0000 0.90023  0.64137  0.78667  Biso   1.000  C
  C26      1.0000 0.69933  0.74797  0.75737  Biso   1.000  C
  H17      1.0000 0.72233  0.74087  0.70697  Biso   1.000  H
  C27      1.0000 0.69783  0.80417  0.75617  Biso   1.000  C
  H18      1.0000 0.71793  0.83317  0.70317  Biso   1.000  H
  O10      1.0000 0.06190  0.63100  0.05780  Biso   1.000  O
  O11      1.0000 0.98040  0.59820  0.16360  Biso   1.000  O
  O12      1.0000 0.76800  0.08990  0.24900  Biso   1.000  O
  C28      1.0000 0.02320  0.41480  0.15380  Biso   1.000  C
  C29      1.0000 0.97240  0.42030  0.19170  Biso   1.000  C
  H19      1.0000 0.93850  0.38580  0.22430  Biso   1.000  H
  C30      1.0000 0.97230  0.47740  0.18080  Biso   1.000  C
  H20      1.0000 0.93830  0.48110  0.20620  Biso   1.000  H
  C31      1.0000 0.02300  0.52910  0.13210  Biso   1.000  C
  C32      1.0000 0.07380  0.52360  0.09420  Biso   1.000  C
  H21      1.0000 0.10770  0.55810  0.06160  Biso   1.000  H
  C33      1.0000 0.07390  0.46643  0.10510  Biso   1.000  C
  H22      1.0000 0.10790  0.46280  0.07970  Biso   1.000  H
  C34      1.0000 0.02530  0.59220  0.12000  Biso   1.000  C
  C35      1.0000 0.91870  0.28470  0.09070  Biso   1.000  C
  H23      1.0000 0.92580  0.31480  0.04030  Biso   1.000  H
  C36      1.0000 0.86250  0.22700  0.08950  Biso   1.000  C
  H24      1.0000 0.83350  0.21810  0.03650  Biso   1.000  H
  O13      1.0000 0.72857  0.96433  0.39113  Biso   1.000  O
  O14      1.0000 0.64707  0.93153  0.49693  Biso   1.000  O
  O15      1.0000 0.43467  0.42323  0.58233  Biso   1.000  O
  C37      1.0000 0.68987  0.74813  0.48713  Biso   1.000  C
  C38      1.0000 0.63907  0.75363  0.52503  Biso   1.000  C
  H25      1.0000 0.60517  0.71913  0.55763  Biso   1.000  H
  C39      1.0000 0.63897  0.81073  0.51413  Biso   1.000  C
  H26      1.0000 0.60497  0.81443  0.53953  Biso   1.000  H
  C40      1.0000 0.68967  0.86243  0.46543  Biso   1.000  C
  C41      1.0000 0.74047  0.85693  0.42753  Biso   1.000  C
  H27      1.0000 0.77437  0.89143  0.39493  Biso   1.000  H
  C42      1.0000 0.74057  0.79976  0.43843  Biso   1.000  C
  H28      1.0000 0.77457  0.79613  0.41303  Biso   1.000  H
  C43      1.0000 0.69197  0.92553  0.45333  Biso   1.000  C
  C44      1.0000 0.58537  0.61803  0.42403  Biso   1.000  C
  H29      1.0000 0.59247  0.64813  0.37363  Biso   1.000  H
  C45      1.0000 0.52917  0.56033  0.42283  Biso   1.000  C
  H30      1.0000 0.50017  0.55143  0.36983  Biso   1.000  H
  O16      1.0000 0.39523  0.29767  0.72447  Biso   1.000  O
  O17      1.0000 0.31373  0.26487  0.83027  Biso   1.000  O
  O18      1.0000 0.10133  0.75657  0.91567  Biso   1.000  O
  C46      1.0000 0.35653  0.08147  0.82047  Biso   1.000  C
  C47      1.0000 0.30573  0.08697  0.85837  Biso   1.000  C
  H31      1.0000 0.27183  0.05247  0.89097  Biso   1.000  H
  C48      1.0000 0.30563  0.14407  0.84747  Biso   1.000  C
  H32      1.0000 0.27163  0.14777  0.87287  Biso   1.000  H
  C49      1.0000 0.35633  0.19577  0.79877  Biso   1.000  C
  C50      1.0000 0.40713  0.19027  0.76087  Biso   1.000  C
  H33      1.0000 0.44103  0.22477  0.72827  Biso   1.000  H
  C51      1.0000 0.40723  0.13310  0.77177  Biso   1.000  C
  H34      1.0000 0.44123  0.12947  0.74637  Biso   1.000  H
  C52      1.0000 0.35863  0.25887  0.78667  Biso   1.000  C
  C53      1.0000 0.25203  0.95137  0.75737  Biso   1.000  C
  H35      1.0000 0.25913  0.98147  0.70697  Biso   1.000  H
  C54      1.0000 0.19583  0.89367  0.75617  Biso   1.000  C
  H36      1.0000 0.16683  0.88477  0.70317  Biso   1.000  H
  O19      1.0000 0.36900  0.43090  0.05780  Biso   1.000  O
  O20      1.0000 0.40180  0.38220  0.16360  Biso   1.000  O
  O21      1.0000 0.91010  0.67810  0.24900  Biso   1.000  O
  C55      1.0000 0.58520  0.60840  0.15380  Biso   1.000  C
  C56      1.0000 0.57970  0.55210  0.19170  Biso   1.000  C
  H37      1.0000 0.61420  0.55270  0.22430  Biso   1.000  H
  C57      1.0000 0.52260  0.49490  0.18080  Biso   1.000  C
  H38      1.0000 0.51890  0.45720  0.20620  Biso   1.000  H
  C58      1.0000 0.47090  0.49390  0.13210  Biso   1.000  C
  C59      1.0000 0.47640  0.55020  0.09420  Biso   1.000  C
  H39      1.0000 0.44190  0.54960  0.06160  Biso   1.000  H
  C60      1.0000 0.53357  0.60747  0.10510  Biso   1.000  C
  H40      1.0000 0.53720  0.64510  0.07970  Biso   1.000  H
  C61      1.0000 0.40780  0.43310  0.12000  Biso   1.000  C
  C62      1.0000 0.71530  0.63400  0.09070  Biso   1.000  C
  H41      1.0000 0.68520  0.61100  0.04030  Biso   1.000  H
  C63      1.0000 0.77300  0.63550  0.08950  Biso   1.000  C
  H42      1.0000 0.78190  0.61540  0.03650  Biso   1.000  H
  O22      1.0000 0.03567  0.76423  0.39113  Biso   1.000  O
  O23      1.0000 0.06847  0.71553  0.49693  Biso   1.000  O
  O24      1.0000 0.57677  0.01143  0.58233  Biso   1.000  O
  C64      1.0000 0.25187  0.94173  0.48713  Biso   1.000  C
  C65      1.0000 0.24637  0.88543  0.52503  Biso   1.000  C
  H43      1.0000 0.28087  0.88603  0.55763  Biso   1.000  H
  C66      1.0000 0.18927  0.82823  0.51413  Biso   1.000  C
  H44      1.0000 0.18557  0.79053  0.53953  Biso   1.000  H
  C67      1.0000 0.13757  0.82723  0.46543  Biso   1.000  C
  C68      1.0000 0.14307  0.88353  0.42753  Biso   1.000  C
  H45      1.0000 0.10857  0.88293  0.39493  Biso   1.000  H
  C69      1.0000 0.20024  0.94080  0.43843  Biso   1.000  C
  H46      1.0000 0.20387  0.97843  0.41303  Biso   1.000  H
  C70      1.0000 0.07447  0.76643  0.45333  Biso   1.000  C
  C71      1.0000 0.38197  0.96733  0.42403  Biso   1.000  C
  H47      1.0000 0.35187  0.94433  0.37363  Biso   1.000  H
  C72      1.0000 0.43967  0.96883  0.42283  Biso   1.000  C
  H48      1.0000 0.44857  0.94873  0.36983  Biso   1.000  H
  O25      1.0000 0.70233  0.09757  0.72447  Biso   1.000  O
  O26      1.0000 0.73513  0.04887  0.83027  Biso   1.000  O
  O27      1.0000 0.24343  0.34477  0.91567  Biso   1.000  O
  C73      1.0000 0.91853  0.27507  0.82047  Biso   1.000  C
  C74      1.0000 0.91303  0.21877  0.85837  Biso   1.000  C
  H49      1.0000 0.94753  0.21937  0.89097  Biso   1.000  H
  C75      1.0000 0.85593  0.16157  0.84747  Biso   1.000  C
  H50      1.0000 0.85223  0.12387  0.87287  Biso   1.000  H
  C76      1.0000 0.80423  0.16057  0.79877  Biso   1.000  C
  C77      1.0000 0.80973  0.21687  0.76087  Biso   1.000  C
  H51      1.0000 0.77523  0.21627  0.72827  Biso   1.000  H
  C78      1.0000 0.86690  0.27414  0.77177  Biso   1.000  C
  H52      1.0000 0.87053  0.31177  0.74637  Biso   1.000  H
  C79      1.0000 0.74113  0.09977  0.78667  Biso   1.000  C
  C80      1.0000 0.04863  0.30067  0.75737  Biso   1.000  C
  H53      1.0000 0.01853  0.27767  0.70697  Biso   1.000  H
  C81      1.0000 0.10633  0.30217  0.75617  Biso   1.000  C
  H54      1.0000 0.11523  0.28207  0.70317  Biso   1.000  H
  O28      1.0000 0.93810  0.56910  0.94220  Biso   1.000  O
  O29      1.0000 0.01960  0.61780  0.83640  Biso   1.000  O
  O30      1.0000 0.23200  0.32190  0.75100  Biso   1.000  O
  C82      1.0000 0.97680  0.39160  0.84620  Biso   1.000  C
  C83      1.0000 0.02760  0.44790  0.80830  Biso   1.000  C
  H55      1.0000 0.06150  0.44730  0.77570  Biso   1.000  H
  C84      1.0000 0.02770  0.50510  0.81920  Biso   1.000  C
  H56      1.0000 0.06170  0.54280  0.79380  Biso   1.000  H
  C85      1.0000 0.97700  0.50610  0.86790  Biso   1.000  C
  C86      1.0000 0.92620  0.44980  0.90580  Biso   1.000  C
  H57      1.0000 0.89230  0.45040  0.93840  Biso   1.000  H
  C87      1.0000 0.92610  0.39253  0.89490  Biso   1.000  C
  H58      1.0000 0.89210  0.35490  0.92030  Biso   1.000  H
  C88      1.0000 0.97470  0.56690  0.88000  Biso   1.000  C
  C89      1.0000 0.08130  0.36600  0.90930  Biso   1.000  C
  H59      1.0000 0.07420  0.38900  0.95970  Biso   1.000  H
  C90      1.0000 0.13750  0.36450  0.91050  Biso   1.000  C
  H60      1.0000 0.16650  0.38460  0.96350  Biso   1.000  H
  O31      1.0000 0.60477  0.90243  0.27553  Biso   1.000  O
  O32      1.0000 0.68627  0.95113  0.16973  Biso   1.000  O
  O33      1.0000 0.89867  0.65523  0.08433  Biso   1.000  O
  C91      1.0000 0.64347  0.72493  0.17953  Biso   1.000  C
  C92      1.0000 0.69427  0.78123  0.14163  Biso   1.000  C
  H61      1.0000 0.72817  0.78063  0.10903  Biso   1.000  H
  C93      1.0000 0.69437  0.83843  0.15253  Biso   1.000  C
  H62      1.0000 0.72837  0.87613  0.12713  Biso   1.000  H
  C94      1.0000 0.64367  0.83943  0.20123  Biso   1.000  C
  C95      1.0000 0.59287  0.78313  0.23913  Biso   1.000  C
  H63      1.0000 0.55897  0.78373  0.27173  Biso   1.000  H
  C96      1.0000 0.59277  0.72586  0.22823  Biso   1.000  C
  H64      1.0000 0.55877  0.68823  0.25363  Biso   1.000  H
  C97      1.0000 0.64137  0.90023  0.21333  Biso   1.000  C
  C98      1.0000 0.74797  0.69933  0.24263  Biso   1.000  C
  H65      1.0000 0.74087  0.72233  0.29303  Biso   1.000  H
  C99      1.0000 0.80417  0.69783  0.24383  Biso   1.000  C
  H66      1.0000 0.83317  0.71793  0.29683  Biso   1.000  H
  O34      1.0000 0.27143  0.23577  0.60887  Biso   1.000  O
  O35      1.0000 0.35293  0.28447  0.50307  Biso   1.000  O
  O36      1.0000 0.56533  0.98857  0.41767  Biso   1.000  O
  C100     1.0000 0.31013  0.05827  0.51287  Biso   1.000  C
  C101     1.0000 0.36093  0.11457  0.47497  Biso   1.000  C
  H67      1.0000 0.39483  0.11397  0.44237  Biso   1.000  H
  C102     1.0000 0.36103  0.17177  0.48587  Biso   1.000  C
  H68      1.0000 0.39503  0.20947  0.46047  Biso   1.000  H
  C103     1.0000 0.31033  0.17277  0.53457  Biso   1.000  C
  C104     1.0000 0.25953  0.11647  0.57247  Biso   1.000  C
  H69      1.0000 0.22563  0.11707  0.60507  Biso   1.000  H
  C105     1.0000 0.25943  0.05920  0.56157  Biso   1.000  C
  H70      1.0000 0.22543  0.02157  0.58697  Biso   1.000  H
  C106     1.0000 0.30803  0.23357  0.54667  Biso   1.000  C
  C107     1.0000 0.41463  0.03267  0.57597  Biso   1.000  C
  H71      1.0000 0.40753  0.05567  0.62637  Biso   1.000  H
  C108     1.0000 0.47083  0.03117  0.57717  Biso   1.000  C
  H72      1.0000 0.49983  0.05127  0.63017  Biso   1.000  H
  O37      1.0000 0.63100  0.06190  0.94220  Biso   1.000  O
  O38      1.0000 0.59820  0.98040  0.83640  Biso   1.000  O
  O39      1.0000 0.08990  0.76800  0.75100  Biso   1.000  O
  C109     1.0000 0.41480  0.02320  0.84620  Biso   1.000  C
  C110     1.0000 0.42030  0.97240  0.80830  Biso   1.000  C
  H73      1.0000 0.38580  0.93850  0.77570  Biso   1.000  H
  C111     1.0000 0.47740  0.97230  0.81920  Biso   1.000  C
  H74      1.0000 0.48110  0.93830  0.79380  Biso   1.000  H
  C112     1.0000 0.52910  0.02300  0.86790  Biso   1.000  C
  C113     1.0000 0.52360  0.07380  0.90580  Biso   1.000  C
  H75      1.0000 0.55810  0.10770  0.93840  Biso   1.000  H
  C114     1.0000 0.46643  0.07390  0.89490  Biso   1.000  C
  H76      1.0000 0.46280  0.10790  0.92030  Biso   1.000  H
  C115     1.0000 0.59220  0.02530  0.88000  Biso   1.000  C
  C116     1.0000 0.28470  0.91870  0.90930  Biso   1.000  C
  H77      1.0000 0.31480  0.92580  0.95970  Biso   1.000  H
  C117     1.0000 0.22700  0.86250  0.91050  Biso   1.000  C
  H78      1.0000 0.21810  0.83350  0.96350  Biso   1.000  H
  O40      1.0000 0.29767  0.39523  0.27553  Biso   1.000  O
  O41      1.0000 0.26487  0.31373  0.16973  Biso   1.000  O
  O42      1.0000 0.75657  0.10133  0.08433  Biso   1.000  O
  C118     1.0000 0.08147  0.35653  0.17953  Biso   1.000  C
  C119     1.0000 0.08697  0.30573  0.14163  Biso   1.000  C
  H79      1.0000 0.05247  0.27183  0.10903  Biso   1.000  H
  C120     1.0000 0.14407  0.30563  0.15253  Biso   1.000  C
  H80      1.0000 0.14777  0.27163  0.12713  Biso   1.000  H
  C121     1.0000 0.19577  0.35633  0.20123  Biso   1.000  C
  C122     1.0000 0.19027  0.40713  0.23913  Biso   1.000  C
  H81      1.0000 0.22477  0.44103  0.27173  Biso   1.000  H
  C123     1.0000 0.13310  0.40723  0.22823  Biso   1.000  C
  H82      1.0000 0.12947  0.44123  0.25363  Biso   1.000  H
  C124     1.0000 0.25887  0.35863  0.21333  Biso   1.000  C
  C125     1.0000 0.95137  0.25203  0.24263  Biso   1.000  C
  H83      1.0000 0.98147  0.25913  0.29303  Biso   1.000  H
  C126     1.0000 0.89367  0.19583  0.24383  Biso   1.000  C
  H84      1.0000 0.88477  0.16683  0.29683  Biso   1.000  H
  O43      1.0000 0.96433  0.72857  0.60887  Biso   1.000  O
  O44      1.0000 0.93153  0.64707  0.50307  Biso   1.000  O
  O45      1.0000 0.42323  0.43467  0.41767  Biso   1.000  O
  C127     1.0000 0.74813  0.68987  0.51287  Biso   1.000  C
  C128     1.0000 0.75363  0.63907  0.47497  Biso   1.000  C
  H85      1.0000 0.71913  0.60517  0.44237  Biso   1.000  H
  C129     1.0000 0.81073  0.63897  0.48587  Biso   1.000  C
  H86      1.0000 0.81443  0.60497  0.46047  Biso   1.000  H
  C130     1.0000 0.86243  0.68967  0.53457  Biso   1.000  C
  C131     1.0000 0.85693  0.74047  0.57247  Biso   1.000  C
  H87      1.0000 0.89143  0.77437  0.60507  Biso   1.000  H
  C132     1.0000 0.79976  0.74057  0.56157  Biso   1.000  C
  H88      1.0000 0.79613  0.77457  0.58697  Biso   1.000  H
  C133     1.0000 0.92553  0.69197  0.54667  Biso   1.000  C
  C134     1.0000 0.61803  0.58537  0.57597  Biso   1.000  C
  H89      1.0000 0.64813  0.59247  0.62637  Biso   1.000  H
  C135     1.0000 0.56033  0.52917  0.57717  Biso   1.000  C
  H90      1.0000 0.55143  0.50017  0.63017  Biso   1.000  H
  O46      1.0000 0.43090  0.36900  0.94220  Biso   1.000  O
  O47      1.0000 0.38220  0.40180  0.83640  Biso   1.000  O
  O48      1.0000 0.67810  0.91010  0.75100  Biso   1.000  O
  C136     1.0000 0.60840  0.58520  0.84620  Biso   1.000  C
  C137     1.0000 0.55210  0.57970  0.80830  Biso   1.000  C
  H91      1.0000 0.55270  0.61420  0.77570  Biso   1.000  H
  C138     1.0000 0.49490  0.52260  0.81920  Biso   1.000  C
  H92      1.0000 0.45720  0.51890  0.79380  Biso   1.000  H
  C139     1.0000 0.49390  0.47090  0.86790  Biso   1.000  C
  C140     1.0000 0.55020  0.47640  0.90580  Biso   1.000  C
  H93      1.0000 0.54960  0.44190  0.93840  Biso   1.000  H
  C141     1.0000 0.60747  0.53357  0.89490  Biso   1.000  C
  H94      1.0000 0.64510  0.53720  0.92030  Biso   1.000  H
  C142     1.0000 0.43310  0.40780  0.88000  Biso   1.000  C
  C143     1.0000 0.63400  0.71530  0.90930  Biso   1.000  C
  H95      1.0000 0.61100  0.68520  0.95970  Biso   1.000  H
  C144     1.0000 0.63550  0.77300  0.91050  Biso   1.000  C
  H96      1.0000 0.61540  0.78190  0.96350  Biso   1.000  H
  O49      1.0000 0.09757  0.70233  0.27553  Biso   1.000  O
  O50      1.0000 0.04887  0.73513  0.16973  Biso   1.000  O
  O51      1.0000 0.34477  0.24343  0.08433  Biso   1.000  O
  C145     1.0000 0.27507  0.91853  0.17953  Biso   1.000  C
  C146     1.0000 0.21877  0.91303  0.14163  Biso   1.000  C
  H97      1.0000 0.21937  0.94753  0.10903  Biso   1.000  H
  C147     1.0000 0.16157  0.85593  0.15253  Biso   1.000  C
  H98      1.0000 0.12387  0.85223  0.12713  Biso   1.000  H
  C148     1.0000 0.16057  0.80423  0.20123  Biso   1.000  C
  C149     1.0000 0.21687  0.80973  0.23913  Biso   1.000  C
  H99      1.0000 0.21627  0.77523  0.27173  Biso   1.000  H
  C150     1.0000 0.27414  0.86690  0.22823  Biso   1.000  C
  H100     1.0000 0.31177  0.87053  0.25363  Biso   1.000  H
  C151     1.0000 0.09977  0.74113  0.21333  Biso   1.000  C
  C152     1.0000 0.30067  0.04863  0.24263  Biso   1.000  C
  H101     1.0000 0.27767  0.01853  0.29303  Biso   1.000  H
  C153     1.0000 0.30217  0.10633  0.24383  Biso   1.000  C
  H102     1.0000 0.28207  0.11523  0.29683  Biso   1.000  H
  O52      1.0000 0.76423  0.03567  0.60887  Biso   1.000  O
  O53      1.0000 0.71553  0.06847  0.50307  Biso   1.000  O
  O54      1.0000 0.01143  0.57677  0.41767  Biso   1.000  O
  C154     1.0000 0.94173  0.25187  0.51287  Biso   1.000  C
  C155     1.0000 0.88543  0.24637  0.47497  Biso   1.000  C
  H103     1.0000 0.88603  0.28087  0.44237  Biso   1.000  H
  C156     1.0000 0.82823  0.18927  0.48587  Biso   1.000  C
  H104     1.0000 0.79053  0.18557  0.46047  Biso   1.000  H
  C157     1.0000 0.82723  0.13757  0.53457  Biso   1.000  C
  C158     1.0000 0.88353  0.14307  0.57247  Biso   1.000  C
  H105     1.0000 0.88293  0.10857  0.60507  Biso   1.000  H
  C159     1.0000 0.94080  0.20024  0.56157  Biso   1.000  C
  H106     1.0000 0.97843  0.20387  0.58697  Biso   1.000  H
  C160     1.0000 0.76643  0.07447  0.54667  Biso   1.000  C
  C161     1.0000 0.96733  0.38197  0.57597  Biso   1.000  C
  H107     1.0000 0.94433  0.35187  0.62637  Biso   1.000  H
  C162     1.0000 0.96883  0.43967  0.57717  Biso   1.000  C
  H108     1.0000 0.94873  0.44857  0.63017  Biso   1.000  H
  La1      1.0000 0.66667  0.01805  0.33333  Biso   1.000  La
  La2      1.0000 0.98195  0.64861  0.33333  Biso   1.000  La
  La3      1.0000 0.35139  0.33333  0.33333  Biso   1.000  La
  La4      1.0000 0.01805  0.66667  0.66667  Biso   1.000  La
  La5      1.0000 0.68472  0.00000  0.00000  Biso   1.000  La
  La6      1.0000 0.64861  0.98195  0.66667  Biso   1.000  La
  La7      1.0000 0.31528  0.31528  0.00000  Biso   1.000  La
  La8      1.0000 0.33333  0.35139  0.66667  Biso   1.000  La
  La9      1.0000 0.00000  0.68472  0.00000  Biso   1.000  La
  N1       1.0000 0.33333  0.97552  0.16667  Biso   1.000  N
  C163     1.0000 0.33333  0.03422  0.16667  Biso   1.000  C
  C164     1.0000 0.33333  0.15142  0.16667  Biso   1.000  C
  C165     1.0000 0.33333  0.21302  0.16667  Biso   1.000  C
  N2       1.0000 0.00000  0.30885  0.50000  Biso   1.000  N
  C166     1.0000 0.00000  0.36755  0.50000  Biso   1.000  C
  C167     1.0000 0.00000  0.48475  0.50000  Biso   1.000  C
  C168     1.0000 0.00000  0.54635  0.50000  Biso   1.000  C
  N3       1.0000 0.02448  0.35782  0.16667  Biso   1.000  N
  C169     1.0000 0.96578  0.29912  0.16667  Biso   1.000  C
  C170     1.0000 0.84858  0.18192  0.16667  Biso   1.000  C
  C171     1.0000 0.78698  0.12032  0.16667  Biso   1.000  C
  N4       1.0000 0.69115  0.69115  0.50000  Biso   1.000  N
  C172     1.0000 0.63245  0.63245  0.50000  Biso   1.000  C
  C173     1.0000 0.51525  0.51525  0.50000  Biso   1.000  C
  C174     1.0000 0.45365  0.45365  0.50000  Biso   1.000  C
  N5       1.0000 0.64218  0.66667  0.16667  Biso   1.000  N
  C175     1.0000 0.70088  0.66667  0.16667  Biso   1.000  C
  C176     1.0000 0.81808  0.66667  0.16667  Biso   1.000  C
  C177     1.0000 0.87968  0.66667  0.16667  Biso   1.000  C
  N6       1.0000 0.30885  0.00000  0.50000  Biso   1.000  N
  C178     1.0000 0.36755  0.00000  0.50000  Biso   1.000  C
  C179     1.0000 0.48475  0.00000  0.50000  Biso   1.000  C
  C180     1.0000 0.54635  0.00000  0.50000  Biso   1.000  C
  N7       1.0000 0.97552  0.33333  0.83333  Biso   1.000  N
  C181     1.0000 0.03422  0.33333  0.83333  Biso   1.000  C
  C182     1.0000 0.15142  0.33333  0.83333  Biso   1.000  C
  C183     1.0000 0.21302  0.33333  0.83333  Biso   1.000  C
  N8       1.0000 0.35782  0.02448  0.83333  Biso   1.000  N
  C184     1.0000 0.29912  0.96578  0.83333  Biso   1.000  C
  C185     1.0000 0.18192  0.84858  0.83333  Biso   1.000  C
  C186     1.0000 0.12032  0.78698  0.83333  Biso   1.000  C
  N9       1.0000 0.66667  0.64218  0.83333  Biso   1.000  N
  C187     1.0000 0.66667  0.70088  0.83333  Biso   1.000  C
  C188     1.0000 0.66667  0.81808  0.83333  Biso   1.000  C
  C189     1.0000 0.66667  0.87968  0.83333  Biso   1.000  C
