data_image0
_cell_length_a       24.188
_cell_length_b       24.188
_cell_length_c       13.1489
_cell_angle_alpha    90
_cell_angle_beta     90
_cell_angle_gamma    120

_symmetry_space_group_name_H-M    "P 1"
_symmetry_int_tables_number       1

loop_
  _symmetry_equiv_pos_as_xyz
  'x, y, z'

loop_
  _atom_site_label
  _atom_site_occupancy
  _atom_site_fract_x
  _atom_site_fract_y
  _atom_site_fract_z
  _atom_site_thermal_displace_type
  _atom_site_B_iso_or_equiv
  _atom_site_type_symbol
  O1       1.0000 0.56900  0.93840  0.05920  Biso   1.000  O
  O2       1.0000 0.61750  0.02030  0.16720  Biso   1.000  O
  O3       1.0000 0.34210  0.24320  0.08270  Biso   1.000  O
  C1       1.0000 0.39180  0.97830  0.15410  Biso   1.000  C
  C2       1.0000 0.50420  0.02800  0.18040  Biso   1.000  C
  H1       1.0000 0.54160  0.06210  0.20570  Biso   1.000  H
  C3       1.0000 0.44800  0.02920  0.19260  Biso   1.000  C
  H2       1.0000 0.44770  0.06300  0.22550  Biso   1.000  H
  C4       1.0000 0.50800  0.98070  0.13450  Biso   1.000  C
  C5       1.0000 0.45180  0.93010  0.09410  Biso   1.000  C
  H3       1.0000 0.45330  0.89730  0.05950  Biso   1.000  H
  C6       1.0000 0.39230  0.92830  0.10560  Biso   1.000  C
  H4       1.0000 0.35480  0.89410  0.08080  Biso   1.000  H
  C7       1.0000 0.56690  0.97820  0.11910  Biso   1.000  C
  C8       1.0000 0.36010  0.08060  0.08400  Biso   1.000  C
  H5       1.0000 0.37980  0.07170  0.03080  Biso   1.000  H
  C9       1.0000 0.35680  0.13520  0.08330  Biso   1.000  C
  H6       1.0000 0.37040  0.16130  0.02620  Biso   1.000  H
  O4       1.0000 0.23567  0.27173  0.39253  Biso   1.000  O
  O5       1.0000 0.28417  0.35363  0.50053  Biso   1.000  O
  O6       1.0000 0.00877  0.57653  0.41603  Biso   1.000  O
  C10      1.0000 0.05847  0.31163  0.48743  Biso   1.000  C
  C11      1.0000 0.17087  0.36133  0.51373  Biso   1.000  C
  H7       1.0000 0.20827  0.39543  0.53903  Biso   1.000  H
  C12      1.0000 0.11467  0.36253  0.52593  Biso   1.000  C
  H8       1.0000 0.11437  0.39633  0.55883  Biso   1.000  H
  C13      1.0000 0.17467  0.31403  0.46783  Biso   1.000  C
  C14      1.0000 0.11847  0.26343  0.42743  Biso   1.000  C
  H9       1.0000 0.11997  0.23063  0.39283  Biso   1.000  H
  C15      1.0000 0.05897  0.26163  0.43893  Biso   1.000  C
  H10      1.0000 0.02147  0.22743  0.41413  Biso   1.000  H
  C16      1.0000 0.23357  0.31153  0.45243  Biso   1.000  C
  C17      1.0000 0.02677  0.41393  0.41733  Biso   1.000  C
  H11      1.0000 0.04647  0.40503  0.36413  Biso   1.000  H
  C18      1.0000 0.02347  0.46853  0.41663  Biso   1.000  C
  H12      1.0000 0.03707  0.49463  0.35953  Biso   1.000  H
  O7       1.0000 0.90233  0.60507  0.72587  Biso   1.000  O
  O8       1.0000 0.95083  0.68697  0.83387  Biso   1.000  O
  O9       1.0000 0.67543  0.90987  0.74937  Biso   1.000  O
  C19      1.0000 0.72513  0.64497  0.82077  Biso   1.000  C
  C20      1.0000 0.83753  0.69467  0.84707  Biso   1.000  C
  H13      1.0000 0.87493  0.72877  0.87237  Biso   1.000  H
  C21      1.0000 0.78133  0.69587  0.85927  Biso   1.000  C
  H14      1.0000 0.78103  0.72967  0.89217  Biso   1.000  H
  C22      1.0000 0.84133  0.64737  0.80117  Biso   1.000  C
  C23      1.0000 0.78513  0.59677  0.76077  Biso   1.000  C
  H15      1.0000 0.78663  0.56397  0.72617  Biso   1.000  H
  C24      1.0000 0.72563  0.59497  0.77227  Biso   1.000  C
  H16      1.0000 0.68813  0.56077  0.74747  Biso   1.000  H
  C25      1.0000 0.90023  0.64487  0.78577  Biso   1.000  C
  C26      1.0000 0.69343  0.74727  0.75067  Biso   1.000  C
  H17      1.0000 0.71313  0.73837  0.69747  Biso   1.000  H
  C27      1.0000 0.69013  0.80187  0.74997  Biso   1.000  C
  H18      1.0000 0.70373  0.82797  0.69287  Biso   1.000  H
  O10      1.0000 0.06160  0.63060  0.05920  Biso   1.000  O
  O11      1.0000 0.97970  0.59720  0.16720  Biso   1.000  O
  O12      1.0000 0.75680  0.09890  0.08270  Biso   1.000  O
  C28      1.0000 0.02170  0.41350  0.15410  Biso   1.000  C
  C29      1.0000 0.97200  0.47620  0.18040  Biso   1.000  C
  H19      1.0000 0.93790  0.47950  0.20570  Biso   1.000  H
  C30      1.0000 0.97080  0.41880  0.19260  Biso   1.000  C
  H20      1.0000 0.93700  0.38470  0.22550  Biso   1.000  H
  C31      1.0000 0.01930  0.52730  0.13450  Biso   1.000  C
  C32      1.0000 0.06990  0.52170  0.09410  Biso   1.000  C
  H21      1.0000 0.10270  0.55600  0.05950  Biso   1.000  H
  C33      1.0000 0.07170  0.46400  0.10560  Biso   1.000  C
  H22      1.0000 0.10590  0.46070  0.08080  Biso   1.000  H
  C34      1.0000 0.02180  0.58870  0.11910  Biso   1.000  C
  C35      1.0000 0.91940  0.27950  0.08400  Biso   1.000  C
  H23      1.0000 0.92830  0.30810  0.03080  Biso   1.000  H
  C36      1.0000 0.86480  0.22160  0.08330  Biso   1.000  C
  H24      1.0000 0.83870  0.20910  0.02620  Biso   1.000  H
  O13      1.0000 0.72827  0.96393  0.39253  Biso   1.000  O
  O14      1.0000 0.64637  0.93053  0.50053  Biso   1.000  O
  O15      1.0000 0.42347  0.43223  0.41603  Biso   1.000  O
  C37      1.0000 0.68837  0.74683  0.48743  Biso   1.000  C
  C38      1.0000 0.63867  0.80953  0.51373  Biso   1.000  C
  H25      1.0000 0.60457  0.81283  0.53903  Biso   1.000  H
  C39      1.0000 0.63747  0.75213  0.52593  Biso   1.000  C
  H26      1.0000 0.60367  0.71803  0.55883  Biso   1.000  H
  C40      1.0000 0.68597  0.86063  0.46783  Biso   1.000  C
  C41      1.0000 0.73657  0.85503  0.42743  Biso   1.000  C
  H27      1.0000 0.76937  0.88933  0.39283  Biso   1.000  H
  C42      1.0000 0.73837  0.79733  0.43893  Biso   1.000  C
  H28      1.0000 0.77257  0.79403  0.41413  Biso   1.000  H
  C43      1.0000 0.68847  0.92203  0.45243  Biso   1.000  C
  C44      1.0000 0.58607  0.61283  0.41733  Biso   1.000  C
  H29      1.0000 0.59497  0.64143  0.36413  Biso   1.000  H
  C45      1.0000 0.53147  0.55493  0.41663  Biso   1.000  C
  H30      1.0000 0.50537  0.54243  0.35953  Biso   1.000  H
  O16      1.0000 0.39493  0.29727  0.72587  Biso   1.000  O
  O17      1.0000 0.31303  0.26387  0.83387  Biso   1.000  O
  O18      1.0000 0.09013  0.76557  0.74937  Biso   1.000  O
  C46      1.0000 0.35503  0.08017  0.82077  Biso   1.000  C
  C47      1.0000 0.30533  0.14287  0.84707  Biso   1.000  C
  H31      1.0000 0.27123  0.14617  0.87237  Biso   1.000  H
  C48      1.0000 0.30413  0.08547  0.85927  Biso   1.000  C
  H32      1.0000 0.27033  0.05137  0.89217  Biso   1.000  H
  C49      1.0000 0.35263  0.19397  0.80117  Biso   1.000  C
  C50      1.0000 0.40323  0.18837  0.76077  Biso   1.000  C
  H33      1.0000 0.43603  0.22267  0.72617  Biso   1.000  H
  C51      1.0000 0.40503  0.13067  0.77227  Biso   1.000  C
  H34      1.0000 0.43923  0.12737  0.74747  Biso   1.000  H
  C52      1.0000 0.35513  0.25537  0.78577  Biso   1.000  C
  C53      1.0000 0.25273  0.94617  0.75067  Biso   1.000  C
  H35      1.0000 0.26163  0.97477  0.69747  Biso   1.000  H
  C54      1.0000 0.19813  0.88827  0.74997  Biso   1.000  C
  H36      1.0000 0.17203  0.87577  0.69287  Biso   1.000  H
  O19      1.0000 0.36940  0.43100  0.05920  Biso   1.000  O
  O20      1.0000 0.40280  0.38250  0.16720  Biso   1.000  O
  O21      1.0000 0.90110  0.65790  0.08270  Biso   1.000  O
  C55      1.0000 0.58650  0.60820  0.15410  Biso   1.000  C
  C56      1.0000 0.52380  0.49580  0.18040  Biso   1.000  C
  H37      1.0000 0.52050  0.45840  0.20570  Biso   1.000  H
  C57      1.0000 0.58120  0.55200  0.19260  Biso   1.000  C
  H38      1.0000 0.61530  0.55230  0.22550  Biso   1.000  H
  C58      1.0000 0.47270  0.49200  0.13450  Biso   1.000  C
  C59      1.0000 0.47830  0.54820  0.09410  Biso   1.000  C
  H39      1.0000 0.44400  0.54670  0.05950  Biso   1.000  H
  C60      1.0000 0.53600  0.60770  0.10560  Biso   1.000  C
  H40      1.0000 0.53930  0.64520  0.08080  Biso   1.000  H
  C61      1.0000 0.41130  0.43310  0.11910  Biso   1.000  C
  C62      1.0000 0.72050  0.63990  0.08400  Biso   1.000  C
  H41      1.0000 0.69190  0.62020  0.03080  Biso   1.000  H
  C63      1.0000 0.77840  0.64320  0.08330  Biso   1.000  C
  H42      1.0000 0.79090  0.62960  0.02620  Biso   1.000  H
  O22      1.0000 0.03607  0.76433  0.39253  Biso   1.000  O
  O23      1.0000 0.06947  0.71583  0.50053  Biso   1.000  O
  O24      1.0000 0.56777  0.99123  0.41603  Biso   1.000  O
  C64      1.0000 0.25317  0.94153  0.48743  Biso   1.000  C
  C65      1.0000 0.19047  0.82913  0.51373  Biso   1.000  C
  H43      1.0000 0.18717  0.79173  0.53903  Biso   1.000  H
  C66      1.0000 0.24787  0.88533  0.52593  Biso   1.000  C
  H44      1.0000 0.28197  0.88563  0.55883  Biso   1.000  H
  C67      1.0000 0.13937  0.82533  0.46783  Biso   1.000  C
  C68      1.0000 0.14497  0.88153  0.42743  Biso   1.000  C
  H45      1.0000 0.11067  0.88003  0.39283  Biso   1.000  H
  C69      1.0000 0.20267  0.94103  0.43893  Biso   1.000  C
  H46      1.0000 0.20597  0.97853  0.41413  Biso   1.000  H
  C70      1.0000 0.07797  0.76643  0.45243  Biso   1.000  C
  C71      1.0000 0.38717  0.97323  0.41733  Biso   1.000  C
  H47      1.0000 0.35857  0.95353  0.36413  Biso   1.000  H
  C72      1.0000 0.44507  0.97653  0.41663  Biso   1.000  C
  H48      1.0000 0.45757  0.96293  0.35953  Biso   1.000  H
  O25      1.0000 0.70273  0.09767  0.72587  Biso   1.000  O
  O26      1.0000 0.73613  0.04917  0.83387  Biso   1.000  O
  O27      1.0000 0.23443  0.32457  0.74937  Biso   1.000  O
  C73      1.0000 0.91983  0.27487  0.82077  Biso   1.000  C
  C74      1.0000 0.85713  0.16247  0.84707  Biso   1.000  C
  H49      1.0000 0.85383  0.12507  0.87237  Biso   1.000  H
  C75      1.0000 0.91453  0.21867  0.85927  Biso   1.000  C
  H50      1.0000 0.94863  0.21897  0.89217  Biso   1.000  H
  C76      1.0000 0.80603  0.15867  0.80117  Biso   1.000  C
  C77      1.0000 0.81163  0.21487  0.76077  Biso   1.000  C
  H51      1.0000 0.77733  0.21337  0.72617  Biso   1.000  H
  C78      1.0000 0.86933  0.27437  0.77227  Biso   1.000  C
  H52      1.0000 0.87263  0.31187  0.74747  Biso   1.000  H
  C79      1.0000 0.74463  0.09977  0.78577  Biso   1.000  C
  C80      1.0000 0.05383  0.30657  0.75067  Biso   1.000  C
  H53      1.0000 0.02523  0.28687  0.69747  Biso   1.000  H
  C81      1.0000 0.11173  0.30987  0.74997  Biso   1.000  C
  H54      1.0000 0.12423  0.29627  0.69287  Biso   1.000  H
  O28      1.0000 0.93840  0.56900  0.94080  Biso   1.000  O
  O29      1.0000 0.02030  0.61750  0.83280  Biso   1.000  O
  O30      1.0000 0.24320  0.34210  0.91730  Biso   1.000  O
  C82      1.0000 0.97830  0.39180  0.84590  Biso   1.000  C
  C83      1.0000 0.02800  0.50420  0.81960  Biso   1.000  C
  H55      1.0000 0.06210  0.54160  0.79430  Biso   1.000  H
  C84      1.0000 0.02920  0.44800  0.80740  Biso   1.000  C
  H56      1.0000 0.06300  0.44770  0.77450  Biso   1.000  H
  C85      1.0000 0.98070  0.50800  0.86550  Biso   1.000  C
  C86      1.0000 0.93010  0.45180  0.90590  Biso   1.000  C
  H57      1.0000 0.89730  0.45330  0.94050  Biso   1.000  H
  C87      1.0000 0.92830  0.39230  0.89440  Biso   1.000  C
  H58      1.0000 0.89410  0.35480  0.91920  Biso   1.000  H
  C88      1.0000 0.97820  0.56690  0.88090  Biso   1.000  C
  C89      1.0000 0.08060  0.36010  0.91600  Biso   1.000  C
  H59      1.0000 0.07170  0.37980  0.96920  Biso   1.000  H
  C90      1.0000 0.13520  0.35680  0.91670  Biso   1.000  C
  H60      1.0000 0.16130  0.37040  0.97380  Biso   1.000  H
  O31      1.0000 0.60507  0.90233  0.27413  Biso   1.000  O
  O32      1.0000 0.68697  0.95083  0.16613  Biso   1.000  O
  O33      1.0000 0.90987  0.67543  0.25063  Biso   1.000  O
  C91      1.0000 0.64497  0.72513  0.17923  Biso   1.000  C
  C92      1.0000 0.69467  0.83753  0.15293  Biso   1.000  C
  H61      1.0000 0.72877  0.87493  0.12763  Biso   1.000  H
  C93      1.0000 0.69587  0.78133  0.14073  Biso   1.000  C
  H62      1.0000 0.72967  0.78103  0.10783  Biso   1.000  H
  C94      1.0000 0.64737  0.84133  0.19883  Biso   1.000  C
  C95      1.0000 0.59677  0.78513  0.23923  Biso   1.000  C
  H63      1.0000 0.56397  0.78663  0.27383  Biso   1.000  H
  C96      1.0000 0.59497  0.72563  0.22773  Biso   1.000  C
  H64      1.0000 0.56077  0.68813  0.25253  Biso   1.000  H
  C97      1.0000 0.64487  0.90023  0.21423  Biso   1.000  C
  C98      1.0000 0.74727  0.69343  0.24933  Biso   1.000  C
  H65      1.0000 0.73837  0.71313  0.30253  Biso   1.000  H
  C99      1.0000 0.80187  0.69013  0.25003  Biso   1.000  C
  H66      1.0000 0.82797  0.70373  0.30713  Biso   1.000  H
  O34      1.0000 0.27173  0.23567  0.60747  Biso   1.000  O
  O35      1.0000 0.35363  0.28417  0.49947  Biso   1.000  O
  O36      1.0000 0.57653  0.00877  0.58397  Biso   1.000  O
  C100     1.0000 0.31163  0.05847  0.51257  Biso   1.000  C
  C101     1.0000 0.36133  0.17087  0.48627  Biso   1.000  C
  H67      1.0000 0.39543  0.20827  0.46097  Biso   1.000  H
  C102     1.0000 0.36253  0.11467  0.47407  Biso   1.000  C
  H68      1.0000 0.39633  0.11437  0.44117  Biso   1.000  H
  C103     1.0000 0.31403  0.17467  0.53217  Biso   1.000  C
  C104     1.0000 0.26343  0.11847  0.57257  Biso   1.000  C
  H69      1.0000 0.23063  0.11997  0.60717  Biso   1.000  H
  C105     1.0000 0.26163  0.05897  0.56107  Biso   1.000  C
  H70      1.0000 0.22743  0.02147  0.58587  Biso   1.000  H
  C106     1.0000 0.31153  0.23357  0.54757  Biso   1.000  C
  C107     1.0000 0.41393  0.02677  0.58267  Biso   1.000  C
  H71      1.0000 0.40503  0.04647  0.63587  Biso   1.000  H
  C108     1.0000 0.46853  0.02347  0.58337  Biso   1.000  C
  H72      1.0000 0.49463  0.03707  0.64047  Biso   1.000  H
  O37      1.0000 0.63060  0.06160  0.94080  Biso   1.000  O
  O38      1.0000 0.59720  0.97970  0.83280  Biso   1.000  O
  O39      1.0000 0.09890  0.75680  0.91730  Biso   1.000  O
  C109     1.0000 0.41350  0.02170  0.84590  Biso   1.000  C
  C110     1.0000 0.47620  0.97200  0.81960  Biso   1.000  C
  H73      1.0000 0.47950  0.93790  0.79430  Biso   1.000  H
  C111     1.0000 0.41880  0.97080  0.80740  Biso   1.000  C
  H74      1.0000 0.38470  0.93700  0.77450  Biso   1.000  H
  C112     1.0000 0.52730  0.01930  0.86550  Biso   1.000  C
  C113     1.0000 0.52170  0.06990  0.90590  Biso   1.000  C
  H75      1.0000 0.55600  0.10270  0.94050  Biso   1.000  H
  C114     1.0000 0.46400  0.07170  0.89440  Biso   1.000  C
  H76      1.0000 0.46070  0.10590  0.91920  Biso   1.000  H
  C115     1.0000 0.58870  0.02180  0.88090  Biso   1.000  C
  C116     1.0000 0.27950  0.91940  0.91600  Biso   1.000  C
  H77      1.0000 0.30810  0.92830  0.96920  Biso   1.000  H
  C117     1.0000 0.22160  0.86480  0.91670  Biso   1.000  C
  H78      1.0000 0.20910  0.83870  0.97380  Biso   1.000  H
  O40      1.0000 0.29727  0.39493  0.27413  Biso   1.000  O
  O41      1.0000 0.26387  0.31303  0.16613  Biso   1.000  O
  O42      1.0000 0.76557  0.09013  0.25063  Biso   1.000  O
  C118     1.0000 0.08017  0.35503  0.17923  Biso   1.000  C
  C119     1.0000 0.14287  0.30533  0.15293  Biso   1.000  C
  H79      1.0000 0.14617  0.27123  0.12763  Biso   1.000  H
  C120     1.0000 0.08547  0.30413  0.14073  Biso   1.000  C
  H80      1.0000 0.05137  0.27033  0.10783  Biso   1.000  H
  C121     1.0000 0.19397  0.35263  0.19883  Biso   1.000  C
  C122     1.0000 0.18837  0.40323  0.23923  Biso   1.000  C
  H81      1.0000 0.22267  0.43603  0.27383  Biso   1.000  H
  C123     1.0000 0.13067  0.40503  0.22773  Biso   1.000  C
  H82      1.0000 0.12737  0.43923  0.25253  Biso   1.000  H
  C124     1.0000 0.25537  0.35513  0.21423  Biso   1.000  C
  C125     1.0000 0.94617  0.25273  0.24933  Biso   1.000  C
  H83      1.0000 0.97477  0.26163  0.30253  Biso   1.000  H
  C126     1.0000 0.88827  0.19813  0.25003  Biso   1.000  C
  H84      1.0000 0.87577  0.17203  0.30713  Biso   1.000  H
  O43      1.0000 0.96393  0.72827  0.60747  Biso   1.000  O
  O44      1.0000 0.93053  0.64637  0.49947  Biso   1.000  O
  O45      1.0000 0.43223  0.42347  0.58397  Biso   1.000  O
  C127     1.0000 0.74683  0.68837  0.51257  Biso   1.000  C
  C128     1.0000 0.80953  0.63867  0.48627  Biso   1.000  C
  H85      1.0000 0.81283  0.60457  0.46097  Biso   1.000  H
  C129     1.0000 0.75213  0.63747  0.47407  Biso   1.000  C
  H86      1.0000 0.71803  0.60367  0.44117  Biso   1.000  H
  C130     1.0000 0.86063  0.68597  0.53217  Biso   1.000  C
  C131     1.0000 0.85503  0.73657  0.57257  Biso   1.000  C
  H87      1.0000 0.88933  0.76937  0.60717  Biso   1.000  H
  C132     1.0000 0.79733  0.73837  0.56107  Biso   1.000  C
  H88      1.0000 0.79403  0.77257  0.58587  Biso   1.000  H
  C133     1.0000 0.92203  0.68847  0.54757  Biso   1.000  C
  C134     1.0000 0.61283  0.58607  0.58267  Biso   1.000  C
  H89      1.0000 0.64143  0.59497  0.63587  Biso   1.000  H
  C135     1.0000 0.55493  0.53147  0.58337  Biso   1.000  C
  H90      1.0000 0.54243  0.50537  0.64047  Biso   1.000  H
  O46      1.0000 0.43100  0.36940  0.94080  Biso   1.000  O
  O47      1.0000 0.38250  0.40280  0.83280  Biso   1.000  O
  O48      1.0000 0.65790  0.90110  0.91730  Biso   1.000  O
  C136     1.0000 0.60820  0.58650  0.84590  Biso   1.000  C
  C137     1.0000 0.49580  0.52380  0.81960  Biso   1.000  C
  H91      1.0000 0.45840  0.52050  0.79430  Biso   1.000  H
  C138     1.0000 0.55200  0.58120  0.80740  Biso   1.000  C
  H92      1.0000 0.55230  0.61530  0.77450  Biso   1.000  H
  C139     1.0000 0.49200  0.47270  0.86550  Biso   1.000  C
  C140     1.0000 0.54820  0.47830  0.90590  Biso   1.000  C
  H93      1.0000 0.54670  0.44400  0.94050  Biso   1.000  H
  C141     1.0000 0.60770  0.53600  0.89440  Biso   1.000  C
  H94      1.0000 0.64520  0.53930  0.91920  Biso   1.000  H
  C142     1.0000 0.43310  0.41130  0.88090  Biso   1.000  C
  C143     1.0000 0.63990  0.72050  0.91600  Biso   1.000  C
  H95      1.0000 0.62020  0.69190  0.96920  Biso   1.000  H
  C144     1.0000 0.64320  0.77840  0.91670  Biso   1.000  C
  H96      1.0000 0.62960  0.79090  0.97380  Biso   1.000  H
  O49      1.0000 0.09767  0.70273  0.27413  Biso   1.000  O
  O50      1.0000 0.04917  0.73613  0.16613  Biso   1.000  O
  O51      1.0000 0.32457  0.23443  0.25063  Biso   1.000  O
  C145     1.0000 0.27487  0.91983  0.17923  Biso   1.000  C
  C146     1.0000 0.16247  0.85713  0.15293  Biso   1.000  C
  H97      1.0000 0.12507  0.85383  0.12763  Biso   1.000  H
  C147     1.0000 0.21867  0.91453  0.14073  Biso   1.000  C
  H98      1.0000 0.21897  0.94863  0.10783  Biso   1.000  H
  C148     1.0000 0.15867  0.80603  0.19883  Biso   1.000  C
  C149     1.0000 0.21487  0.81163  0.23923  Biso   1.000  C
  H99      1.0000 0.21337  0.77733  0.27383  Biso   1.000  H
  C150     1.0000 0.27437  0.86933  0.22773  Biso   1.000  C
  H100     1.0000 0.31187  0.87263  0.25253  Biso   1.000  H
  C151     1.0000 0.09977  0.74463  0.21423  Biso   1.000  C
  C152     1.0000 0.30657  0.05383  0.24933  Biso   1.000  C
  H101     1.0000 0.28687  0.02523  0.30253  Biso   1.000  H
  C153     1.0000 0.30987  0.11173  0.25003  Biso   1.000  C
  H102     1.0000 0.29627  0.12423  0.30713  Biso   1.000  H
  O52      1.0000 0.76433  0.03607  0.60747  Biso   1.000  O
  O53      1.0000 0.71583  0.06947  0.49947  Biso   1.000  O
  O54      1.0000 0.99123  0.56777  0.58397  Biso   1.000  O
  C154     1.0000 0.94153  0.25317  0.51257  Biso   1.000  C
  C155     1.0000 0.82913  0.19047  0.48627  Biso   1.000  C
  H103     1.0000 0.79173  0.18717  0.46097  Biso   1.000  H
  C156     1.0000 0.88533  0.24787  0.47407  Biso   1.000  C
  H104     1.0000 0.88563  0.28197  0.44117  Biso   1.000  H
  C157     1.0000 0.82533  0.13937  0.53217  Biso   1.000  C
  C158     1.0000 0.88153  0.14497  0.57257  Biso   1.000  C
  H105     1.0000 0.88003  0.11067  0.60717  Biso   1.000  H
  C159     1.0000 0.94103  0.20267  0.56107  Biso   1.000  C
  H106     1.0000 0.97853  0.20597  0.58587  Biso   1.000  H
  C160     1.0000 0.76643  0.07797  0.54757  Biso   1.000  C
  C161     1.0000 0.97323  0.38717  0.58267  Biso   1.000  C
  H107     1.0000 0.95353  0.35857  0.63587  Biso   1.000  H
  C162     1.0000 0.97653  0.44507  0.58337  Biso   1.000  C
  H108     1.0000 0.96293  0.45757  0.64047  Biso   1.000  H
  Ce1      1.0000 0.68414  0.00000  0.00000  Biso   1.000  Ce
  Ce2      1.0000 0.35081  0.33333  0.33333  Biso   1.000  Ce
  Ce3      1.0000 0.01747  0.66667  0.66667  Biso   1.000  Ce
  Ce4      1.0000 0.00000  0.68414  0.00000  Biso   1.000  Ce
  Ce5      1.0000 0.66667  0.01747  0.33333  Biso   1.000  Ce
  Ce6      1.0000 0.33333  0.35081  0.66667  Biso   1.000  Ce
  Ce7      1.0000 0.31586  0.31586  0.00000  Biso   1.000  Ce
  Ce8      1.0000 0.98253  0.64919  0.33333  Biso   1.000  Ce
  Ce9      1.0000 0.64919  0.98253  0.66667  Biso   1.000  Ce
  N1       1.0000 0.33333  0.97692  0.16667  Biso   1.000  N
  C163     1.0000 0.33333  0.03742  0.16667  Biso   1.000  C
  C164     1.0000 0.33333  0.15252  0.16667  Biso   1.000  C
  C165     1.0000 0.33333  0.21482  0.16667  Biso   1.000  C
  N2       1.0000 0.00000  0.31025  0.50000  Biso   1.000  N
  C166     1.0000 0.00000  0.37075  0.50000  Biso   1.000  C
  C167     1.0000 0.00000  0.48585  0.50000  Biso   1.000  C
  C168     1.0000 0.00000  0.54815  0.50000  Biso   1.000  C
  N3       1.0000 0.02308  0.35642  0.16667  Biso   1.000  N
  C169     1.0000 0.96258  0.29592  0.16667  Biso   1.000  C
  C170     1.0000 0.84748  0.18082  0.16667  Biso   1.000  C
  C171     1.0000 0.78518  0.11852  0.16667  Biso   1.000  C
  N4       1.0000 0.68975  0.68975  0.50000  Biso   1.000  N
  C172     1.0000 0.62925  0.62925  0.50000  Biso   1.000  C
  C173     1.0000 0.51415  0.51415  0.50000  Biso   1.000  C
  C174     1.0000 0.45185  0.45185  0.50000  Biso   1.000  C
  N5       1.0000 0.64358  0.66667  0.16667  Biso   1.000  N
  C175     1.0000 0.70408  0.66667  0.16667  Biso   1.000  C
  C176     1.0000 0.81918  0.66667  0.16667  Biso   1.000  C
  C177     1.0000 0.88148  0.66667  0.16667  Biso   1.000  C
  N6       1.0000 0.31025  0.00000  0.50000  Biso   1.000  N
  C178     1.0000 0.37075  0.00000  0.50000  Biso   1.000  C
  C179     1.0000 0.48585  0.00000  0.50000  Biso   1.000  C
  C180     1.0000 0.54815  0.00000  0.50000  Biso   1.000  C
  N7       1.0000 0.97692  0.33333  0.83333  Biso   1.000  N
  C181     1.0000 0.03742  0.33333  0.83333  Biso   1.000  C
  C182     1.0000 0.15252  0.33333  0.83333  Biso   1.000  C
  C183     1.0000 0.21482  0.33333  0.83333  Biso   1.000  C
  N8       1.0000 0.35642  0.02308  0.83333  Biso   1.000  N
  C184     1.0000 0.29592  0.96258  0.83333  Biso   1.000  C
  C185     1.0000 0.18082  0.84748  0.83333  Biso   1.000  C
  C186     1.0000 0.11852  0.78518  0.83333  Biso   1.000  C
  N9       1.0000 0.66667  0.64358  0.83333  Biso   1.000  N
  C187     1.0000 0.66667  0.70408  0.83333  Biso   1.000  C
  C188     1.0000 0.66667  0.81918  0.83333  Biso   1.000  C
  C189     1.0000 0.66667  0.88148  0.83333  Biso   1.000  C
