data_image0
_cell_length_a       28.32
_cell_length_b       28.32
_cell_length_c       12.835
_cell_angle_alpha    90
_cell_angle_beta     90
_cell_angle_gamma    120

_symmetry_space_group_name_H-M    "P 1"
_symmetry_int_tables_number       1

loop_
  _symmetry_equiv_pos_as_xyz
  'x, y, z'

loop_
  _atom_site_label
  _atom_site_occupancy
  _atom_site_fract_x
  _atom_site_fract_y
  _atom_site_fract_z
  _atom_site_thermal_displace_type
  _atom_site_B_iso_or_equiv
  _atom_site_type_symbol
  O1       1.0000 0.31352  0.06760  0.24209  Biso   1.000  O
  O2       1.0000 0.04293  0.31024  0.19712  Biso   1.000  O
  O3       1.0000 0.08196  0.38617  0.10584  Biso   1.000  O
  C1       1.0000 0.29538  0.15668  0.22403  Biso   1.000  C
  C2       1.0000 0.29538  0.20505  0.22403  Biso   1.000  C
  C3       1.0000 0.28498  0.29978  0.16396  Biso   1.000  C
  C4       1.0000 0.28498  0.34817  0.16396  Biso   1.000  C
  C5       1.0000 0.23345  0.34817  0.16107  Biso   1.000  C
  C6       1.0000 0.18843  0.30767  0.21030  Biso   1.000  C
  C7       1.0000 0.14008  0.30768  0.20759  Biso   1.000  C
  C8       1.0000 0.13674  0.34819  0.15564  Biso   1.000  C
  C9       1.0000 0.18175  0.38869  0.10641  Biso   1.000  C
  C10      1.0000 0.23011  0.38867  0.10912  Biso   1.000  C
  C11      1.0000 0.08486  0.34820  0.15273  Biso   1.000  C
  H1       1.0000 0.26768  0.12517  0.26591  Biso   1.000  H
  H2       1.0000 0.26768  0.20886  0.26591  Biso   1.000  H
  H3       1.0000 0.24968  0.26448  0.16197  Biso   1.000  H
  H4       1.0000 0.19087  0.27812  0.24822  Biso   1.000  H
  H5       1.0000 0.10722  0.27813  0.24353  Biso   1.000  H
  H6       1.0000 0.17931  0.41824  0.06849  Biso   1.000  H
  H7       1.0000 0.26296  0.41823  0.07318  Biso   1.000  H
  O4       1.0000 0.98019  0.40093  0.57542  Biso   1.000  O
  O5       1.0000 0.70960  0.64357  0.53045  Biso   1.000  O
  O6       1.0000 0.74863  0.71950  0.43917  Biso   1.000  O
  C12      1.0000 0.96205  0.49001  0.55736  Biso   1.000  C
  C13      1.0000 0.96205  0.53838  0.55736  Biso   1.000  C
  C14      1.0000 0.95165  0.63311  0.49729  Biso   1.000  C
  C15      1.0000 0.95165  0.68150  0.49729  Biso   1.000  C
  C16      1.0000 0.90012  0.68150  0.49440  Biso   1.000  C
  C17      1.0000 0.85510  0.64100  0.54363  Biso   1.000  C
  C18      1.0000 0.80675  0.64101  0.54092  Biso   1.000  C
  C19      1.0000 0.80341  0.68152  0.48897  Biso   1.000  C
  C20      1.0000 0.84842  0.72202  0.43974  Biso   1.000  C
  C21      1.0000 0.89678  0.72200  0.44245  Biso   1.000  C
  C22      1.0000 0.75153  0.68153  0.48606  Biso   1.000  C
  H8       1.0000 0.93435  0.45850  0.59924  Biso   1.000  H
  H9       1.0000 0.93435  0.54219  0.59924  Biso   1.000  H
  H10      1.0000 0.91635  0.59781  0.49530  Biso   1.000  H
  H11      1.0000 0.85754  0.61145  0.58155  Biso   1.000  H
  H12      1.0000 0.77389  0.61146  0.57686  Biso   1.000  H
  H13      1.0000 0.84598  0.75157  0.40182  Biso   1.000  H
  H14      1.0000 0.92963  0.75156  0.40651  Biso   1.000  H
  O7       1.0000 0.64685  0.73427  0.90876  Biso   1.000  O
  O8       1.0000 0.37626  0.97691  0.86379  Biso   1.000  O
  O9       1.0000 0.41529  0.05284  0.77251  Biso   1.000  O
  C23      1.0000 0.62871  0.82335  0.89070  Biso   1.000  C
  C24      1.0000 0.62871  0.87172  0.89070  Biso   1.000  C
  C25      1.0000 0.61831  0.96645  0.83063  Biso   1.000  C
  C26      1.0000 0.61831  0.01484  0.83063  Biso   1.000  C
  C27      1.0000 0.56678  0.01484  0.82774  Biso   1.000  C
  C28      1.0000 0.52176  0.97434  0.87697  Biso   1.000  C
  C29      1.0000 0.47341  0.97435  0.87426  Biso   1.000  C
  C30      1.0000 0.47007  0.01486  0.82231  Biso   1.000  C
  C31      1.0000 0.51508  0.05536  0.77308  Biso   1.000  C
  C32      1.0000 0.56344  0.05534  0.77579  Biso   1.000  C
  C33      1.0000 0.41819  0.01487  0.81940  Biso   1.000  C
  H15      1.0000 0.60101  0.79184  0.93258  Biso   1.000  H
  H16      1.0000 0.60101  0.87553  0.93258  Biso   1.000  H
  H17      1.0000 0.58301  0.93115  0.82864  Biso   1.000  H
  H18      1.0000 0.52420  0.94479  0.91489  Biso   1.000  H
  H19      1.0000 0.44055  0.94480  0.91020  Biso   1.000  H
  H20      1.0000 0.51264  0.08491  0.73516  Biso   1.000  H
  H21      1.0000 0.59629  0.08490  0.73985  Biso   1.000  H
  O10      1.0000 0.93240  0.24592  0.24209  Biso   1.000  O
  O11      1.0000 0.68976  0.73269  0.19712  Biso   1.000  O
  O12      1.0000 0.61383  0.69579  0.10584  Biso   1.000  O
  C34      1.0000 0.84332  0.13870  0.22403  Biso   1.000  C
  C35      1.0000 0.79495  0.09033  0.22403  Biso   1.000  C
  C36      1.0000 0.70022  0.98520  0.16396  Biso   1.000  C
  C37      1.0000 0.65183  0.93681  0.16396  Biso   1.000  C
  C38      1.0000 0.65183  0.88528  0.16107  Biso   1.000  C
  C39      1.0000 0.69233  0.88076  0.21030  Biso   1.000  C
  C40      1.0000 0.69232  0.83240  0.20759  Biso   1.000  C
  C41      1.0000 0.65181  0.78855  0.15564  Biso   1.000  C
  C42      1.0000 0.61131  0.79306  0.10641  Biso   1.000  C
  C43      1.0000 0.61133  0.84144  0.10912  Biso   1.000  C
  C44      1.0000 0.65180  0.73666  0.15273  Biso   1.000  C
  H22      1.0000 0.87483  0.14251  0.26591  Biso   1.000  H
  H23      1.0000 0.79114  0.05882  0.26591  Biso   1.000  H
  H24      1.0000 0.73552  0.98520  0.16197  Biso   1.000  H
  H25      1.0000 0.72188  0.91275  0.24822  Biso   1.000  H
  H26      1.0000 0.72187  0.82909  0.24353  Biso   1.000  H
  H27      1.0000 0.58176  0.76107  0.06849  Biso   1.000  H
  H28      1.0000 0.58177  0.84473  0.07318  Biso   1.000  H
  O13      1.0000 0.59907  0.57925  0.57542  Biso   1.000  O
  O14      1.0000 0.35643  0.06602  0.53045  Biso   1.000  O
  O15      1.0000 0.28050  0.02912  0.43917  Biso   1.000  O
  C45      1.0000 0.50999  0.47203  0.55736  Biso   1.000  C
  C46      1.0000 0.46162  0.42366  0.55736  Biso   1.000  C
  C47      1.0000 0.36689  0.31853  0.49729  Biso   1.000  C
  C48      1.0000 0.31850  0.27014  0.49729  Biso   1.000  C
  C49      1.0000 0.31850  0.21861  0.49440  Biso   1.000  C
  C50      1.0000 0.35900  0.21409  0.54363  Biso   1.000  C
  C51      1.0000 0.35899  0.16573  0.54092  Biso   1.000  C
  C52      1.0000 0.31848  0.12188  0.48897  Biso   1.000  C
  C53      1.0000 0.27798  0.12639  0.43974  Biso   1.000  C
  C54      1.0000 0.27800  0.17477  0.44245  Biso   1.000  C
  C55      1.0000 0.31847  0.06999  0.48606  Biso   1.000  C
  H29      1.0000 0.54150  0.47584  0.59924  Biso   1.000  H
  H30      1.0000 0.45781  0.39215  0.59924  Biso   1.000  H
  H31      1.0000 0.40219  0.31853  0.49530  Biso   1.000  H
  H32      1.0000 0.38855  0.24608  0.58155  Biso   1.000  H
  H33      1.0000 0.38854  0.16242  0.57686  Biso   1.000  H
  H34      1.0000 0.24843  0.09440  0.40182  Biso   1.000  H
  H35      1.0000 0.24844  0.17806  0.40651  Biso   1.000  H
  O16      1.0000 0.26573  0.91259  0.90876  Biso   1.000  O
  O17      1.0000 0.02309  0.39936  0.86379  Biso   1.000  O
  O18      1.0000 0.94716  0.36246  0.77251  Biso   1.000  O
  C56      1.0000 0.17665  0.80537  0.89070  Biso   1.000  C
  C57      1.0000 0.12828  0.75700  0.89070  Biso   1.000  C
  C58      1.0000 0.03355  0.65187  0.83063  Biso   1.000  C
  C59      1.0000 0.98516  0.60348  0.83063  Biso   1.000  C
  C60      1.0000 0.98516  0.55195  0.82774  Biso   1.000  C
  C61      1.0000 0.02566  0.54743  0.87697  Biso   1.000  C
  C62      1.0000 0.02565  0.49907  0.87426  Biso   1.000  C
  C63      1.0000 0.98514  0.45522  0.82231  Biso   1.000  C
  C64      1.0000 0.94464  0.45973  0.77308  Biso   1.000  C
  C65      1.0000 0.94466  0.50811  0.77579  Biso   1.000  C
  C66      1.0000 0.98513  0.40333  0.81940  Biso   1.000  C
  H36      1.0000 0.20816  0.80918  0.93258  Biso   1.000  H
  H37      1.0000 0.12447  0.72549  0.93258  Biso   1.000  H
  H38      1.0000 0.06885  0.65187  0.82864  Biso   1.000  H
  H39      1.0000 0.05521  0.57942  0.91489  Biso   1.000  H
  H40      1.0000 0.05520  0.49576  0.91020  Biso   1.000  H
  H41      1.0000 0.91509  0.42774  0.73516  Biso   1.000  H
  H42      1.0000 0.91510  0.51140  0.73985  Biso   1.000  H
  O19      1.0000 0.75408  0.68648  0.24209  Biso   1.000  O
  O20      1.0000 0.26731  0.95707  0.19712  Biso   1.000  O
  O21      1.0000 0.30421  0.91804  0.10584  Biso   1.000  O
  C67      1.0000 0.86130  0.70462  0.22403  Biso   1.000  C
  C68      1.0000 0.90967  0.70462  0.22403  Biso   1.000  C
  C69      1.0000 0.01480  0.71502  0.16396  Biso   1.000  C
  C70      1.0000 0.06319  0.71502  0.16396  Biso   1.000  C
  C71      1.0000 0.11472  0.76655  0.16107  Biso   1.000  C
  C72      1.0000 0.11924  0.81157  0.21030  Biso   1.000  C
  C73      1.0000 0.16760  0.85992  0.20759  Biso   1.000  C
  C74      1.0000 0.21145  0.86326  0.15564  Biso   1.000  C
  C75      1.0000 0.20694  0.81825  0.10641  Biso   1.000  C
  C76      1.0000 0.15856  0.76989  0.10912  Biso   1.000  C
  C77      1.0000 0.26334  0.91514  0.15273  Biso   1.000  C
  H43      1.0000 0.85749  0.73232  0.26591  Biso   1.000  H
  H44      1.0000 0.94118  0.73232  0.26591  Biso   1.000  H
  H45      1.0000 0.01480  0.75032  0.16197  Biso   1.000  H
  H46      1.0000 0.08725  0.80913  0.24822  Biso   1.000  H
  H47      1.0000 0.17091  0.89278  0.24353  Biso   1.000  H
  H48      1.0000 0.23893  0.82069  0.06849  Biso   1.000  H
  H49      1.0000 0.15527  0.73704  0.07318  Biso   1.000  H
  O22      1.0000 0.42075  0.01981  0.57542  Biso   1.000  O
  O23      1.0000 0.93398  0.29040  0.53045  Biso   1.000  O
  O24      1.0000 0.97088  0.25137  0.43917  Biso   1.000  O
  C78      1.0000 0.52797  0.03795  0.55736  Biso   1.000  C
  C79      1.0000 0.57634  0.03795  0.55736  Biso   1.000  C
  C80      1.0000 0.68147  0.04835  0.49729  Biso   1.000  C
  C81      1.0000 0.72986  0.04835  0.49729  Biso   1.000  C
  C82      1.0000 0.78139  0.09988  0.49440  Biso   1.000  C
  C83      1.0000 0.78591  0.14490  0.54363  Biso   1.000  C
  C84      1.0000 0.83427  0.19325  0.54092  Biso   1.000  C
  C85      1.0000 0.87812  0.19659  0.48897  Biso   1.000  C
  C86      1.0000 0.87361  0.15158  0.43974  Biso   1.000  C
  C87      1.0000 0.82523  0.10322  0.44245  Biso   1.000  C
  C88      1.0000 0.93001  0.24847  0.48606  Biso   1.000  C
  H50      1.0000 0.52416  0.06565  0.59924  Biso   1.000  H
  H51      1.0000 0.60785  0.06565  0.59924  Biso   1.000  H
  H52      1.0000 0.68147  0.08365  0.49530  Biso   1.000  H
  H53      1.0000 0.75392  0.14246  0.58155  Biso   1.000  H
  H54      1.0000 0.83758  0.22611  0.57686  Biso   1.000  H
  H55      1.0000 0.90560  0.15402  0.40182  Biso   1.000  H
  H56      1.0000 0.82194  0.07037  0.40651  Biso   1.000  H
  O25      1.0000 0.08741  0.35315  0.90876  Biso   1.000  O
  O26      1.0000 0.60064  0.62374  0.86379  Biso   1.000  O
  O27      1.0000 0.63754  0.58471  0.77251  Biso   1.000  O
  C89      1.0000 0.19463  0.37129  0.89070  Biso   1.000  C
  C90      1.0000 0.24300  0.37129  0.89070  Biso   1.000  C
  C91      1.0000 0.34813  0.38169  0.83063  Biso   1.000  C
  C92      1.0000 0.39652  0.38169  0.83063  Biso   1.000  C
  C93      1.0000 0.44805  0.43322  0.82774  Biso   1.000  C
  C94      1.0000 0.45257  0.47824  0.87697  Biso   1.000  C
  C95      1.0000 0.50093  0.52659  0.87426  Biso   1.000  C
  C96      1.0000 0.54478  0.52993  0.82231  Biso   1.000  C
  C97      1.0000 0.54027  0.48492  0.77308  Biso   1.000  C
  C98      1.0000 0.49189  0.43656  0.77579  Biso   1.000  C
  C99      1.0000 0.59667  0.58181  0.81940  Biso   1.000  C
  H57      1.0000 0.19082  0.39899  0.93258  Biso   1.000  H
  H58      1.0000 0.27451  0.39899  0.93258  Biso   1.000  H
  H59      1.0000 0.34813  0.41699  0.82864  Biso   1.000  H
  H60      1.0000 0.42058  0.47580  0.91489  Biso   1.000  H
  H61      1.0000 0.50424  0.55945  0.91020  Biso   1.000  H
  H62      1.0000 0.57226  0.48736  0.73516  Biso   1.000  H
  H63      1.0000 0.48860  0.40371  0.73985  Biso   1.000  H
  O28      1.0000 0.06760  0.31352  0.75791  Biso   1.000  O
  O29      1.0000 0.31024  0.04293  0.80288  Biso   1.000  O
  O30      1.0000 0.38617  0.08196  0.89416  Biso   1.000  O
  C100     1.0000 0.15668  0.29538  0.77597  Biso   1.000  C
  C101     1.0000 0.20505  0.29538  0.77597  Biso   1.000  C
  C102     1.0000 0.29978  0.28498  0.83604  Biso   1.000  C
  C103     1.0000 0.34817  0.28498  0.83604  Biso   1.000  C
  C104     1.0000 0.34817  0.23345  0.83893  Biso   1.000  C
  C105     1.0000 0.30767  0.18843  0.78970  Biso   1.000  C
  C106     1.0000 0.30768  0.14008  0.79241  Biso   1.000  C
  C107     1.0000 0.34819  0.13674  0.84436  Biso   1.000  C
  C108     1.0000 0.38869  0.18175  0.89359  Biso   1.000  C
  C109     1.0000 0.38867  0.23011  0.89088  Biso   1.000  C
  C110     1.0000 0.34820  0.08486  0.84727  Biso   1.000  C
  H64      1.0000 0.12517  0.26768  0.73409  Biso   1.000  H
  H65      1.0000 0.20886  0.26768  0.73409  Biso   1.000  H
  H66      1.0000 0.26448  0.24968  0.83803  Biso   1.000  H
  H67      1.0000 0.27812  0.19087  0.75178  Biso   1.000  H
  H68      1.0000 0.27813  0.10722  0.75647  Biso   1.000  H
  H69      1.0000 0.41824  0.17931  0.93151  Biso   1.000  H
  H70      1.0000 0.41823  0.26296  0.92682  Biso   1.000  H
  O31      1.0000 0.73427  0.64685  0.09124  Biso   1.000  O
  O32      1.0000 0.97691  0.37626  0.13621  Biso   1.000  O
  O33      1.0000 0.05284  0.41529  0.22749  Biso   1.000  O
  C111     1.0000 0.82335  0.62871  0.10930  Biso   1.000  C
  C112     1.0000 0.87172  0.62871  0.10930  Biso   1.000  C
  C113     1.0000 0.96645  0.61831  0.16937  Biso   1.000  C
  C114     1.0000 0.01484  0.61831  0.16937  Biso   1.000  C
  C115     1.0000 0.01484  0.56678  0.17226  Biso   1.000  C
  C116     1.0000 0.97434  0.52176  0.12303  Biso   1.000  C
  C117     1.0000 0.97435  0.47341  0.12574  Biso   1.000  C
  C118     1.0000 0.01486  0.47007  0.17769  Biso   1.000  C
  C119     1.0000 0.05536  0.51508  0.22692  Biso   1.000  C
  C120     1.0000 0.05534  0.56344  0.22421  Biso   1.000  C
  C121     1.0000 0.01487  0.41819  0.18060  Biso   1.000  C
  H71      1.0000 0.79184  0.60101  0.06742  Biso   1.000  H
  H72      1.0000 0.87553  0.60101  0.06742  Biso   1.000  H
  H73      1.0000 0.93115  0.58301  0.17136  Biso   1.000  H
  H74      1.0000 0.94479  0.52420  0.08511  Biso   1.000  H
  H75      1.0000 0.94480  0.44055  0.08980  Biso   1.000  H
  H76      1.0000 0.08491  0.51264  0.26484  Biso   1.000  H
  H77      1.0000 0.08490  0.59629  0.26015  Biso   1.000  H
  O34      1.0000 0.40093  0.98019  0.42458  Biso   1.000  O
  O35      1.0000 0.64357  0.70960  0.46955  Biso   1.000  O
  O36      1.0000 0.71950  0.74863  0.56083  Biso   1.000  O
  C122     1.0000 0.49001  0.96205  0.44264  Biso   1.000  C
  C123     1.0000 0.53838  0.96205  0.44264  Biso   1.000  C
  C124     1.0000 0.63311  0.95165  0.50271  Biso   1.000  C
  C125     1.0000 0.68150  0.95165  0.50271  Biso   1.000  C
  C126     1.0000 0.68150  0.90012  0.50560  Biso   1.000  C
  C127     1.0000 0.64100  0.85510  0.45637  Biso   1.000  C
  C128     1.0000 0.64101  0.80675  0.45908  Biso   1.000  C
  C129     1.0000 0.68152  0.80341  0.51103  Biso   1.000  C
  C130     1.0000 0.72202  0.84842  0.56026  Biso   1.000  C
  C131     1.0000 0.72200  0.89678  0.55755  Biso   1.000  C
  C132     1.0000 0.68153  0.75153  0.51394  Biso   1.000  C
  H78      1.0000 0.45850  0.93435  0.40076  Biso   1.000  H
  H79      1.0000 0.54219  0.93435  0.40076  Biso   1.000  H
  H80      1.0000 0.59781  0.91635  0.50470  Biso   1.000  H
  H81      1.0000 0.61145  0.85754  0.41845  Biso   1.000  H
  H82      1.0000 0.61146  0.77389  0.42314  Biso   1.000  H
  H83      1.0000 0.75157  0.84598  0.59818  Biso   1.000  H
  H84      1.0000 0.75156  0.92963  0.59349  Biso   1.000  H
  O37      1.0000 0.24592  0.93240  0.75791  Biso   1.000  O
  O38      1.0000 0.73269  0.68976  0.80288  Biso   1.000  O
  O39      1.0000 0.69579  0.61383  0.89416  Biso   1.000  O
  C133     1.0000 0.13870  0.84332  0.77597  Biso   1.000  C
  C134     1.0000 0.09033  0.79495  0.77597  Biso   1.000  C
  C135     1.0000 0.98520  0.70022  0.83604  Biso   1.000  C
  C136     1.0000 0.93681  0.65183  0.83604  Biso   1.000  C
  C137     1.0000 0.88528  0.65183  0.83893  Biso   1.000  C
  C138     1.0000 0.88076  0.69233  0.78970  Biso   1.000  C
  C139     1.0000 0.83240  0.69232  0.79241  Biso   1.000  C
  C140     1.0000 0.78855  0.65181  0.84436  Biso   1.000  C
  C141     1.0000 0.79306  0.61131  0.89359  Biso   1.000  C
  C142     1.0000 0.84144  0.61133  0.89088  Biso   1.000  C
  C143     1.0000 0.73666  0.65180  0.84727  Biso   1.000  C
  H85      1.0000 0.14251  0.87483  0.73409  Biso   1.000  H
  H86      1.0000 0.05882  0.79114  0.73409  Biso   1.000  H
  H87      1.0000 0.98520  0.73552  0.83803  Biso   1.000  H
  H88      1.0000 0.91275  0.72188  0.75178  Biso   1.000  H
  H89      1.0000 0.82909  0.72187  0.75647  Biso   1.000  H
  H90      1.0000 0.76107  0.58176  0.93151  Biso   1.000  H
  H91      1.0000 0.84473  0.58177  0.92682  Biso   1.000  H
  O40      1.0000 0.91259  0.26573  0.09124  Biso   1.000  O
  O41      1.0000 0.39936  0.02309  0.13621  Biso   1.000  O
  O42      1.0000 0.36246  0.94716  0.22749  Biso   1.000  O
  C144     1.0000 0.80537  0.17665  0.10930  Biso   1.000  C
  C145     1.0000 0.75700  0.12828  0.10930  Biso   1.000  C
  C146     1.0000 0.65187  0.03355  0.16937  Biso   1.000  C
  C147     1.0000 0.60348  0.98516  0.16937  Biso   1.000  C
  C148     1.0000 0.55195  0.98516  0.17226  Biso   1.000  C
  C149     1.0000 0.54743  0.02566  0.12303  Biso   1.000  C
  C150     1.0000 0.49907  0.02565  0.12574  Biso   1.000  C
  C151     1.0000 0.45522  0.98514  0.17769  Biso   1.000  C
  C152     1.0000 0.45973  0.94464  0.22692  Biso   1.000  C
  C153     1.0000 0.50811  0.94466  0.22421  Biso   1.000  C
  C154     1.0000 0.40333  0.98513  0.18060  Biso   1.000  C
  H92      1.0000 0.80918  0.20816  0.06742  Biso   1.000  H
  H93      1.0000 0.72549  0.12447  0.06742  Biso   1.000  H
  H94      1.0000 0.65187  0.06885  0.17136  Biso   1.000  H
  H95      1.0000 0.57942  0.05521  0.08511  Biso   1.000  H
  H96      1.0000 0.49576  0.05520  0.08980  Biso   1.000  H
  H97      1.0000 0.42774  0.91509  0.26484  Biso   1.000  H
  H98      1.0000 0.51140  0.91510  0.26015  Biso   1.000  H
  O43      1.0000 0.57925  0.59907  0.42458  Biso   1.000  O
  O44      1.0000 0.06602  0.35643  0.46955  Biso   1.000  O
  O45      1.0000 0.02912  0.28050  0.56083  Biso   1.000  O
  C155     1.0000 0.47203  0.50999  0.44264  Biso   1.000  C
  C156     1.0000 0.42366  0.46162  0.44264  Biso   1.000  C
  C157     1.0000 0.31853  0.36689  0.50271  Biso   1.000  C
  C158     1.0000 0.27014  0.31850  0.50271  Biso   1.000  C
  C159     1.0000 0.21861  0.31850  0.50560  Biso   1.000  C
  C160     1.0000 0.21409  0.35900  0.45637  Biso   1.000  C
  C161     1.0000 0.16573  0.35899  0.45908  Biso   1.000  C
  C162     1.0000 0.12188  0.31848  0.51103  Biso   1.000  C
  C163     1.0000 0.12639  0.27798  0.56026  Biso   1.000  C
  C164     1.0000 0.17477  0.27800  0.55755  Biso   1.000  C
  C165     1.0000 0.06999  0.31847  0.51394  Biso   1.000  C
  H99      1.0000 0.47584  0.54150  0.40076  Biso   1.000  H
  H100     1.0000 0.39215  0.45781  0.40076  Biso   1.000  H
  H101     1.0000 0.31853  0.40219  0.50470  Biso   1.000  H
  H102     1.0000 0.24608  0.38855  0.41845  Biso   1.000  H
  H103     1.0000 0.16242  0.38854  0.42314  Biso   1.000  H
  H104     1.0000 0.09440  0.24843  0.59818  Biso   1.000  H
  H105     1.0000 0.17806  0.24844  0.59349  Biso   1.000  H
  O46      1.0000 0.68648  0.75408  0.75791  Biso   1.000  O
  O47      1.0000 0.95707  0.26731  0.80288  Biso   1.000  O
  O48      1.0000 0.91804  0.30421  0.89416  Biso   1.000  O
  C166     1.0000 0.70462  0.86130  0.77597  Biso   1.000  C
  C167     1.0000 0.70462  0.90967  0.77597  Biso   1.000  C
  C168     1.0000 0.71502  0.01480  0.83604  Biso   1.000  C
  C169     1.0000 0.71502  0.06319  0.83604  Biso   1.000  C
  C170     1.0000 0.76655  0.11472  0.83893  Biso   1.000  C
  C171     1.0000 0.81157  0.11924  0.78970  Biso   1.000  C
  C172     1.0000 0.85992  0.16760  0.79241  Biso   1.000  C
  C173     1.0000 0.86326  0.21145  0.84436  Biso   1.000  C
  C174     1.0000 0.81825  0.20694  0.89359  Biso   1.000  C
  C175     1.0000 0.76989  0.15856  0.89088  Biso   1.000  C
  C176     1.0000 0.91514  0.26334  0.84727  Biso   1.000  C
  H106     1.0000 0.73232  0.85749  0.73409  Biso   1.000  H
  H107     1.0000 0.73232  0.94118  0.73409  Biso   1.000  H
  H108     1.0000 0.75032  0.01480  0.83803  Biso   1.000  H
  H109     1.0000 0.80913  0.08725  0.75178  Biso   1.000  H
  H110     1.0000 0.89278  0.17091  0.75647  Biso   1.000  H
  H111     1.0000 0.82069  0.23893  0.93151  Biso   1.000  H
  H112     1.0000 0.73704  0.15527  0.92682  Biso   1.000  H
  O49      1.0000 0.35315  0.08741  0.09124  Biso   1.000  O
  O50      1.0000 0.62374  0.60064  0.13621  Biso   1.000  O
  O51      1.0000 0.58471  0.63754  0.22749  Biso   1.000  O
  C177     1.0000 0.37129  0.19463  0.10930  Biso   1.000  C
  C178     1.0000 0.37129  0.24300  0.10930  Biso   1.000  C
  C179     1.0000 0.38169  0.34813  0.16937  Biso   1.000  C
  C180     1.0000 0.38169  0.39652  0.16937  Biso   1.000  C
  C181     1.0000 0.43322  0.44805  0.17226  Biso   1.000  C
  C182     1.0000 0.47824  0.45257  0.12303  Biso   1.000  C
  C183     1.0000 0.52659  0.50093  0.12574  Biso   1.000  C
  C184     1.0000 0.52993  0.54478  0.17769  Biso   1.000  C
  C185     1.0000 0.48492  0.54027  0.22692  Biso   1.000  C
  C186     1.0000 0.43656  0.49189  0.22421  Biso   1.000  C
  C187     1.0000 0.58181  0.59667  0.18060  Biso   1.000  C
  H113     1.0000 0.39899  0.19082  0.06742  Biso   1.000  H
  H114     1.0000 0.39899  0.27451  0.06742  Biso   1.000  H
  H115     1.0000 0.41699  0.34813  0.17136  Biso   1.000  H
  H116     1.0000 0.47580  0.42058  0.08511  Biso   1.000  H
  H117     1.0000 0.55945  0.50424  0.08980  Biso   1.000  H
  H118     1.0000 0.48736  0.57226  0.26484  Biso   1.000  H
  H119     1.0000 0.40371  0.48860  0.26015  Biso   1.000  H
  O52      1.0000 0.01981  0.42075  0.42458  Biso   1.000  O
  O53      1.0000 0.29040  0.93398  0.46955  Biso   1.000  O
  O54      1.0000 0.25137  0.97088  0.56083  Biso   1.000  O
  C188     1.0000 0.03795  0.52797  0.44264  Biso   1.000  C
  C189     1.0000 0.03795  0.57634  0.44264  Biso   1.000  C
  C190     1.0000 0.04835  0.68147  0.50271  Biso   1.000  C
  C191     1.0000 0.04835  0.72986  0.50271  Biso   1.000  C
  C192     1.0000 0.09988  0.78139  0.50560  Biso   1.000  C
  C193     1.0000 0.14490  0.78591  0.45637  Biso   1.000  C
  C194     1.0000 0.19325  0.83427  0.45908  Biso   1.000  C
  C195     1.0000 0.19659  0.87812  0.51103  Biso   1.000  C
  C196     1.0000 0.15158  0.87361  0.56026  Biso   1.000  C
  C197     1.0000 0.10322  0.82523  0.55755  Biso   1.000  C
  C198     1.0000 0.24847  0.93001  0.51394  Biso   1.000  C
  H120     1.0000 0.06565  0.52416  0.40076  Biso   1.000  H
  H121     1.0000 0.06565  0.60785  0.40076  Biso   1.000  H
  H122     1.0000 0.08365  0.68147  0.50470  Biso   1.000  H
  H123     1.0000 0.14246  0.75392  0.41845  Biso   1.000  H
  H124     1.0000 0.22611  0.83758  0.42314  Biso   1.000  H
  H125     1.0000 0.15402  0.90560  0.59818  Biso   1.000  H
  H126     1.0000 0.07037  0.82194  0.59349  Biso   1.000  H
  La1      1.0000 0.32245  0.00000  0.00000  Biso   1.000  La
  La2      1.0000 0.98912  0.33333  0.33333  Biso   1.000  La
  La3      1.0000 0.65578  0.66667  0.66667  Biso   1.000  La
  La4      1.0000 0.00000  0.32245  0.00000  Biso   1.000  La
  La5      1.0000 0.66667  0.65578  0.33333  Biso   1.000  La
  La6      1.0000 0.33333  0.98912  0.66667  Biso   1.000  La
  La7      1.0000 0.67755  0.67755  0.00000  Biso   1.000  La
  La8      1.0000 0.34422  0.01088  0.33333  Biso   1.000  La
  La9      1.0000 0.01088  0.34422  0.66667  Biso   1.000  La
  C199     1.0000 0.33333  0.09957  0.16667  Biso   1.000  C
  C200     1.0000 0.33333  0.15147  0.16667  Biso   1.000  C
  C201     1.0000 0.33333  0.24823  0.16667  Biso   1.000  C
  C202     1.0000 0.33333  0.29978  0.16667  Biso   1.000  C
  C203     1.0000 0.33333  0.39652  0.16667  Biso   1.000  C
  H127     1.0000 0.33333  0.43183  0.16667  Biso   1.000  H
  C204     1.0000 0.00000  0.43290  0.50000  Biso   1.000  C
  C205     1.0000 0.00000  0.48481  0.50000  Biso   1.000  C
  C206     1.0000 0.00000  0.58157  0.50000  Biso   1.000  C
  C207     1.0000 0.00000  0.63312  0.50000  Biso   1.000  C
  C208     1.0000 0.00000  0.72986  0.50000  Biso   1.000  C
  H128     1.0000 0.00000  0.76517  0.50000  Biso   1.000  H
  C209     1.0000 0.90043  0.23376  0.16667  Biso   1.000  C
  C210     1.0000 0.84853  0.18186  0.16667  Biso   1.000  C
  C211     1.0000 0.75177  0.08510  0.16667  Biso   1.000  C
  C212     1.0000 0.70022  0.03355  0.16667  Biso   1.000  C
  C213     1.0000 0.60348  0.93681  0.16667  Biso   1.000  C
  H129     1.0000 0.56817  0.90150  0.16667  Biso   1.000  H
  C214     1.0000 0.56710  0.56710  0.50000  Biso   1.000  C
  C215     1.0000 0.51519  0.51520  0.50000  Biso   1.000  C
  C216     1.0000 0.41844  0.41844  0.50000  Biso   1.000  C
  C217     1.0000 0.36688  0.36688  0.50000  Biso   1.000  C
  C218     1.0000 0.27014  0.27014  0.50000  Biso   1.000  C
  H130     1.0000 0.23483  0.23483  0.50000  Biso   1.000  H
  C219     1.0000 0.76624  0.66667  0.16667  Biso   1.000  C
  C220     1.0000 0.81814  0.66667  0.16667  Biso   1.000  C
  C221     1.0000 0.91490  0.66667  0.16667  Biso   1.000  C
  C222     1.0000 0.96645  0.66667  0.16667  Biso   1.000  C
  C223     1.0000 0.06319  0.66667  0.16667  Biso   1.000  C
  H131     1.0000 0.09850  0.66667  0.16667  Biso   1.000  H
  C224     1.0000 0.43290  0.00000  0.50000  Biso   1.000  C
  C225     1.0000 0.48481  0.00000  0.50000  Biso   1.000  C
  C226     1.0000 0.58157  0.00000  0.50000  Biso   1.000  C
  C227     1.0000 0.63312  0.00000  0.50000  Biso   1.000  C
  C228     1.0000 0.72986  0.00000  0.50000  Biso   1.000  C
  H132     1.0000 0.76517  0.00000  0.50000  Biso   1.000  H
  C229     1.0000 0.09957  0.33333  0.83333  Biso   1.000  C
  C230     1.0000 0.15147  0.33333  0.83333  Biso   1.000  C
  C231     1.0000 0.24823  0.33333  0.83333  Biso   1.000  C
  C232     1.0000 0.29978  0.33333  0.83333  Biso   1.000  C
  C233     1.0000 0.39652  0.33333  0.83333  Biso   1.000  C
  H133     1.0000 0.43183  0.33333  0.83333  Biso   1.000  H
  C234     1.0000 0.23376  0.90043  0.83333  Biso   1.000  C
  C235     1.0000 0.18186  0.84853  0.83333  Biso   1.000  C
  C236     1.0000 0.08510  0.75177  0.83333  Biso   1.000  C
  C237     1.0000 0.03355  0.70022  0.83333  Biso   1.000  C
  C238     1.0000 0.93681  0.60348  0.83333  Biso   1.000  C
  H134     1.0000 0.90150  0.56817  0.83333  Biso   1.000  H
  C239     1.0000 0.66667  0.76624  0.83333  Biso   1.000  C
  C240     1.0000 0.66667  0.81814  0.83333  Biso   1.000  C
  C241     1.0000 0.66667  0.91490  0.83333  Biso   1.000  C
  C242     1.0000 0.66667  0.96645  0.83333  Biso   1.000  C
  C243     1.0000 0.66667  0.06319  0.83333  Biso   1.000  C
  H135     1.0000 0.66667  0.09850  0.83333  Biso   1.000  H
