data_image0
_cell_length_a       35.242
_cell_length_b       35.242
_cell_length_c       13.493
_cell_angle_alpha    90
_cell_angle_beta     90
_cell_angle_gamma    120

_symmetry_space_group_name_H-M    "P 1"
_symmetry_int_tables_number       1

loop_
  _symmetry_equiv_pos_as_xyz
  'x, y, z'

loop_
  _atom_site_label
  _atom_site_occupancy
  _atom_site_fract_x
  _atom_site_fract_y
  _atom_site_fract_z
  _atom_site_thermal_displace_type
  _atom_site_B_iso_or_equiv
  _atom_site_type_symbol
  O1       1.0000 0.31302  0.05391  0.10000  Biso   1.000  O
  O2       1.0000 0.04338  0.32977  0.16509  Biso   1.000  O
  O3       1.0000 0.06674  0.38444  0.27937  Biso   1.000  O
  C1       1.0000 0.35355  0.15054  0.24313  Biso   1.000  C
  C2       1.0000 0.35355  0.18942  0.24313  Biso   1.000  C
  C3       1.0000 0.29433  0.31479  0.16890  Biso   1.000  C
  C4       1.0000 0.29433  0.35311  0.16890  Biso   1.000  C
  C5       1.0000 0.25437  0.35526  0.17599  Biso   1.000  C
  C6       1.0000 0.22290  0.35695  0.18157  Biso   1.000  C
  C7       1.0000 0.18376  0.35905  0.18851  Biso   1.000  C
  C8       1.0000 0.14679  0.32799  0.13891  Biso   1.000  C
  C9       1.0000 0.10930  0.33000  0.14556  Biso   1.000  C
  C10      1.0000 0.10987  0.36302  0.20161  Biso   1.000  C
  C11      1.0000 0.14684  0.39408  0.25121  Biso   1.000  C
  C12      1.0000 0.18433  0.39207  0.24456  Biso   1.000  C
  C13      1.0000 0.06991  0.36517  0.20870  Biso   1.000  C
  H1       1.0000 0.36831  0.14241  0.29894  Biso   1.000  H
  H2       1.0000 0.36831  0.20967  0.29894  Biso   1.000  H
  H3       1.0000 0.26586  0.28702  0.17053  Biso   1.000  H
  H4       1.0000 0.14677  0.30387  0.09792  Biso   1.000  H
  H5       1.0000 0.08191  0.30735  0.10943  Biso   1.000  H
  H6       1.0000 0.14686  0.41821  0.29220  Biso   1.000  H
  H7       1.0000 0.21172  0.41472  0.28070  Biso   1.000  H
  O4       1.0000 0.97969  0.38724  0.43333  Biso   1.000  O
  O5       1.0000 0.71005  0.66310  0.49842  Biso   1.000  O
  O6       1.0000 0.73341  0.71777  0.61270  Biso   1.000  O
  C14      1.0000 0.02022  0.48387  0.57646  Biso   1.000  C
  C15      1.0000 0.02022  0.52275  0.57646  Biso   1.000  C
  C16      1.0000 0.96100  0.64812  0.50223  Biso   1.000  C
  C17      1.0000 0.96100  0.68644  0.50223  Biso   1.000  C
  C18      1.0000 0.92104  0.68859  0.50932  Biso   1.000  C
  C19      1.0000 0.88957  0.69028  0.51490  Biso   1.000  C
  C20      1.0000 0.85043  0.69238  0.52184  Biso   1.000  C
  C21      1.0000 0.81346  0.66132  0.47224  Biso   1.000  C
  C22      1.0000 0.77597  0.66333  0.47889  Biso   1.000  C
  C23      1.0000 0.77654  0.69635  0.53494  Biso   1.000  C
  C24      1.0000 0.81351  0.72741  0.58454  Biso   1.000  C
  C25      1.0000 0.85100  0.72540  0.57789  Biso   1.000  C
  C26      1.0000 0.73658  0.69850  0.54203  Biso   1.000  C
  H8       1.0000 0.03498  0.47574  0.63227  Biso   1.000  H
  H9       1.0000 0.03498  0.54300  0.63227  Biso   1.000  H
  H10      1.0000 0.93253  0.62035  0.50386  Biso   1.000  H
  H11      1.0000 0.81344  0.63720  0.43125  Biso   1.000  H
  H12      1.0000 0.74858  0.64068  0.44276  Biso   1.000  H
  H13      1.0000 0.81353  0.75154  0.62553  Biso   1.000  H
  H14      1.0000 0.87839  0.74805  0.61403  Biso   1.000  H
  O7       1.0000 0.64635  0.72058  0.76667  Biso   1.000  O
  O8       1.0000 0.37671  0.99644  0.83176  Biso   1.000  O
  O9       1.0000 0.40007  0.05111  0.94604  Biso   1.000  O
  C27      1.0000 0.68688  0.81721  0.90980  Biso   1.000  C
  C28      1.0000 0.68688  0.85609  0.90980  Biso   1.000  C
  C29      1.0000 0.62766  0.98146  0.83557  Biso   1.000  C
  C30      1.0000 0.62766  0.01978  0.83557  Biso   1.000  C
  C31      1.0000 0.58770  0.02193  0.84266  Biso   1.000  C
  C32      1.0000 0.55623  0.02362  0.84824  Biso   1.000  C
  C33      1.0000 0.51709  0.02572  0.85518  Biso   1.000  C
  C34      1.0000 0.48012  0.99466  0.80558  Biso   1.000  C
  C35      1.0000 0.44263  0.99667  0.81223  Biso   1.000  C
  C36      1.0000 0.44320  0.02969  0.86828  Biso   1.000  C
  C37      1.0000 0.48017  0.06075  0.91788  Biso   1.000  C
  C38      1.0000 0.51766  0.05874  0.91123  Biso   1.000  C
  C39      1.0000 0.40324  0.03184  0.87537  Biso   1.000  C
  H15      1.0000 0.70164  0.80908  0.96561  Biso   1.000  H
  H16      1.0000 0.70164  0.87634  0.96561  Biso   1.000  H
  H17      1.0000 0.59919  0.95369  0.83720  Biso   1.000  H
  H18      1.0000 0.48010  0.97054  0.76459  Biso   1.000  H
  H19      1.0000 0.41524  0.97402  0.77610  Biso   1.000  H
  H20      1.0000 0.48019  0.08488  0.95887  Biso   1.000  H
  H21      1.0000 0.54505  0.08139  0.94737  Biso   1.000  H
  O10      1.0000 0.94609  0.25911  0.10000  Biso   1.000  O
  O11      1.0000 0.67023  0.71361  0.16509  Biso   1.000  O
  O12      1.0000 0.61556  0.68230  0.27937  Biso   1.000  O
  C40      1.0000 0.84946  0.20301  0.24313  Biso   1.000  C
  C41      1.0000 0.81058  0.16413  0.24313  Biso   1.000  C
  C42      1.0000 0.68521  0.97954  0.16890  Biso   1.000  C
  C43      1.0000 0.64689  0.94122  0.16890  Biso   1.000  C
  C44      1.0000 0.64474  0.89911  0.17599  Biso   1.000  C
  C45      1.0000 0.64305  0.86595  0.18157  Biso   1.000  C
  C46      1.0000 0.64095  0.82471  0.18851  Biso   1.000  C
  C47      1.0000 0.67201  0.81880  0.13891  Biso   1.000  C
  C48      1.0000 0.67000  0.77930  0.14556  Biso   1.000  C
  C49      1.0000 0.63698  0.74685  0.20161  Biso   1.000  C
  C50      1.0000 0.60592  0.75276  0.25121  Biso   1.000  C
  C51      1.0000 0.60793  0.79226  0.24456  Biso   1.000  C
  C52      1.0000 0.63483  0.70474  0.20870  Biso   1.000  C
  H22      1.0000 0.85759  0.22590  0.29894  Biso   1.000  H
  H23      1.0000 0.79033  0.15864  0.29894  Biso   1.000  H
  H24      1.0000 0.71298  0.97884  0.17053  Biso   1.000  H
  H25      1.0000 0.69613  0.84290  0.09792  Biso   1.000  H
  H26      1.0000 0.69265  0.77456  0.10943  Biso   1.000  H
  H27      1.0000 0.58179  0.72865  0.29220  Biso   1.000  H
  H28      1.0000 0.58528  0.79700  0.28070  Biso   1.000  H
  O13      1.0000 0.61276  0.59244  0.43333  Biso   1.000  O
  O14      1.0000 0.33690  0.04694  0.49842  Biso   1.000  O
  O15      1.0000 0.28223  0.01563  0.61270  Biso   1.000  O
  C53      1.0000 0.51613  0.53634  0.57646  Biso   1.000  C
  C54      1.0000 0.47725  0.49746  0.57646  Biso   1.000  C
  C55      1.0000 0.35188  0.31287  0.50223  Biso   1.000  C
  C56      1.0000 0.31356  0.27455  0.50223  Biso   1.000  C
  C57      1.0000 0.31141  0.23244  0.50932  Biso   1.000  C
  C58      1.0000 0.30972  0.19928  0.51490  Biso   1.000  C
  C59      1.0000 0.30762  0.15804  0.52184  Biso   1.000  C
  C60      1.0000 0.33868  0.15213  0.47224  Biso   1.000  C
  C61      1.0000 0.33667  0.11263  0.47889  Biso   1.000  C
  C62      1.0000 0.30365  0.08018  0.53494  Biso   1.000  C
  C63      1.0000 0.27259  0.08609  0.58454  Biso   1.000  C
  C64      1.0000 0.27460  0.12559  0.57789  Biso   1.000  C
  C65      1.0000 0.30150  0.03807  0.54203  Biso   1.000  C
  H29      1.0000 0.52426  0.55923  0.63227  Biso   1.000  H
  H30      1.0000 0.45700  0.49197  0.63227  Biso   1.000  H
  H31      1.0000 0.37965  0.31217  0.50386  Biso   1.000  H
  H32      1.0000 0.36280  0.17623  0.43125  Biso   1.000  H
  H33      1.0000 0.35932  0.10789  0.44276  Biso   1.000  H
  H34      1.0000 0.24846  0.06198  0.62553  Biso   1.000  H
  H35      1.0000 0.25195  0.13033  0.61403  Biso   1.000  H
  O16      1.0000 0.27942  0.92578  0.76667  Biso   1.000  O
  O17      1.0000 0.00356  0.38028  0.83176  Biso   1.000  O
  O18      1.0000 0.94889  0.34897  0.94604  Biso   1.000  O
  C66      1.0000 0.18279  0.86968  0.90980  Biso   1.000  C
  C67      1.0000 0.14391  0.83080  0.90980  Biso   1.000  C
  C68      1.0000 0.01854  0.64621  0.83557  Biso   1.000  C
  C69      1.0000 0.98022  0.60789  0.83557  Biso   1.000  C
  C70      1.0000 0.97807  0.56578  0.84266  Biso   1.000  C
  C71      1.0000 0.97638  0.53262  0.84824  Biso   1.000  C
  C72      1.0000 0.97428  0.49138  0.85518  Biso   1.000  C
  C73      1.0000 0.00534  0.48547  0.80558  Biso   1.000  C
  C74      1.0000 0.00333  0.44597  0.81223  Biso   1.000  C
  C75      1.0000 0.97031  0.41352  0.86828  Biso   1.000  C
  C76      1.0000 0.93925  0.41943  0.91788  Biso   1.000  C
  C77      1.0000 0.94126  0.45893  0.91123  Biso   1.000  C
  C78      1.0000 0.96816  0.37141  0.87537  Biso   1.000  C
  H36      1.0000 0.19092  0.89257  0.96561  Biso   1.000  H
  H37      1.0000 0.12366  0.82531  0.96561  Biso   1.000  H
  H38      1.0000 0.04631  0.64551  0.83720  Biso   1.000  H
  H39      1.0000 0.02946  0.50957  0.76459  Biso   1.000  H
  H40      1.0000 0.02598  0.44123  0.77610  Biso   1.000  H
  H41      1.0000 0.91512  0.39532  0.95887  Biso   1.000  H
  H42      1.0000 0.91861  0.46367  0.94737  Biso   1.000  H
  O19      1.0000 0.74089  0.68698  0.10000  Biso   1.000  O
  O20      1.0000 0.28639  0.95662  0.16509  Biso   1.000  O
  O21      1.0000 0.31770  0.93326  0.27937  Biso   1.000  O
  C79      1.0000 0.79699  0.64645  0.24313  Biso   1.000  C
  C80      1.0000 0.83587  0.64645  0.24313  Biso   1.000  C
  C81      1.0000 0.02046  0.70567  0.16890  Biso   1.000  C
  C82      1.0000 0.05878  0.70567  0.16890  Biso   1.000  C
  C83      1.0000 0.10089  0.74563  0.17599  Biso   1.000  C
  C84      1.0000 0.13405  0.77710  0.18157  Biso   1.000  C
  C85      1.0000 0.17529  0.81624  0.18851  Biso   1.000  C
  C86      1.0000 0.18120  0.85321  0.13891  Biso   1.000  C
  C87      1.0000 0.22070  0.89070  0.14556  Biso   1.000  C
  C88      1.0000 0.25315  0.89013  0.20161  Biso   1.000  C
  C89      1.0000 0.24724  0.85316  0.25121  Biso   1.000  C
  C90      1.0000 0.20774  0.81567  0.24456  Biso   1.000  C
  C91      1.0000 0.29526  0.93009  0.20870  Biso   1.000  C
  H43      1.0000 0.77410  0.63169  0.29894  Biso   1.000  H
  H44      1.0000 0.84136  0.63169  0.29894  Biso   1.000  H
  H45      1.0000 0.02116  0.73414  0.17053  Biso   1.000  H
  H46      1.0000 0.15710  0.85323  0.09792  Biso   1.000  H
  H47      1.0000 0.22544  0.91809  0.10943  Biso   1.000  H
  H48      1.0000 0.27135  0.85314  0.29220  Biso   1.000  H
  H49      1.0000 0.20300  0.78828  0.28070  Biso   1.000  H
  O22      1.0000 0.40756  0.02031  0.43333  Biso   1.000  O
  O23      1.0000 0.95306  0.28995  0.49842  Biso   1.000  O
  O24      1.0000 0.98437  0.26659  0.61270  Biso   1.000  O
  C92      1.0000 0.46366  0.97978  0.57646  Biso   1.000  C
  C93      1.0000 0.50254  0.97978  0.57646  Biso   1.000  C
  C94      1.0000 0.68713  0.03900  0.50223  Biso   1.000  C
  C95      1.0000 0.72545  0.03900  0.50223  Biso   1.000  C
  C96      1.0000 0.76756  0.07896  0.50932  Biso   1.000  C
  C97      1.0000 0.80072  0.11043  0.51490  Biso   1.000  C
  C98      1.0000 0.84196  0.14957  0.52184  Biso   1.000  C
  C99      1.0000 0.84787  0.18654  0.47224  Biso   1.000  C
  C100     1.0000 0.88737  0.22403  0.47889  Biso   1.000  C
  C101     1.0000 0.91982  0.22346  0.53494  Biso   1.000  C
  C102     1.0000 0.91391  0.18649  0.58454  Biso   1.000  C
  C103     1.0000 0.87441  0.14900  0.57789  Biso   1.000  C
  C104     1.0000 0.96193  0.26342  0.54203  Biso   1.000  C
  H50      1.0000 0.44077  0.96502  0.63227  Biso   1.000  H
  H51      1.0000 0.50803  0.96502  0.63227  Biso   1.000  H
  H52      1.0000 0.68783  0.06747  0.50386  Biso   1.000  H
  H53      1.0000 0.82377  0.18656  0.43125  Biso   1.000  H
  H54      1.0000 0.89211  0.25142  0.44276  Biso   1.000  H
  H55      1.0000 0.93802  0.18647  0.62553  Biso   1.000  H
  H56      1.0000 0.86967  0.12161  0.61403  Biso   1.000  H
  O25      1.0000 0.07422  0.35365  0.76667  Biso   1.000  O
  O26      1.0000 0.61972  0.62329  0.83176  Biso   1.000  O
  O27      1.0000 0.65103  0.59993  0.94604  Biso   1.000  O
  C105     1.0000 0.13032  0.31312  0.90980  Biso   1.000  C
  C106     1.0000 0.16920  0.31312  0.90980  Biso   1.000  C
  C107     1.0000 0.35379  0.37234  0.83557  Biso   1.000  C
  C108     1.0000 0.39211  0.37234  0.83557  Biso   1.000  C
  C109     1.0000 0.43422  0.41230  0.84266  Biso   1.000  C
  C110     1.0000 0.46738  0.44377  0.84824  Biso   1.000  C
  C111     1.0000 0.50862  0.48291  0.85518  Biso   1.000  C
  C112     1.0000 0.51453  0.51988  0.80558  Biso   1.000  C
  C113     1.0000 0.55403  0.55737  0.81223  Biso   1.000  C
  C114     1.0000 0.58648  0.55680  0.86828  Biso   1.000  C
  C115     1.0000 0.58057  0.51983  0.91788  Biso   1.000  C
  C116     1.0000 0.54107  0.48234  0.91123  Biso   1.000  C
  C117     1.0000 0.62859  0.59676  0.87537  Biso   1.000  C
  H57      1.0000 0.10743  0.29836  0.96561  Biso   1.000  H
  H58      1.0000 0.17469  0.29836  0.96561  Biso   1.000  H
  H59      1.0000 0.35449  0.40081  0.83720  Biso   1.000  H
  H60      1.0000 0.49043  0.51990  0.76459  Biso   1.000  H
  H61      1.0000 0.55877  0.58476  0.77610  Biso   1.000  H
  H62      1.0000 0.60468  0.51981  0.95887  Biso   1.000  H
  H63      1.0000 0.53633  0.45495  0.94737  Biso   1.000  H
  O28      1.0000 0.05391  0.31302  0.90000  Biso   1.000  O
  O29      1.0000 0.32977  0.04338  0.83491  Biso   1.000  O
  O30      1.0000 0.38444  0.06674  0.72063  Biso   1.000  O
  C118     1.0000 0.15054  0.35355  0.75687  Biso   1.000  C
  C119     1.0000 0.18942  0.35355  0.75687  Biso   1.000  C
  C120     1.0000 0.31479  0.29433  0.83110  Biso   1.000  C
  C121     1.0000 0.35311  0.29433  0.83110  Biso   1.000  C
  C122     1.0000 0.35526  0.25437  0.82401  Biso   1.000  C
  C123     1.0000 0.35695  0.22290  0.81843  Biso   1.000  C
  C124     1.0000 0.35905  0.18376  0.81149  Biso   1.000  C
  C125     1.0000 0.32799  0.14679  0.86109  Biso   1.000  C
  C126     1.0000 0.33000  0.10930  0.85444  Biso   1.000  C
  C127     1.0000 0.36302  0.10987  0.79839  Biso   1.000  C
  C128     1.0000 0.39408  0.14684  0.74879  Biso   1.000  C
  C129     1.0000 0.39207  0.18433  0.75544  Biso   1.000  C
  C130     1.0000 0.36517  0.06991  0.79130  Biso   1.000  C
  H64      1.0000 0.14241  0.36831  0.70106  Biso   1.000  H
  H65      1.0000 0.20967  0.36831  0.70106  Biso   1.000  H
  H66      1.0000 0.28702  0.26586  0.82947  Biso   1.000  H
  H67      1.0000 0.30387  0.14677  0.90208  Biso   1.000  H
  H68      1.0000 0.30735  0.08191  0.89057  Biso   1.000  H
  H69      1.0000 0.41821  0.14686  0.70780  Biso   1.000  H
  H70      1.0000 0.41472  0.21172  0.71930  Biso   1.000  H
  O31      1.0000 0.72058  0.64635  0.23333  Biso   1.000  O
  O32      1.0000 0.99644  0.37671  0.16824  Biso   1.000  O
  O33      1.0000 0.05111  0.40007  0.05396  Biso   1.000  O
  C131     1.0000 0.81721  0.68688  0.09020  Biso   1.000  C
  C132     1.0000 0.85609  0.68688  0.09020  Biso   1.000  C
  C133     1.0000 0.98146  0.62766  0.16443  Biso   1.000  C
  C134     1.0000 0.01978  0.62766  0.16443  Biso   1.000  C
  C135     1.0000 0.02193  0.58770  0.15734  Biso   1.000  C
  C136     1.0000 0.02362  0.55623  0.15176  Biso   1.000  C
  C137     1.0000 0.02572  0.51709  0.14482  Biso   1.000  C
  C138     1.0000 0.99466  0.48012  0.19442  Biso   1.000  C
  C139     1.0000 0.99667  0.44263  0.18777  Biso   1.000  C
  C140     1.0000 0.02969  0.44320  0.13172  Biso   1.000  C
  C141     1.0000 0.06075  0.48017  0.08212  Biso   1.000  C
  C142     1.0000 0.05874  0.51766  0.08877  Biso   1.000  C
  C143     1.0000 0.03184  0.40324  0.12463  Biso   1.000  C
  H71      1.0000 0.80908  0.70164  0.03439  Biso   1.000  H
  H72      1.0000 0.87634  0.70164  0.03439  Biso   1.000  H
  H73      1.0000 0.95369  0.59919  0.16280  Biso   1.000  H
  H74      1.0000 0.97054  0.48010  0.23541  Biso   1.000  H
  H75      1.0000 0.97402  0.41524  0.22390  Biso   1.000  H
  H76      1.0000 0.08488  0.48019  0.04113  Biso   1.000  H
  H77      1.0000 0.08139  0.54505  0.05263  Biso   1.000  H
  O34      1.0000 0.38724  0.97969  0.56667  Biso   1.000  O
  O35      1.0000 0.66310  0.71005  0.50158  Biso   1.000  O
  O36      1.0000 0.71777  0.73341  0.38730  Biso   1.000  O
  C144     1.0000 0.48387  0.02022  0.42354  Biso   1.000  C
  C145     1.0000 0.52275  0.02022  0.42354  Biso   1.000  C
  C146     1.0000 0.64812  0.96100  0.49777  Biso   1.000  C
  C147     1.0000 0.68644  0.96100  0.49777  Biso   1.000  C
  C148     1.0000 0.68859  0.92104  0.49068  Biso   1.000  C
  C149     1.0000 0.69028  0.88957  0.48510  Biso   1.000  C
  C150     1.0000 0.69238  0.85043  0.47816  Biso   1.000  C
  C151     1.0000 0.66132  0.81346  0.52776  Biso   1.000  C
  C152     1.0000 0.66333  0.77597  0.52111  Biso   1.000  C
  C153     1.0000 0.69635  0.77654  0.46506  Biso   1.000  C
  C154     1.0000 0.72741  0.81351  0.41546  Biso   1.000  C
  C155     1.0000 0.72540  0.85100  0.42211  Biso   1.000  C
  C156     1.0000 0.69850  0.73658  0.45797  Biso   1.000  C
  H78      1.0000 0.47574  0.03498  0.36773  Biso   1.000  H
  H79      1.0000 0.54300  0.03498  0.36773  Biso   1.000  H
  H80      1.0000 0.62035  0.93253  0.49614  Biso   1.000  H
  H81      1.0000 0.63720  0.81344  0.56875  Biso   1.000  H
  H82      1.0000 0.64068  0.74858  0.55724  Biso   1.000  H
  H83      1.0000 0.75154  0.81353  0.37447  Biso   1.000  H
  H84      1.0000 0.74805  0.87839  0.38597  Biso   1.000  H
  O37      1.0000 0.25911  0.94609  0.90000  Biso   1.000  O
  O38      1.0000 0.71361  0.67023  0.83491  Biso   1.000  O
  O39      1.0000 0.68230  0.61556  0.72063  Biso   1.000  O
  C157     1.0000 0.20301  0.84946  0.75687  Biso   1.000  C
  C158     1.0000 0.16413  0.81058  0.75687  Biso   1.000  C
  C159     1.0000 0.97954  0.68521  0.83110  Biso   1.000  C
  C160     1.0000 0.94122  0.64689  0.83110  Biso   1.000  C
  C161     1.0000 0.89911  0.64474  0.82401  Biso   1.000  C
  C162     1.0000 0.86595  0.64305  0.81843  Biso   1.000  C
  C163     1.0000 0.82471  0.64095  0.81149  Biso   1.000  C
  C164     1.0000 0.81880  0.67201  0.86109  Biso   1.000  C
  C165     1.0000 0.77930  0.67000  0.85444  Biso   1.000  C
  C166     1.0000 0.74685  0.63698  0.79839  Biso   1.000  C
  C167     1.0000 0.75276  0.60592  0.74879  Biso   1.000  C
  C168     1.0000 0.79226  0.60793  0.75544  Biso   1.000  C
  C169     1.0000 0.70474  0.63483  0.79130  Biso   1.000  C
  H85      1.0000 0.22590  0.85759  0.70106  Biso   1.000  H
  H86      1.0000 0.15864  0.79033  0.70106  Biso   1.000  H
  H87      1.0000 0.97884  0.71298  0.82947  Biso   1.000  H
  H88      1.0000 0.84290  0.69613  0.90208  Biso   1.000  H
  H89      1.0000 0.77456  0.69265  0.89057  Biso   1.000  H
  H90      1.0000 0.72865  0.58179  0.70780  Biso   1.000  H
  H91      1.0000 0.79700  0.58528  0.71930  Biso   1.000  H
  O40      1.0000 0.92578  0.27942  0.23333  Biso   1.000  O
  O41      1.0000 0.38028  0.00356  0.16824  Biso   1.000  O
  O42      1.0000 0.34897  0.94889  0.05396  Biso   1.000  O
  C170     1.0000 0.86968  0.18279  0.09020  Biso   1.000  C
  C171     1.0000 0.83080  0.14391  0.09020  Biso   1.000  C
  C172     1.0000 0.64621  0.01854  0.16443  Biso   1.000  C
  C173     1.0000 0.60789  0.98022  0.16443  Biso   1.000  C
  C174     1.0000 0.56578  0.97807  0.15734  Biso   1.000  C
  C175     1.0000 0.53262  0.97638  0.15176  Biso   1.000  C
  C176     1.0000 0.49138  0.97428  0.14482  Biso   1.000  C
  C177     1.0000 0.48547  0.00534  0.19442  Biso   1.000  C
  C178     1.0000 0.44597  0.00333  0.18777  Biso   1.000  C
  C179     1.0000 0.41352  0.97031  0.13172  Biso   1.000  C
  C180     1.0000 0.41943  0.93925  0.08212  Biso   1.000  C
  C181     1.0000 0.45893  0.94126  0.08877  Biso   1.000  C
  C182     1.0000 0.37141  0.96816  0.12463  Biso   1.000  C
  H92      1.0000 0.89257  0.19092  0.03439  Biso   1.000  H
  H93      1.0000 0.82531  0.12366  0.03439  Biso   1.000  H
  H94      1.0000 0.64551  0.04631  0.16280  Biso   1.000  H
  H95      1.0000 0.50957  0.02946  0.23541  Biso   1.000  H
  H96      1.0000 0.44123  0.02598  0.22390  Biso   1.000  H
  H97      1.0000 0.39532  0.91512  0.04113  Biso   1.000  H
  H98      1.0000 0.46367  0.91861  0.05263  Biso   1.000  H
  O43      1.0000 0.59244  0.61276  0.56667  Biso   1.000  O
  O44      1.0000 0.04694  0.33690  0.50158  Biso   1.000  O
  O45      1.0000 0.01563  0.28223  0.38730  Biso   1.000  O
  C183     1.0000 0.53634  0.51613  0.42354  Biso   1.000  C
  C184     1.0000 0.49746  0.47725  0.42354  Biso   1.000  C
  C185     1.0000 0.31287  0.35188  0.49777  Biso   1.000  C
  C186     1.0000 0.27455  0.31356  0.49777  Biso   1.000  C
  C187     1.0000 0.23244  0.31141  0.49068  Biso   1.000  C
  C188     1.0000 0.19928  0.30972  0.48510  Biso   1.000  C
  C189     1.0000 0.15804  0.30762  0.47816  Biso   1.000  C
  C190     1.0000 0.15213  0.33868  0.52776  Biso   1.000  C
  C191     1.0000 0.11263  0.33667  0.52111  Biso   1.000  C
  C192     1.0000 0.08018  0.30365  0.46506  Biso   1.000  C
  C193     1.0000 0.08609  0.27259  0.41546  Biso   1.000  C
  C194     1.0000 0.12559  0.27460  0.42211  Biso   1.000  C
  C195     1.0000 0.03807  0.30150  0.45797  Biso   1.000  C
  H99      1.0000 0.55923  0.52426  0.36773  Biso   1.000  H
  H100     1.0000 0.49197  0.45700  0.36773  Biso   1.000  H
  H101     1.0000 0.31217  0.37965  0.49614  Biso   1.000  H
  H102     1.0000 0.17623  0.36280  0.56875  Biso   1.000  H
  H103     1.0000 0.10789  0.35932  0.55724  Biso   1.000  H
  H104     1.0000 0.06198  0.24846  0.37447  Biso   1.000  H
  H105     1.0000 0.13033  0.25195  0.38597  Biso   1.000  H
  O46      1.0000 0.68698  0.74089  0.90000  Biso   1.000  O
  O47      1.0000 0.95662  0.28639  0.83491  Biso   1.000  O
  O48      1.0000 0.93326  0.31770  0.72063  Biso   1.000  O
  C196     1.0000 0.64645  0.79699  0.75687  Biso   1.000  C
  C197     1.0000 0.64645  0.83587  0.75687  Biso   1.000  C
  C198     1.0000 0.70567  0.02046  0.83110  Biso   1.000  C
  C199     1.0000 0.70567  0.05878  0.83110  Biso   1.000  C
  C200     1.0000 0.74563  0.10089  0.82401  Biso   1.000  C
  C201     1.0000 0.77710  0.13405  0.81843  Biso   1.000  C
  C202     1.0000 0.81624  0.17529  0.81149  Biso   1.000  C
  C203     1.0000 0.85321  0.18120  0.86109  Biso   1.000  C
  C204     1.0000 0.89070  0.22070  0.85444  Biso   1.000  C
  C205     1.0000 0.89013  0.25315  0.79839  Biso   1.000  C
  C206     1.0000 0.85316  0.24724  0.74879  Biso   1.000  C
  C207     1.0000 0.81567  0.20774  0.75544  Biso   1.000  C
  C208     1.0000 0.93009  0.29526  0.79130  Biso   1.000  C
  H106     1.0000 0.63169  0.77410  0.70106  Biso   1.000  H
  H107     1.0000 0.63169  0.84136  0.70106  Biso   1.000  H
  H108     1.0000 0.73414  0.02116  0.82947  Biso   1.000  H
  H109     1.0000 0.85323  0.15710  0.90208  Biso   1.000  H
  H110     1.0000 0.91809  0.22544  0.89057  Biso   1.000  H
  H111     1.0000 0.85314  0.27135  0.70780  Biso   1.000  H
  H112     1.0000 0.78828  0.20300  0.71930  Biso   1.000  H
  O49      1.0000 0.35365  0.07422  0.23333  Biso   1.000  O
  O50      1.0000 0.62329  0.61972  0.16824  Biso   1.000  O
  O51      1.0000 0.59993  0.65103  0.05396  Biso   1.000  O
  C209     1.0000 0.31312  0.13032  0.09020  Biso   1.000  C
  C210     1.0000 0.31312  0.16920  0.09020  Biso   1.000  C
  C211     1.0000 0.37234  0.35379  0.16443  Biso   1.000  C
  C212     1.0000 0.37234  0.39211  0.16443  Biso   1.000  C
  C213     1.0000 0.41230  0.43422  0.15734  Biso   1.000  C
  C214     1.0000 0.44377  0.46738  0.15176  Biso   1.000  C
  C215     1.0000 0.48291  0.50862  0.14482  Biso   1.000  C
  C216     1.0000 0.51988  0.51453  0.19442  Biso   1.000  C
  C217     1.0000 0.55737  0.55403  0.18777  Biso   1.000  C
  C218     1.0000 0.55680  0.58648  0.13172  Biso   1.000  C
  C219     1.0000 0.51983  0.58057  0.08212  Biso   1.000  C
  C220     1.0000 0.48234  0.54107  0.08877  Biso   1.000  C
  C221     1.0000 0.59676  0.62859  0.12463  Biso   1.000  C
  H113     1.0000 0.29836  0.10743  0.03439  Biso   1.000  H
  H114     1.0000 0.29836  0.17469  0.03439  Biso   1.000  H
  H115     1.0000 0.40081  0.35449  0.16280  Biso   1.000  H
  H116     1.0000 0.51990  0.49043  0.23541  Biso   1.000  H
  H117     1.0000 0.58476  0.55877  0.22390  Biso   1.000  H
  H118     1.0000 0.51981  0.60468  0.04113  Biso   1.000  H
  H119     1.0000 0.45495  0.53633  0.05263  Biso   1.000  H
  O52      1.0000 0.02031  0.40756  0.56667  Biso   1.000  O
  O53      1.0000 0.28995  0.95306  0.50158  Biso   1.000  O
  O54      1.0000 0.26659  0.98437  0.38730  Biso   1.000  O
  C222     1.0000 0.97978  0.46366  0.42354  Biso   1.000  C
  C223     1.0000 0.97978  0.50254  0.42354  Biso   1.000  C
  C224     1.0000 0.03900  0.68713  0.49777  Biso   1.000  C
  C225     1.0000 0.03900  0.72545  0.49777  Biso   1.000  C
  C226     1.0000 0.07896  0.76756  0.49068  Biso   1.000  C
  C227     1.0000 0.11043  0.80072  0.48510  Biso   1.000  C
  C228     1.0000 0.14957  0.84196  0.47816  Biso   1.000  C
  C229     1.0000 0.18654  0.84787  0.52776  Biso   1.000  C
  C230     1.0000 0.22403  0.88737  0.52111  Biso   1.000  C
  C231     1.0000 0.22346  0.91982  0.46506  Biso   1.000  C
  C232     1.0000 0.18649  0.91391  0.41546  Biso   1.000  C
  C233     1.0000 0.14900  0.87441  0.42211  Biso   1.000  C
  C234     1.0000 0.26342  0.96193  0.45797  Biso   1.000  C
  H120     1.0000 0.96502  0.44077  0.36773  Biso   1.000  H
  H121     1.0000 0.96502  0.50803  0.36773  Biso   1.000  H
  H122     1.0000 0.06747  0.68783  0.49614  Biso   1.000  H
  H123     1.0000 0.18656  0.82377  0.56875  Biso   1.000  H
  H124     1.0000 0.25142  0.89211  0.55724  Biso   1.000  H
  H125     1.0000 0.18647  0.93802  0.37447  Biso   1.000  H
  H126     1.0000 0.12161  0.86967  0.38597  Biso   1.000  H
  Eu1      1.0000 0.32428  0.00000  0.00000  Biso   1.000  Eu
  Eu2      1.0000 0.99095  0.33333  0.33333  Biso   1.000  Eu
  Eu3      1.0000 0.65761  0.66667  0.66667  Biso   1.000  Eu
  Eu4      1.0000 0.00000  0.32428  0.00000  Biso   1.000  Eu
  Eu5      1.0000 0.66667  0.65761  0.33333  Biso   1.000  Eu
  Eu6      1.0000 0.33333  0.99095  0.66667  Biso   1.000  Eu
  Eu7      1.0000 0.67572  0.67572  0.00000  Biso   1.000  Eu
  Eu8      1.0000 0.34239  0.00905  0.33333  Biso   1.000  Eu
  Eu9      1.0000 0.00905  0.34239  0.66667  Biso   1.000  Eu
  C235     1.0000 0.33333  0.08134  0.16667  Biso   1.000  C
  C236     1.0000 0.33333  0.12306  0.16667  Biso   1.000  C
  C237     1.0000 0.33333  0.20029  0.16667  Biso   1.000  C
  C238     1.0000 0.33333  0.24067  0.16667  Biso   1.000  C
  C239     1.0000 0.33333  0.27359  0.16667  Biso   1.000  C
  C240     1.0000 0.33333  0.31396  0.16667  Biso   1.000  C
  C241     1.0000 0.33333  0.39116  0.16667  Biso   1.000  C
  H127     1.0000 0.33333  0.41954  0.16667  Biso   1.000  H
  C242     1.0000 0.00000  0.41468  0.50000  Biso   1.000  C
  C243     1.0000 0.00000  0.45639  0.50000  Biso   1.000  C
  C244     1.0000 0.00000  0.53363  0.50000  Biso   1.000  C
  C245     1.0000 0.00000  0.57400  0.50000  Biso   1.000  C
  C246     1.0000 0.00000  0.60693  0.50000  Biso   1.000  C
  C247     1.0000 0.00000  0.64730  0.50000  Biso   1.000  C
  C248     1.0000 0.00000  0.72450  0.50000  Biso   1.000  C
  H128     1.0000 0.00000  0.75288  0.50000  Biso   1.000  H
  C249     1.0000 0.91866  0.25199  0.16667  Biso   1.000  C
  C250     1.0000 0.87694  0.21027  0.16667  Biso   1.000  C
  C251     1.0000 0.79971  0.13304  0.16667  Biso   1.000  C
  C252     1.0000 0.75933  0.09266  0.16667  Biso   1.000  C
  C253     1.0000 0.72641  0.05974  0.16667  Biso   1.000  C
  C254     1.0000 0.68604  0.01937  0.16667  Biso   1.000  C
  C255     1.0000 0.60884  0.94217  0.16667  Biso   1.000  C
  H129     1.0000 0.58046  0.91379  0.16667  Biso   1.000  H
  C256     1.0000 0.58532  0.58532  0.50000  Biso   1.000  C
  C257     1.0000 0.54360  0.54360  0.50000  Biso   1.000  C
  C258     1.0000 0.46637  0.46637  0.50000  Biso   1.000  C
  C259     1.0000 0.42599  0.42599  0.50000  Biso   1.000  C
  C260     1.0000 0.39307  0.39307  0.50000  Biso   1.000  C
  C261     1.0000 0.35270  0.35270  0.50000  Biso   1.000  C
  C262     1.0000 0.27550  0.27550  0.50000  Biso   1.000  C
  H130     1.0000 0.24712  0.24712  0.50000  Biso   1.000  H
  C263     1.0000 0.74801  0.66667  0.16667  Biso   1.000  C
  C264     1.0000 0.78973  0.66667  0.16667  Biso   1.000  C
  C265     1.0000 0.86696  0.66667  0.16667  Biso   1.000  C
  C266     1.0000 0.90734  0.66667  0.16667  Biso   1.000  C
  C267     1.0000 0.94026  0.66667  0.16667  Biso   1.000  C
  C268     1.0000 0.98063  0.66667  0.16667  Biso   1.000  C
  C269     1.0000 0.05783  0.66667  0.16667  Biso   1.000  C
  H131     1.0000 0.08621  0.66667  0.16667  Biso   1.000  H
  C270     1.0000 0.41468  0.00000  0.50000  Biso   1.000  C
  C271     1.0000 0.45640  0.00000  0.50000  Biso   1.000  C
  C272     1.0000 0.53363  0.00000  0.50000  Biso   1.000  C
  C273     1.0000 0.57400  0.00000  0.50000  Biso   1.000  C
  C274     1.0000 0.60693  0.00000  0.50000  Biso   1.000  C
  C275     1.0000 0.64730  0.00000  0.50000  Biso   1.000  C
  C276     1.0000 0.72450  0.00000  0.50000  Biso   1.000  C
  H132     1.0000 0.75288  0.00000  0.50000  Biso   1.000  H
  C277     1.0000 0.08134  0.33333  0.83333  Biso   1.000  C
  C278     1.0000 0.12306  0.33333  0.83333  Biso   1.000  C
  C279     1.0000 0.20029  0.33333  0.83333  Biso   1.000  C
  C280     1.0000 0.24067  0.33333  0.83333  Biso   1.000  C
  C281     1.0000 0.27359  0.33333  0.83333  Biso   1.000  C
  C282     1.0000 0.31396  0.33333  0.83333  Biso   1.000  C
  C283     1.0000 0.39116  0.33333  0.83333  Biso   1.000  C
  H133     1.0000 0.41954  0.33333  0.83333  Biso   1.000  H
  C284     1.0000 0.25199  0.91866  0.83333  Biso   1.000  C
  C285     1.0000 0.21027  0.87694  0.83333  Biso   1.000  C
  C286     1.0000 0.13304  0.79971  0.83333  Biso   1.000  C
  C287     1.0000 0.09266  0.75933  0.83333  Biso   1.000  C
  C288     1.0000 0.05974  0.72641  0.83333  Biso   1.000  C
  C289     1.0000 0.01937  0.68604  0.83333  Biso   1.000  C
  C290     1.0000 0.94217  0.60884  0.83333  Biso   1.000  C
  H134     1.0000 0.91379  0.58046  0.83333  Biso   1.000  H
  C291     1.0000 0.66667  0.74801  0.83333  Biso   1.000  C
  C292     1.0000 0.66667  0.78973  0.83333  Biso   1.000  C
  C293     1.0000 0.66667  0.86696  0.83333  Biso   1.000  C
  C294     1.0000 0.66667  0.90734  0.83333  Biso   1.000  C
  C295     1.0000 0.66667  0.94026  0.83333  Biso   1.000  C
  C296     1.0000 0.66667  0.98063  0.83333  Biso   1.000  C
  C297     1.0000 0.66667  0.05783  0.83333  Biso   1.000  C
  H135     1.0000 0.66667  0.08621  0.83333  Biso   1.000  H
