data_image0
_cell_length_a       16.2111
_cell_length_b       11.8683
_cell_length_c       17.9923
_cell_angle_alpha    90
_cell_angle_beta     103.7
_cell_angle_gamma    90

_symmetry_space_group_name_H-M    "P 1"
_symmetry_int_tables_number       1

loop_
  _symmetry_equiv_pos_as_xyz
  'x, y, z'

loop_
  _atom_site_label
  _atom_site_occupancy
  _atom_site_fract_x
  _atom_site_fract_y
  _atom_site_fract_z
  _atom_site_thermal_displace_type
  _atom_site_B_iso_or_equiv
  _atom_site_type_symbol
  Mo1      1.0000 0.21690  0.64127  0.06744  Biso   1.000  Mo
  Mo2      1.0000 0.21593  0.34798  0.03711  Biso   1.000  Mo
  Mo3      1.0000 0.11768  0.76708  0.96676  Biso   1.000  Mo
  Mo4      1.0000 0.97955  0.64577  0.80495  Biso   1.000  Mo
  Mo5      1.0000 0.97646  0.42919  0.78692  Biso   1.000  Mo
  Mo6      1.0000 0.11124  0.25542  0.92195  Biso   1.000  Mo
  Mn1      1.0000 0.37607  0.50208  0.86574  Biso   1.000  Mn
  P1       1.0000 0.06137  0.20096  0.73750  Biso   1.000  P
  P2       1.0000 0.17269  0.52450  0.88601  Biso   1.000  P
  P3       1.0000 0.12328  0.83689  0.79012  Biso   1.000  P
  P4       1.0000 0.38927  0.50764  0.05842  Biso   1.000  P
  O1       1.0000 0.09286  0.63490  0.02412  Biso   1.000  O
  O2       1.0000 0.23931  0.74560  0.99174  Biso   1.000  O
  O3       1.0000 0.09189  0.36120  0.00114  Biso   1.000  O
  O4       1.0000 0.23400  0.27370  0.94658  Biso   1.000  O
  O5       1.0000 0.02900  0.32360  0.72188  Biso   1.000  O
  O6       1.0000 0.11425  0.42290  0.85860  Biso   1.000  O
  O7       1.0000 0.20514  0.48050  0.11464  Biso   1.000  O
  O8       1.0000 0.12230  0.19590  0.81840  Biso   1.000  O
  O9       1.0000 0.34354  0.39350  0.06116  Biso   1.000  O
  O10      1.0000 0.01760  0.55000  0.73244  Biso   1.000  O
  O11      1.0000 0.21187  0.50950  0.97309  Biso   1.000  O
  O12      1.0000 0.13430  0.86230  0.87628  Biso   1.000  O
  O13      1.0000 0.96427  0.52360  0.87488  Biso   1.000  O
  O14      1.0000 0.03840  0.77500  0.76023  Biso   1.000  O
  O15      1.0000 0.34197  0.60040  0.09155  Biso   1.000  O
  O16      1.0000 0.99159  0.75450  0.90058  Biso   1.000  O
  O17      1.0000 0.13020  0.94350  0.74782  Biso   1.000  O
  O18      1.0000 0.11563  0.63130  0.87741  Biso   1.000  O
  O19      1.0000 0.98624  0.29040  0.86273  Biso   1.000  O
  O20      1.0000 0.24014  0.54050  0.84182  Biso   1.000  O
  O21      1.0000 0.98530  0.12220  0.73462  Biso   1.000  O
  O22      1.0000 0.47729  0.49750  0.11739  Biso   1.000  O
  O23      1.0000 0.40230  0.53980  0.98191  Biso   1.000  O
  O24      1.0000 0.19990  0.76040  0.78050  Biso   1.000  O
  O25      1.0000 0.10870  0.16900  0.67742  Biso   1.000  O
  O26      1.0000 0.37760  0.31790  0.89470  Biso   1.000  O
  H1       1.0000 0.42680  0.29720  0.91170  Biso   1.000  H
  Mo7      1.0000 0.28310  0.14127  0.43256  Biso   1.000  Mo
  Mo8      1.0000 0.28407  0.84798  0.46289  Biso   1.000  Mo
  Mo9      1.0000 0.38232  0.26708  0.53324  Biso   1.000  Mo
  Mo10     1.0000 0.52045  0.14577  0.69505  Biso   1.000  Mo
  Mo11     1.0000 0.52354  0.92919  0.71308  Biso   1.000  Mo
  Mo12     1.0000 0.38876  0.75542  0.57805  Biso   1.000  Mo
  Mn2      1.0000 0.12393  0.00208  0.63426  Biso   1.000  Mn
  P5       1.0000 0.43863  0.70096  0.76250  Biso   1.000  P
  P6       1.0000 0.32731  0.02450  0.61399  Biso   1.000  P
  P7       1.0000 0.37672  0.33689  0.70988  Biso   1.000  P
  P8       1.0000 0.11073  0.00764  0.44158  Biso   1.000  P
  O27      1.0000 0.40714  0.13490  0.47588  Biso   1.000  O
  O28      1.0000 0.26069  0.24560  0.50826  Biso   1.000  O
  O29      1.0000 0.40811  0.86120  0.49886  Biso   1.000  O
  O30      1.0000 0.26600  0.77370  0.55342  Biso   1.000  O
  O31      1.0000 0.47100  0.82360  0.77812  Biso   1.000  O
  O32      1.0000 0.38575  0.92290  0.64140  Biso   1.000  O
  O33      1.0000 0.29486  0.98050  0.38536  Biso   1.000  O
  O34      1.0000 0.37770  0.69590  0.68160  Biso   1.000  O
  O35      1.0000 0.15646  0.89350  0.43884  Biso   1.000  O
  O36      1.0000 0.48240  0.05000  0.76756  Biso   1.000  O
  O37      1.0000 0.28813  0.00950  0.52691  Biso   1.000  O
  O38      1.0000 0.36570  0.36230  0.62372  Biso   1.000  O
  O39      1.0000 0.53573  0.02360  0.62512  Biso   1.000  O
  O40      1.0000 0.46160  0.27500  0.73977  Biso   1.000  O
  O41      1.0000 0.15803  0.10040  0.40845  Biso   1.000  O
  O42      1.0000 0.50841  0.25450  0.59942  Biso   1.000  O
  O43      1.0000 0.36980  0.44350  0.75218  Biso   1.000  O
  O44      1.0000 0.38437  0.13130  0.62259  Biso   1.000  O
  O45      1.0000 0.51376  0.79040  0.63727  Biso   1.000  O
  O46      1.0000 0.25986  0.04050  0.65818  Biso   1.000  O
  O47      1.0000 0.51470  0.62220  0.76538  Biso   1.000  O
  O48      1.0000 0.02271  0.99750  0.38261  Biso   1.000  O
  O49      1.0000 0.09770  0.03980  0.51809  Biso   1.000  O
  O50      1.0000 0.30010  0.26040  0.71950  Biso   1.000  O
  O51      1.0000 0.39130  0.66900  0.82258  Biso   1.000  O
  O52      1.0000 0.12240  0.81790  0.60530  Biso   1.000  O
  H2       1.0000 0.07320  0.79720  0.58830  Biso   1.000  H
  Mo13     1.0000 0.78310  0.35873  0.93256  Biso   1.000  Mo
  Mo14     1.0000 0.78407  0.65202  0.96289  Biso   1.000  Mo
  Mo15     1.0000 0.88232  0.23292  0.03324  Biso   1.000  Mo
  Mo16     1.0000 0.02045  0.35423  0.19505  Biso   1.000  Mo
  Mo17     1.0000 0.02354  0.57081  0.21308  Biso   1.000  Mo
  Mo18     1.0000 0.88876  0.74458  0.07805  Biso   1.000  Mo
  Mn3      1.0000 0.62393  0.49792  0.13426  Biso   1.000  Mn
  P9       1.0000 0.93863  0.79904  0.26250  Biso   1.000  P
  P10      1.0000 0.82731  0.47550  0.11399  Biso   1.000  P
  P11      1.0000 0.87672  0.16311  0.20988  Biso   1.000  P
  P12      1.0000 0.61073  0.49236  0.94158  Biso   1.000  P
  O53      1.0000 0.90714  0.36510  0.97588  Biso   1.000  O
  O54      1.0000 0.76069  0.25440  0.00826  Biso   1.000  O
  O55      1.0000 0.90811  0.63880  0.99886  Biso   1.000  O
  O56      1.0000 0.76600  0.72630  0.05342  Biso   1.000  O
  O57      1.0000 0.97100  0.67640  0.27812  Biso   1.000  O
  O58      1.0000 0.88575  0.57710  0.14140  Biso   1.000  O
  O59      1.0000 0.79486  0.51950  0.88536  Biso   1.000  O
  O60      1.0000 0.87770  0.80410  0.18160  Biso   1.000  O
  O61      1.0000 0.65646  0.60650  0.93884  Biso   1.000  O
  O62      1.0000 0.98240  0.45000  0.26756  Biso   1.000  O
  O63      1.0000 0.78813  0.49050  0.02691  Biso   1.000  O
  O64      1.0000 0.86570  0.13770  0.12372  Biso   1.000  O
  O65      1.0000 0.03573  0.47640  0.12512  Biso   1.000  O
  O66      1.0000 0.96160  0.22500  0.23977  Biso   1.000  O
  O67      1.0000 0.65803  0.39960  0.90845  Biso   1.000  O
  O68      1.0000 0.00841  0.24550  0.09942  Biso   1.000  O
  O69      1.0000 0.86980  0.05650  0.25218  Biso   1.000  O
  O70      1.0000 0.88437  0.36870  0.12259  Biso   1.000  O
  O71      1.0000 0.01376  0.70960  0.13727  Biso   1.000  O
  O72      1.0000 0.75986  0.45950  0.15818  Biso   1.000  O
  O73      1.0000 0.01470  0.87780  0.26538  Biso   1.000  O
  O74      1.0000 0.52271  0.50250  0.88261  Biso   1.000  O
  O75      1.0000 0.59770  0.46020  0.01809  Biso   1.000  O
  O76      1.0000 0.80010  0.23960  0.21950  Biso   1.000  O
  O77      1.0000 0.89130  0.83100  0.32258  Biso   1.000  O
  O78      1.0000 0.62240  0.68210  0.10530  Biso   1.000  O
  H3       1.0000 0.57320  0.70280  0.08830  Biso   1.000  H
  Mo19     1.0000 0.71690  0.85873  0.56744  Biso   1.000  Mo
  Mo20     1.0000 0.71593  0.15202  0.53711  Biso   1.000  Mo
  Mo21     1.0000 0.61768  0.73292  0.46676  Biso   1.000  Mo
  Mo22     1.0000 0.47955  0.85423  0.30495  Biso   1.000  Mo
  Mo23     1.0000 0.47646  0.07081  0.28692  Biso   1.000  Mo
  Mo24     1.0000 0.61124  0.24458  0.42195  Biso   1.000  Mo
  Mn4      1.0000 0.87607  0.99792  0.36574  Biso   1.000  Mn
  P13      1.0000 0.56137  0.29904  0.23750  Biso   1.000  P
  P14      1.0000 0.67269  0.97550  0.38601  Biso   1.000  P
  P15      1.0000 0.62328  0.66311  0.29012  Biso   1.000  P
  P16      1.0000 0.88927  0.99236  0.55842  Biso   1.000  P
  O79      1.0000 0.59286  0.86510  0.52412  Biso   1.000  O
  O80      1.0000 0.73931  0.75440  0.49174  Biso   1.000  O
  O81      1.0000 0.59189  0.13880  0.50114  Biso   1.000  O
  O82      1.0000 0.73400  0.22630  0.44658  Biso   1.000  O
  O83      1.0000 0.52900  0.17640  0.22188  Biso   1.000  O
  O84      1.0000 0.61425  0.07710  0.35860  Biso   1.000  O
  O85      1.0000 0.70514  0.01950  0.61464  Biso   1.000  O
  O86      1.0000 0.62230  0.30410  0.31840  Biso   1.000  O
  O87      1.0000 0.84354  0.10650  0.56116  Biso   1.000  O
  O88      1.0000 0.51760  0.95000  0.23244  Biso   1.000  O
  O89      1.0000 0.71187  0.99050  0.47309  Biso   1.000  O
  O90      1.0000 0.63430  0.63770  0.37628  Biso   1.000  O
  O91      1.0000 0.46427  0.97640  0.37488  Biso   1.000  O
  O92      1.0000 0.53840  0.72500  0.26023  Biso   1.000  O
  O93      1.0000 0.84197  0.89960  0.59155  Biso   1.000  O
  O94      1.0000 0.49159  0.74550  0.40058  Biso   1.000  O
  O95      1.0000 0.63020  0.55650  0.24782  Biso   1.000  O
  O96      1.0000 0.61563  0.86870  0.37741  Biso   1.000  O
  O97      1.0000 0.48624  0.20960  0.36273  Biso   1.000  O
  O98      1.0000 0.74014  0.95950  0.34182  Biso   1.000  O
  O99      1.0000 0.48530  0.37780  0.23462  Biso   1.000  O
  O100     1.0000 0.97729  0.00250  0.61739  Biso   1.000  O
  O101     1.0000 0.90230  0.96020  0.48191  Biso   1.000  O
  O102     1.0000 0.69990  0.73960  0.28050  Biso   1.000  O
  O103     1.0000 0.60870  0.33100  0.17742  Biso   1.000  O
  O104     1.0000 0.87760  0.18210  0.39470  Biso   1.000  O
  H4       1.0000 0.92680  0.20280  0.41170  Biso   1.000  H
  Mn5      1.0000 0.00000  0.50000  0.00000  Biso   1.000  Mn
  Mn6      1.0000 0.50000  0.00000  0.50000  Biso   1.000  Mn
