data_image0
_cell_length_a       5.616
_cell_length_b       15.431
_cell_length_c       9.445
_cell_angle_alpha    90
_cell_angle_beta     91.72
_cell_angle_gamma    90

_symmetry_space_group_name_H-M    "P 1"
_symmetry_int_tables_number       1

loop_
  _symmetry_equiv_pos_as_xyz
  'x, y, z'

loop_
  _atom_site_label
  _atom_site_occupancy
  _atom_site_fract_x
  _atom_site_fract_y
  _atom_site_fract_z
  _atom_site_thermal_displace_type
  _atom_site_B_iso_or_equiv
  _atom_site_type_symbol
  Mn1      1.0000 0.21529  0.66826  0.55653  Biso   1.000  Mn
  P1       1.0000 0.70743  0.69725  0.35161  Biso   1.000  P
  H1       1.0000 0.70993  0.60400  0.34803  Biso   1.000  H
  O1       1.0000 0.66300  0.72749  0.19952  Biso   1.000  O
  O2       1.0000 0.50690  0.72322  0.44733  Biso   1.000  O
  O3       1.0000 0.95370  0.72566  0.40694  Biso   1.000  O
  O4       1.0000 0.23450  0.55257  0.41746  Biso   1.000  O
  O5       1.0000 0.06740  0.42317  0.37042  Biso   1.000  O
  C1       1.0000 0.08710  0.49322  0.43890  Biso   1.000  C
  Mn2      1.0000 0.28471  0.16826  0.94347  Biso   1.000  Mn
  P2       1.0000 0.79257  0.19725  0.14839  Biso   1.000  P
  H2       1.0000 0.79007  0.10400  0.15197  Biso   1.000  H
  O6       1.0000 0.83700  0.22749  0.30048  Biso   1.000  O
  O7       1.0000 0.99310  0.22322  0.05267  Biso   1.000  O
  O8       1.0000 0.54630  0.22566  0.09306  Biso   1.000  O
  O9       1.0000 0.26550  0.05257  0.08254  Biso   1.000  O
  O10      1.0000 0.43260  0.92317  0.12958  Biso   1.000  O
  C2       1.0000 0.41290  0.99322  0.06110  Biso   1.000  C
  Mn3      1.0000 0.78471  0.33174  0.44347  Biso   1.000  Mn
  P3       1.0000 0.29257  0.30275  0.64839  Biso   1.000  P
  H3       1.0000 0.29007  0.39600  0.65197  Biso   1.000  H
  O11      1.0000 0.33700  0.27251  0.80048  Biso   1.000  O
  O12      1.0000 0.49310  0.27678  0.55267  Biso   1.000  O
  O13      1.0000 0.04630  0.27434  0.59306  Biso   1.000  O
  O14      1.0000 0.76550  0.44743  0.58254  Biso   1.000  O
  O15      1.0000 0.93260  0.57683  0.62958  Biso   1.000  O
  C3       1.0000 0.91290  0.50678  0.56110  Biso   1.000  C
  Mn4      1.0000 0.71529  0.83174  0.05653  Biso   1.000  Mn
  P4       1.0000 0.20743  0.80275  0.85161  Biso   1.000  P
  H4       1.0000 0.20993  0.89600  0.84803  Biso   1.000  H
  O16      1.0000 0.16300  0.77251  0.69952  Biso   1.000  O
  O17      1.0000 0.00690  0.77678  0.94733  Biso   1.000  O
  O18      1.0000 0.45370  0.77434  0.90694  Biso   1.000  O
  O19      1.0000 0.73450  0.94743  0.91746  Biso   1.000  O
  O20      1.0000 0.56740  0.07683  0.87042  Biso   1.000  O
  C4       1.0000 0.58710  0.00678  0.93890  Biso   1.000  C
