data_image0
_cell_length_a       14.648
_cell_length_b       12.4006
_cell_length_c       16.6062
_cell_angle_alpha    90
_cell_angle_beta     90
_cell_angle_gamma    90

_symmetry_space_group_name_H-M    "P 1"
_symmetry_int_tables_number       1

loop_
  _symmetry_equiv_pos_as_xyz
  'x, y, z'

loop_
  _atom_site_label
  _atom_site_occupancy
  _atom_site_fract_x
  _atom_site_fract_y
  _atom_site_fract_z
  _atom_site_thermal_displace_type
  _atom_site_B_iso_or_equiv
  _atom_site_type_symbol
  Mn1      1.0000 0.60520  0.48195  0.57808  Biso   1.000  Mn
  O1       1.0000 0.70980  0.48030  0.48340  Biso   1.000  O
  O2       1.0000 0.70010  0.62990  0.55080  Biso   1.000  O
  O3       1.0000 0.59520  0.34430  0.66550  Biso   1.000  O
  O4       1.0000 0.49900  0.58020  0.62620  Biso   1.000  O
  C1       1.0000 0.34910  0.78170  0.54050  Biso   1.000  C
  H1       1.0000 0.34580  0.75610  0.48790  Biso   1.000  H
  O5       1.0000 0.52320  0.38050  0.50250  Biso   1.000  O
  C2       1.0000 0.73290  0.57530  0.49490  Biso   1.000  C
  C3       1.0000 0.69500  0.41090  0.85930  Biso   1.000  C
  H2       1.0000 0.72560  0.47370  0.84500  Biso   1.000  H
  C4       1.0000 0.63720  0.39950  0.71730  Biso   1.000  C
  C5       1.0000 0.70230  0.37160  0.93730  Biso   1.000  C
  C6       1.0000 0.46330  0.63620  0.57100  Biso   1.000  C
  O6       1.0000 0.67420  0.48600  0.70070  Biso   1.000  O
  C7       1.0000 0.59290  0.26740  0.82520  Biso   1.000  C
  H3       1.0000 0.55790  0.23160  0.78690  Biso   1.000  H
  C8       1.0000 0.40540  0.72960  0.59610  Biso   1.000  C
  C9       1.0000 0.64270  0.35770  0.80300  Biso   1.000  C
  Mn2      1.0000 0.89480  0.51805  0.07808  Biso   1.000  Mn
  O7       1.0000 0.79020  0.51970  0.98340  Biso   1.000  O
  O8       1.0000 0.79990  0.37010  0.05080  Biso   1.000  O
  O9       1.0000 0.90480  0.65570  0.16550  Biso   1.000  O
  O10      1.0000 0.00100  0.41980  0.12620  Biso   1.000  O
  C10      1.0000 0.15090  0.21830  0.04050  Biso   1.000  C
  H4       1.0000 0.15420  0.24390  0.98790  Biso   1.000  H
  O11      1.0000 0.97680  0.61950  0.00250  Biso   1.000  O
  C11      1.0000 0.76710  0.42470  0.99490  Biso   1.000  C
  C12      1.0000 0.80500  0.58910  0.35930  Biso   1.000  C
  H5       1.0000 0.77440  0.52630  0.34500  Biso   1.000  H
  C13      1.0000 0.86280  0.60050  0.21730  Biso   1.000  C
  C14      1.0000 0.79770  0.62840  0.43730  Biso   1.000  C
  C15      1.0000 0.03670  0.36380  0.07100  Biso   1.000  C
  O12      1.0000 0.82580  0.51400  0.20070  Biso   1.000  O
  C16      1.0000 0.90710  0.73260  0.32520  Biso   1.000  C
  H6       1.0000 0.94210  0.76840  0.28690  Biso   1.000  H
  C17      1.0000 0.09460  0.27040  0.09610  Biso   1.000  C
  C18      1.0000 0.85730  0.64230  0.30300  Biso   1.000  C
  Mn3      1.0000 0.39480  0.98195  0.92192  Biso   1.000  Mn
  O13      1.0000 0.29020  0.98030  0.01660  Biso   1.000  O
  O14      1.0000 0.29990  0.12990  0.94920  Biso   1.000  O
  O15      1.0000 0.40480  0.84430  0.83450  Biso   1.000  O
  O16      1.0000 0.50100  0.08020  0.87380  Biso   1.000  O
  C19      1.0000 0.65090  0.28170  0.95950  Biso   1.000  C
  H7       1.0000 0.65420  0.25610  0.01210  Biso   1.000  H
  O17      1.0000 0.47680  0.88050  0.99750  Biso   1.000  O
  C20      1.0000 0.26710  0.07530  0.00510  Biso   1.000  C
  C21      1.0000 0.30500  0.91090  0.64070  Biso   1.000  C
  H8       1.0000 0.27440  0.97370  0.65500  Biso   1.000  H
  C22      1.0000 0.36280  0.89950  0.78270  Biso   1.000  C
  C23      1.0000 0.29770  0.87160  0.56270  Biso   1.000  C
  C24      1.0000 0.53670  0.13620  0.92900  Biso   1.000  C
  O18      1.0000 0.32580  0.98600  0.79930  Biso   1.000  O
  C25      1.0000 0.40710  0.76740  0.67480  Biso   1.000  C
  H9       1.0000 0.44210  0.73160  0.71310  Biso   1.000  H
  C26      1.0000 0.59460  0.22960  0.90390  Biso   1.000  C
  C27      1.0000 0.35730  0.85770  0.69700  Biso   1.000  C
  Mn4      1.0000 0.10520  0.01805  0.42192  Biso   1.000  Mn
  O19      1.0000 0.20980  0.01970  0.51660  Biso   1.000  O
  O20      1.0000 0.20010  0.87010  0.44920  Biso   1.000  O
  O21      1.0000 0.09520  0.15570  0.33450  Biso   1.000  O
  O22      1.0000 0.99900  0.91980  0.37380  Biso   1.000  O
  C28      1.0000 0.84910  0.71830  0.45950  Biso   1.000  C
  H10      1.0000 0.84580  0.74390  0.51210  Biso   1.000  H
  O23      1.0000 0.02320  0.11950  0.49750  Biso   1.000  O
  C29      1.0000 0.23290  0.92470  0.50510  Biso   1.000  C
  C30      1.0000 0.19500  0.08910  0.14070  Biso   1.000  C
  H11      1.0000 0.22560  0.02630  0.15500  Biso   1.000  H
  C31      1.0000 0.13720  0.10050  0.28270  Biso   1.000  C
  C32      1.0000 0.20230  0.12840  0.06270  Biso   1.000  C
  C33      1.0000 0.96330  0.86380  0.42900  Biso   1.000  C
  O24      1.0000 0.17420  0.01400  0.29930  Biso   1.000  O
  C34      1.0000 0.09290  0.23260  0.17480  Biso   1.000  C
  H12      1.0000 0.05790  0.26840  0.21310  Biso   1.000  H
  C35      1.0000 0.90540  0.77040  0.40390  Biso   1.000  C
  C36      1.0000 0.14270  0.14230  0.19700  Biso   1.000  C
  Mn5      1.0000 0.39480  0.51805  0.42192  Biso   1.000  Mn
  O25      1.0000 0.29020  0.51970  0.51660  Biso   1.000  O
  O26      1.0000 0.29990  0.37010  0.44920  Biso   1.000  O
  O27      1.0000 0.40480  0.65570  0.33450  Biso   1.000  O
  O28      1.0000 0.50100  0.41980  0.37380  Biso   1.000  O
  C37      1.0000 0.65090  0.21830  0.45950  Biso   1.000  C
  H13      1.0000 0.65420  0.24390  0.51210  Biso   1.000  H
  O29      1.0000 0.47680  0.61950  0.49750  Biso   1.000  O
  C38      1.0000 0.26710  0.42470  0.50510  Biso   1.000  C
  C39      1.0000 0.30500  0.58910  0.14070  Biso   1.000  C
  H14      1.0000 0.27440  0.52630  0.15500  Biso   1.000  H
  C40      1.0000 0.36280  0.60050  0.28270  Biso   1.000  C
  C41      1.0000 0.29770  0.62840  0.06270  Biso   1.000  C
  C42      1.0000 0.53670  0.36380  0.42900  Biso   1.000  C
  O30      1.0000 0.32580  0.51400  0.29930  Biso   1.000  O
  C43      1.0000 0.40710  0.73260  0.17480  Biso   1.000  C
  H15      1.0000 0.44210  0.76840  0.21310  Biso   1.000  H
  C44      1.0000 0.59460  0.27040  0.40390  Biso   1.000  C
  C45      1.0000 0.35730  0.64230  0.19700  Biso   1.000  C
  Mn6      1.0000 0.10520  0.48195  0.92192  Biso   1.000  Mn
  O31      1.0000 0.20980  0.48030  0.01660  Biso   1.000  O
  O32      1.0000 0.20010  0.62990  0.94920  Biso   1.000  O
  O33      1.0000 0.09520  0.34430  0.83450  Biso   1.000  O
  O34      1.0000 0.99900  0.58020  0.87380  Biso   1.000  O
  C46      1.0000 0.84910  0.78170  0.95950  Biso   1.000  C
  H16      1.0000 0.84580  0.75610  0.01210  Biso   1.000  H
  O35      1.0000 0.02320  0.38050  0.99750  Biso   1.000  O
  C47      1.0000 0.23290  0.57530  0.00510  Biso   1.000  C
  C48      1.0000 0.19500  0.41090  0.64070  Biso   1.000  C
  H17      1.0000 0.22560  0.47370  0.65500  Biso   1.000  H
  C49      1.0000 0.13720  0.39950  0.78270  Biso   1.000  C
  C50      1.0000 0.20230  0.37160  0.56270  Biso   1.000  C
  C51      1.0000 0.96330  0.63620  0.92900  Biso   1.000  C
  O36      1.0000 0.17420  0.48600  0.79930  Biso   1.000  O
  C52      1.0000 0.09290  0.26740  0.67480  Biso   1.000  C
  H18      1.0000 0.05790  0.23160  0.71310  Biso   1.000  H
  C53      1.0000 0.90540  0.72960  0.90390  Biso   1.000  C
  C54      1.0000 0.14270  0.35770  0.69700  Biso   1.000  C
  Mn7      1.0000 0.60520  0.01805  0.07808  Biso   1.000  Mn
  O37      1.0000 0.70980  0.01970  0.98340  Biso   1.000  O
  O38      1.0000 0.70010  0.87010  0.05080  Biso   1.000  O
  O39      1.0000 0.59520  0.15570  0.16550  Biso   1.000  O
  O40      1.0000 0.49900  0.91980  0.12620  Biso   1.000  O
  C55      1.0000 0.34910  0.71830  0.04050  Biso   1.000  C
  H19      1.0000 0.34580  0.74390  0.98790  Biso   1.000  H
  O41      1.0000 0.52320  0.11950  0.00250  Biso   1.000  O
  C56      1.0000 0.73290  0.92470  0.99490  Biso   1.000  C
  C57      1.0000 0.69500  0.08910  0.35930  Biso   1.000  C
  H20      1.0000 0.72560  0.02630  0.34500  Biso   1.000  H
  C58      1.0000 0.63720  0.10050  0.21730  Biso   1.000  C
  C59      1.0000 0.70230  0.12840  0.43730  Biso   1.000  C
  C60      1.0000 0.46330  0.86380  0.07100  Biso   1.000  C
  O42      1.0000 0.67420  0.01400  0.20070  Biso   1.000  O
  C61      1.0000 0.59290  0.23260  0.32520  Biso   1.000  C
  H21      1.0000 0.55790  0.26840  0.28690  Biso   1.000  H
  C62      1.0000 0.40540  0.77040  0.09610  Biso   1.000  C
  C63      1.0000 0.64270  0.14230  0.30300  Biso   1.000  C
  Mn8      1.0000 0.89480  0.98195  0.57808  Biso   1.000  Mn
  O43      1.0000 0.79020  0.98030  0.48340  Biso   1.000  O
  O44      1.0000 0.79990  0.12990  0.55080  Biso   1.000  O
  O45      1.0000 0.90480  0.84430  0.66550  Biso   1.000  O
  O46      1.0000 0.00100  0.08020  0.62620  Biso   1.000  O
  C64      1.0000 0.15090  0.28170  0.54050  Biso   1.000  C
  H22      1.0000 0.15420  0.25610  0.48790  Biso   1.000  H
  O47      1.0000 0.97680  0.88050  0.50250  Biso   1.000  O
  C65      1.0000 0.76710  0.07530  0.49490  Biso   1.000  C
  C66      1.0000 0.80500  0.91090  0.85930  Biso   1.000  C
  H23      1.0000 0.77440  0.97370  0.84500  Biso   1.000  H
  C67      1.0000 0.86280  0.89950  0.71730  Biso   1.000  C
  C68      1.0000 0.79770  0.87160  0.93730  Biso   1.000  C
  C69      1.0000 0.03670  0.13620  0.57100  Biso   1.000  C
  O48      1.0000 0.82580  0.98600  0.70070  Biso   1.000  O
  C70      1.0000 0.90710  0.76740  0.82520  Biso   1.000  C
  H24      1.0000 0.94210  0.73160  0.78690  Biso   1.000  H
  C71      1.0000 0.09460  0.22960  0.59610  Biso   1.000  C
  C72      1.0000 0.85730  0.85770  0.80300  Biso   1.000  C
