data_image0
_cell_length_a       14.7147
_cell_length_b       19.5849
_cell_length_c       19.6532
_cell_angle_alpha    90
_cell_angle_beta     90
_cell_angle_gamma    90

_symmetry_space_group_name_H-M    "P 1"
_symmetry_int_tables_number       1

loop_
  _symmetry_equiv_pos_as_xyz
  'x, y, z'

loop_
  _atom_site_label
  _atom_site_occupancy
  _atom_site_fract_x
  _atom_site_fract_y
  _atom_site_fract_z
  _atom_site_thermal_displace_type
  _atom_site_B_iso_or_equiv
  _atom_site_type_symbol
  Cd1      1.0000 0.12157  0.44811  0.26401  Biso   1.000  Cd
  Ba1      1.0000 0.36614  0.38731  0.28626  Biso   1.000  Ba
  C1       1.0000 0.11530  0.31080  0.25130  Biso   1.000  C
  C2       1.0000 0.10790  0.23560  0.25260  Biso   1.000  C
  C3       1.0000 0.17560  0.18630  0.25950  Biso   1.000  C
  H1       1.0000 0.23690  0.19650  0.26490  Biso   1.000  H
  C4       1.0000 0.14290  0.12330  0.25750  Biso   1.000  C
  H2       1.0000 0.18040  0.08540  0.26250  Biso   1.000  H
  C5       1.0000 0.05380  0.11710  0.24810  Biso   1.000  C
  C6       1.0000 0.99420  0.05440  0.24310  Biso   1.000  C
  C7       1.0000 0.21960  0.47520  0.14870  Biso   1.000  C
  C8       1.0000 0.27250  0.49900  0.08950  Biso   1.000  C
  C9       1.0000 0.36280  0.51540  0.08610  Biso   1.000  C
  H3       1.0000 0.40180  0.51400  0.12330  Biso   1.000  H
  C10      1.0000 0.39020  0.53470  0.02050  Biso   1.000  C
  H4       1.0000 0.44970  0.54610  0.00940  Biso   1.000  H
  C11      1.0000 0.32080  0.53510  0.97510  Biso   1.000  C
  C12      1.0000 0.32780  0.54800  0.90010  Biso   1.000  C
  O1       1.0000 0.04260  0.34280  0.24290  Biso   1.000  O
  O2       1.0000 0.19000  0.33620  0.26570  Biso   1.000  O
  O3       1.0000 0.91110  0.06530  0.23110  Biso   1.000  O
  O4       1.0000 0.02920  0.99630  0.25180  Biso   1.000  O
  O5       1.0000 0.26010  0.46970  0.20480  Biso   1.000  O
  O6       1.0000 0.13570  0.46530  0.14270  Biso   1.000  O
  O7       1.0000 0.40520  0.56230  0.87760  Biso   1.000  O
  O8       1.0000 0.25760  0.54130  0.86440  Biso   1.000  O
  S1       1.0000 0.00600  0.19427  0.24050  Biso   1.000  S
  S2       1.0000 0.22010  0.51059  0.01204  Biso   1.000  S
  Cd2      1.0000 0.37843  0.55189  0.76401  Biso   1.000  Cd
  Ba2      1.0000 0.13386  0.61269  0.78626  Biso   1.000  Ba
  C13      1.0000 0.38470  0.68920  0.75130  Biso   1.000  C
  C14      1.0000 0.39210  0.76440  0.75260  Biso   1.000  C
  C15      1.0000 0.32440  0.81370  0.75950  Biso   1.000  C
  H5       1.0000 0.26310  0.80350  0.76490  Biso   1.000  H
  C16      1.0000 0.35710  0.87670  0.75750  Biso   1.000  C
  H6       1.0000 0.31960  0.91460  0.76250  Biso   1.000  H
  C17      1.0000 0.44620  0.88290  0.74810  Biso   1.000  C
  C18      1.0000 0.50580  0.94560  0.74310  Biso   1.000  C
  C19      1.0000 0.28040  0.52480  0.64870  Biso   1.000  C
  C20      1.0000 0.22750  0.50100  0.58950  Biso   1.000  C
  C21      1.0000 0.13720  0.48460  0.58610  Biso   1.000  C
  H7       1.0000 0.09820  0.48600  0.62330  Biso   1.000  H
  C22      1.0000 0.10980  0.46530  0.52050  Biso   1.000  C
  H8       1.0000 0.05030  0.45390  0.50940  Biso   1.000  H
  C23      1.0000 0.17920  0.46490  0.47510  Biso   1.000  C
  C24      1.0000 0.17220  0.45200  0.40010  Biso   1.000  C
  O9       1.0000 0.45740  0.65720  0.74290  Biso   1.000  O
  O10      1.0000 0.31000  0.66380  0.76570  Biso   1.000  O
  O11      1.0000 0.58890  0.93470  0.73110  Biso   1.000  O
  O12      1.0000 0.47080  0.00370  0.75180  Biso   1.000  O
  O13      1.0000 0.23990  0.53030  0.70480  Biso   1.000  O
  O14      1.0000 0.36430  0.53470  0.64270  Biso   1.000  O
  O15      1.0000 0.09480  0.43770  0.37760  Biso   1.000  O
  O16      1.0000 0.24240  0.45870  0.36440  Biso   1.000  O
  S3       1.0000 0.49400  0.80573  0.74050  Biso   1.000  S
  S4       1.0000 0.27990  0.48941  0.51204  Biso   1.000  S
  Cd3      1.0000 0.87843  0.94811  0.23599  Biso   1.000  Cd
  Ba3      1.0000 0.63386  0.88731  0.21374  Biso   1.000  Ba
  C25      1.0000 0.88470  0.81080  0.24870  Biso   1.000  C
  C26      1.0000 0.89210  0.73560  0.24740  Biso   1.000  C
  C27      1.0000 0.82440  0.68630  0.24050  Biso   1.000  C
  H9       1.0000 0.76310  0.69650  0.23510  Biso   1.000  H
  C28      1.0000 0.85710  0.62330  0.24250  Biso   1.000  C
  H10      1.0000 0.81960  0.58540  0.23750  Biso   1.000  H
  C29      1.0000 0.94620  0.61710  0.25190  Biso   1.000  C
  C30      1.0000 0.00580  0.55440  0.25690  Biso   1.000  C
  C31      1.0000 0.78040  0.97520  0.35130  Biso   1.000  C
  C32      1.0000 0.72750  0.99900  0.41050  Biso   1.000  C
  C33      1.0000 0.63720  0.01540  0.41390  Biso   1.000  C
  H11      1.0000 0.59820  0.01400  0.37670  Biso   1.000  H
  C34      1.0000 0.60980  0.03470  0.47950  Biso   1.000  C
  H12      1.0000 0.55030  0.04610  0.49060  Biso   1.000  H
  C35      1.0000 0.67920  0.03510  0.52490  Biso   1.000  C
  C36      1.0000 0.67220  0.04800  0.59990  Biso   1.000  C
  O17      1.0000 0.95740  0.84280  0.25710  Biso   1.000  O
  O18      1.0000 0.81000  0.83620  0.23430  Biso   1.000  O
  O19      1.0000 0.08890  0.56530  0.26890  Biso   1.000  O
  O20      1.0000 0.97080  0.49630  0.24820  Biso   1.000  O
  O21      1.0000 0.73990  0.96970  0.29520  Biso   1.000  O
  O22      1.0000 0.86430  0.96530  0.35730  Biso   1.000  O
  O23      1.0000 0.59480  0.06230  0.62240  Biso   1.000  O
  O24      1.0000 0.74240  0.04130  0.63560  Biso   1.000  O
  S5       1.0000 0.99400  0.69427  0.25950  Biso   1.000  S
  S6       1.0000 0.77990  0.01059  0.48796  Biso   1.000  S
  Cd4      1.0000 0.62157  0.05189  0.73599  Biso   1.000  Cd
  Ba4      1.0000 0.86614  0.11269  0.71374  Biso   1.000  Ba
  C37      1.0000 0.61530  0.18920  0.74870  Biso   1.000  C
  C38      1.0000 0.60790  0.26440  0.74740  Biso   1.000  C
  C39      1.0000 0.67560  0.31370  0.74050  Biso   1.000  C
  H13      1.0000 0.73690  0.30350  0.73510  Biso   1.000  H
  C40      1.0000 0.64290  0.37670  0.74250  Biso   1.000  C
  H14      1.0000 0.68040  0.41460  0.73750  Biso   1.000  H
  C41      1.0000 0.55380  0.38290  0.75190  Biso   1.000  C
  C42      1.0000 0.49420  0.44560  0.75690  Biso   1.000  C
  C43      1.0000 0.71960  0.02480  0.85130  Biso   1.000  C
  C44      1.0000 0.77250  0.00100  0.91050  Biso   1.000  C
  C45      1.0000 0.86280  0.98460  0.91390  Biso   1.000  C
  H15      1.0000 0.90180  0.98600  0.87670  Biso   1.000  H
  C46      1.0000 0.89020  0.96530  0.97950  Biso   1.000  C
  H16      1.0000 0.94970  0.95390  0.99060  Biso   1.000  H
  C47      1.0000 0.82080  0.96490  0.02490  Biso   1.000  C
  C48      1.0000 0.82780  0.95200  0.09990  Biso   1.000  C
  O25      1.0000 0.54260  0.15720  0.75710  Biso   1.000  O
  O26      1.0000 0.69000  0.16380  0.73430  Biso   1.000  O
  O27      1.0000 0.41110  0.43470  0.76890  Biso   1.000  O
  O28      1.0000 0.52920  0.50370  0.74820  Biso   1.000  O
  O29      1.0000 0.76010  0.03030  0.79520  Biso   1.000  O
  O30      1.0000 0.63570  0.03470  0.85730  Biso   1.000  O
  O31      1.0000 0.90520  0.93770  0.12240  Biso   1.000  O
  O32      1.0000 0.75760  0.95870  0.13560  Biso   1.000  O
  S7       1.0000 0.50600  0.30573  0.75950  Biso   1.000  S
  S8       1.0000 0.72010  0.98941  0.98796  Biso   1.000  S
  Cd5      1.0000 0.87843  0.55189  0.73599  Biso   1.000  Cd
  Ba5      1.0000 0.63386  0.61269  0.71374  Biso   1.000  Ba
  C49      1.0000 0.88470  0.68920  0.74870  Biso   1.000  C
  C50      1.0000 0.89210  0.76440  0.74740  Biso   1.000  C
  C51      1.0000 0.82440  0.81370  0.74050  Biso   1.000  C
  H17      1.0000 0.76310  0.80350  0.73510  Biso   1.000  H
  C52      1.0000 0.85710  0.87670  0.74250  Biso   1.000  C
  H18      1.0000 0.81960  0.91460  0.73750  Biso   1.000  H
  C53      1.0000 0.94620  0.88290  0.75190  Biso   1.000  C
  C54      1.0000 0.00580  0.94560  0.75690  Biso   1.000  C
  C55      1.0000 0.78040  0.52480  0.85130  Biso   1.000  C
  C56      1.0000 0.72750  0.50100  0.91050  Biso   1.000  C
  C57      1.0000 0.63720  0.48460  0.91390  Biso   1.000  C
  H19      1.0000 0.59820  0.48600  0.87670  Biso   1.000  H
  C58      1.0000 0.60980  0.46530  0.97950  Biso   1.000  C
  H20      1.0000 0.55030  0.45390  0.99060  Biso   1.000  H
  C59      1.0000 0.67920  0.46490  0.02490  Biso   1.000  C
  C60      1.0000 0.67220  0.45200  0.09990  Biso   1.000  C
  O33      1.0000 0.95740  0.65720  0.75710  Biso   1.000  O
  O34      1.0000 0.81000  0.66380  0.73430  Biso   1.000  O
  O35      1.0000 0.08890  0.93470  0.76890  Biso   1.000  O
  O36      1.0000 0.97080  0.00370  0.74820  Biso   1.000  O
  O37      1.0000 0.73990  0.53030  0.79520  Biso   1.000  O
  O38      1.0000 0.86430  0.53470  0.85730  Biso   1.000  O
  O39      1.0000 0.59480  0.43770  0.12240  Biso   1.000  O
  O40      1.0000 0.74240  0.45870  0.13560  Biso   1.000  O
  S9       1.0000 0.99400  0.80573  0.75950  Biso   1.000  S
  S10      1.0000 0.77990  0.48941  0.98796  Biso   1.000  S
  Cd6      1.0000 0.62157  0.44811  0.23599  Biso   1.000  Cd
  Ba6      1.0000 0.86614  0.38731  0.21374  Biso   1.000  Ba
  C61      1.0000 0.61530  0.31080  0.24870  Biso   1.000  C
  C62      1.0000 0.60790  0.23560  0.24740  Biso   1.000  C
  C63      1.0000 0.67560  0.18630  0.24050  Biso   1.000  C
  H21      1.0000 0.73690  0.19650  0.23510  Biso   1.000  H
  C64      1.0000 0.64290  0.12330  0.24250  Biso   1.000  C
  H22      1.0000 0.68040  0.08540  0.23750  Biso   1.000  H
  C65      1.0000 0.55380  0.11710  0.25190  Biso   1.000  C
  C66      1.0000 0.49420  0.05440  0.25690  Biso   1.000  C
  C67      1.0000 0.71960  0.47520  0.35130  Biso   1.000  C
  C68      1.0000 0.77250  0.49900  0.41050  Biso   1.000  C
  C69      1.0000 0.86280  0.51540  0.41390  Biso   1.000  C
  H23      1.0000 0.90180  0.51400  0.37670  Biso   1.000  H
  C70      1.0000 0.89020  0.53470  0.47950  Biso   1.000  C
  H24      1.0000 0.94970  0.54610  0.49060  Biso   1.000  H
  C71      1.0000 0.82080  0.53510  0.52490  Biso   1.000  C
  C72      1.0000 0.82780  0.54800  0.59990  Biso   1.000  C
  O41      1.0000 0.54260  0.34280  0.25710  Biso   1.000  O
  O42      1.0000 0.69000  0.33620  0.23430  Biso   1.000  O
  O43      1.0000 0.41110  0.06530  0.26890  Biso   1.000  O
  O44      1.0000 0.52920  0.99630  0.24820  Biso   1.000  O
  O45      1.0000 0.76010  0.46970  0.29520  Biso   1.000  O
  O46      1.0000 0.63570  0.46530  0.35730  Biso   1.000  O
  O47      1.0000 0.90520  0.56230  0.62240  Biso   1.000  O
  O48      1.0000 0.75760  0.54130  0.63560  Biso   1.000  O
  S11      1.0000 0.50600  0.19427  0.25950  Biso   1.000  S
  S12      1.0000 0.72010  0.51059  0.48796  Biso   1.000  S
  Cd7      1.0000 0.12157  0.05189  0.76401  Biso   1.000  Cd
  Ba7      1.0000 0.36614  0.11269  0.78626  Biso   1.000  Ba
  C73      1.0000 0.11530  0.18920  0.75130  Biso   1.000  C
  C74      1.0000 0.10790  0.26440  0.75260  Biso   1.000  C
  C75      1.0000 0.17560  0.31370  0.75950  Biso   1.000  C
  H25      1.0000 0.23690  0.30350  0.76490  Biso   1.000  H
  C76      1.0000 0.14290  0.37670  0.75750  Biso   1.000  C
  H26      1.0000 0.18040  0.41460  0.76250  Biso   1.000  H
  C77      1.0000 0.05380  0.38290  0.74810  Biso   1.000  C
  C78      1.0000 0.99420  0.44560  0.74310  Biso   1.000  C
  C79      1.0000 0.21960  0.02480  0.64870  Biso   1.000  C
  C80      1.0000 0.27250  0.00100  0.58950  Biso   1.000  C
  C81      1.0000 0.36280  0.98460  0.58610  Biso   1.000  C
  H27      1.0000 0.40180  0.98600  0.62330  Biso   1.000  H
  C82      1.0000 0.39020  0.96530  0.52050  Biso   1.000  C
  H28      1.0000 0.44970  0.95390  0.50940  Biso   1.000  H
  C83      1.0000 0.32080  0.96490  0.47510  Biso   1.000  C
  C84      1.0000 0.32780  0.95200  0.40010  Biso   1.000  C
  O49      1.0000 0.04260  0.15720  0.74290  Biso   1.000  O
  O50      1.0000 0.19000  0.16380  0.76570  Biso   1.000  O
  O51      1.0000 0.91110  0.43470  0.73110  Biso   1.000  O
  O52      1.0000 0.02920  0.50370  0.75180  Biso   1.000  O
  O53      1.0000 0.26010  0.03030  0.70480  Biso   1.000  O
  O54      1.0000 0.13570  0.03470  0.64270  Biso   1.000  O
  O55      1.0000 0.40520  0.93770  0.37760  Biso   1.000  O
  O56      1.0000 0.25760  0.95870  0.36440  Biso   1.000  O
  S13      1.0000 0.00600  0.30573  0.74050  Biso   1.000  S
  S14      1.0000 0.22010  0.98941  0.51204  Biso   1.000  S
  Cd8      1.0000 0.37843  0.94811  0.26401  Biso   1.000  Cd
  Ba8      1.0000 0.13386  0.88731  0.28626  Biso   1.000  Ba
  C85      1.0000 0.38470  0.81080  0.25130  Biso   1.000  C
  C86      1.0000 0.39210  0.73560  0.25260  Biso   1.000  C
  C87      1.0000 0.32440  0.68630  0.25950  Biso   1.000  C
  H29      1.0000 0.26310  0.69650  0.26490  Biso   1.000  H
  C88      1.0000 0.35710  0.62330  0.25750  Biso   1.000  C
  H30      1.0000 0.31960  0.58540  0.26250  Biso   1.000  H
  C89      1.0000 0.44620  0.61710  0.24810  Biso   1.000  C
  C90      1.0000 0.50580  0.55440  0.24310  Biso   1.000  C
  C91      1.0000 0.28040  0.97520  0.14870  Biso   1.000  C
  C92      1.0000 0.22750  0.99900  0.08950  Biso   1.000  C
  C93      1.0000 0.13720  0.01540  0.08610  Biso   1.000  C
  H31      1.0000 0.09820  0.01400  0.12330  Biso   1.000  H
  C94      1.0000 0.10980  0.03470  0.02050  Biso   1.000  C
  H32      1.0000 0.05030  0.04610  0.00940  Biso   1.000  H
  C95      1.0000 0.17920  0.03510  0.97510  Biso   1.000  C
  C96      1.0000 0.17220  0.04800  0.90010  Biso   1.000  C
  O57      1.0000 0.45740  0.84280  0.24290  Biso   1.000  O
  O58      1.0000 0.31000  0.83620  0.26570  Biso   1.000  O
  O59      1.0000 0.58890  0.56530  0.23110  Biso   1.000  O
  O60      1.0000 0.47080  0.49630  0.25180  Biso   1.000  O
  O61      1.0000 0.23990  0.96970  0.20480  Biso   1.000  O
  O62      1.0000 0.36430  0.96530  0.14270  Biso   1.000  O
  O63      1.0000 0.09480  0.06230  0.87760  Biso   1.000  O
  O64      1.0000 0.24240  0.04130  0.86440  Biso   1.000  O
  S15      1.0000 0.49400  0.69427  0.24050  Biso   1.000  S
  S16      1.0000 0.27990  0.01059  0.01204  Biso   1.000  S
