data_image0
_cell_length_a       17.019
_cell_length_b       6.5844
_cell_length_c       12.262
_cell_angle_alpha    90
_cell_angle_beta     90
_cell_angle_gamma    90

_symmetry_space_group_name_H-M    "P 1"
_symmetry_int_tables_number       1

loop_
  _symmetry_equiv_pos_as_xyz
  'x, y, z'

loop_
  _atom_site_label
  _atom_site_occupancy
  _atom_site_fract_x
  _atom_site_fract_y
  _atom_site_fract_z
  _atom_site_thermal_displace_type
  _atom_site_B_iso_or_equiv
  _atom_site_type_symbol
  O1       1.0000 0.07230  0.92010  0.89083  Biso   1.000  O
  O2       1.0000 0.41325  0.92020  0.58606  Biso   1.000  O
  C1       1.0000 0.27391  0.93170  0.70130  Biso   1.000  C
  H1       1.0000 0.29660  0.05400  0.68000  Biso   1.000  H
  C2       1.0000 0.20527  0.93180  0.76200  Biso   1.000  C
  H2       1.0000 0.18230  0.05410  0.78250  Biso   1.000  H
  O3       1.0000 0.42770  0.07990  0.39083  Biso   1.000  O
  O4       1.0000 0.08675  0.07980  0.08606  Biso   1.000  O
  C3       1.0000 0.22609  0.06830  0.20130  Biso   1.000  C
  H3       1.0000 0.20340  0.94600  0.18000  Biso   1.000  H
  C4       1.0000 0.29473  0.06820  0.26200  Biso   1.000  C
  H4       1.0000 0.31770  0.94590  0.28250  Biso   1.000  H
  O5       1.0000 0.92770  0.42010  0.10917  Biso   1.000  O
  O6       1.0000 0.58675  0.42020  0.41394  Biso   1.000  O
  C5       1.0000 0.72609  0.43170  0.29870  Biso   1.000  C
  H5       1.0000 0.70340  0.55400  0.32000  Biso   1.000  H
  C6       1.0000 0.79473  0.43180  0.23800  Biso   1.000  C
  H6       1.0000 0.81770  0.55410  0.21750  Biso   1.000  H
  O7       1.0000 0.57230  0.57990  0.60917  Biso   1.000  O
  O8       1.0000 0.91325  0.57980  0.91394  Biso   1.000  O
  C7       1.0000 0.77391  0.56830  0.79870  Biso   1.000  C
  H7       1.0000 0.79660  0.44600  0.82000  Biso   1.000  H
  C8       1.0000 0.70527  0.56820  0.73800  Biso   1.000  C
  H8       1.0000 0.68230  0.44590  0.71750  Biso   1.000  H
  O9       1.0000 0.92770  0.07990  0.10917  Biso   1.000  O
  O10      1.0000 0.58675  0.07980  0.41394  Biso   1.000  O
  C9       1.0000 0.72609  0.06830  0.29870  Biso   1.000  C
  H9       1.0000 0.70340  0.94600  0.32000  Biso   1.000  H
  C10      1.0000 0.79473  0.06820  0.23800  Biso   1.000  C
  H10      1.0000 0.81770  0.94590  0.21750  Biso   1.000  H
  O11      1.0000 0.57230  0.92010  0.60917  Biso   1.000  O
  O12      1.0000 0.91325  0.92020  0.91394  Biso   1.000  O
  C11      1.0000 0.77391  0.93170  0.79870  Biso   1.000  C
  H11      1.0000 0.79660  0.05400  0.82000  Biso   1.000  H
  C12      1.0000 0.70527  0.93180  0.73800  Biso   1.000  C
  H12      1.0000 0.68230  0.05410  0.71750  Biso   1.000  H
  O13      1.0000 0.07230  0.57990  0.89083  Biso   1.000  O
  O14      1.0000 0.41325  0.57980  0.58606  Biso   1.000  O
  C13      1.0000 0.27391  0.56830  0.70130  Biso   1.000  C
  H13      1.0000 0.29660  0.44600  0.68000  Biso   1.000  H
  C14      1.0000 0.20527  0.56820  0.76200  Biso   1.000  C
  H14      1.0000 0.18230  0.44590  0.78250  Biso   1.000  H
  O15      1.0000 0.42770  0.42010  0.39083  Biso   1.000  O
  O16      1.0000 0.08675  0.42020  0.08606  Biso   1.000  O
  C15      1.0000 0.22609  0.43170  0.20130  Biso   1.000  C
  H15      1.0000 0.20340  0.55400  0.18000  Biso   1.000  H
  C16      1.0000 0.29473  0.43180  0.26200  Biso   1.000  C
  H16      1.0000 0.31770  0.55410  0.28250  Biso   1.000  H
  Al1      1.0000 0.00000  0.00000  0.00000  Biso   1.000  Al
  Al2      1.0000 0.50000  0.00000  0.50000  Biso   1.000  Al
  Al3      1.0000 0.00000  0.50000  0.00000  Biso   1.000  Al
  Al4      1.0000 0.50000  0.50000  0.50000  Biso   1.000  Al
  O17      1.0000 0.00511  0.75000  0.06418  Biso   1.000  O
  H17      1.0000 0.01700  0.75000  0.12840  Biso   1.000  H
  C17      1.0000 0.38409  0.75000  0.60990  Biso   1.000  C
  C18      1.0000 0.30865  0.75000  0.67230  Biso   1.000  C
  C19      1.0000 0.09934  0.75000  0.86290  Biso   1.000  C
  C20      1.0000 0.17087  0.75000  0.79230  Biso   1.000  C
  O18      1.0000 0.49489  0.25000  0.56418  Biso   1.000  O
  H18      1.0000 0.48300  0.25000  0.62840  Biso   1.000  H
  C21      1.0000 0.11591  0.25000  0.10990  Biso   1.000  C
  C22      1.0000 0.19135  0.25000  0.17230  Biso   1.000  C
  C23      1.0000 0.40066  0.25000  0.36290  Biso   1.000  C
  C24      1.0000 0.32913  0.25000  0.29230  Biso   1.000  C
  O19      1.0000 0.99489  0.25000  0.93582  Biso   1.000  O
  H19      1.0000 0.98300  0.25000  0.87160  Biso   1.000  H
  C25      1.0000 0.61591  0.25000  0.39010  Biso   1.000  C
  C26      1.0000 0.69135  0.25000  0.32770  Biso   1.000  C
  C27      1.0000 0.90066  0.25000  0.13710  Biso   1.000  C
  C28      1.0000 0.82913  0.25000  0.20770  Biso   1.000  C
  O20      1.0000 0.50511  0.75000  0.43582  Biso   1.000  O
  H20      1.0000 0.51700  0.75000  0.37160  Biso   1.000  H
  C29      1.0000 0.88409  0.75000  0.89010  Biso   1.000  C
  C30      1.0000 0.80865  0.75000  0.82770  Biso   1.000  C
  C31      1.0000 0.59934  0.75000  0.63710  Biso   1.000  C
  C32      1.0000 0.67087  0.75000  0.70770  Biso   1.000  C
