data_SABVUN_clean_h_min
_audit_creation_date              2014-07-02
_audit_creation_method            'Materials Studio'
_symmetry_space_group_name_H-M    'P1'
_symmetry_Int_Tables_number       1
_symmetry_cell_setting            triclinic
loop_
_symmetry_equiv_pos_as_xyz
  x,y,z
_cell_length_a                    13.2170
_cell_length_b                    22.0432
_cell_length_c                    22.0432
_cell_angle_alpha                 71.0797
_cell_angle_beta                  72.5547
_cell_angle_gamma                 72.5545
loop_
_atom_site_label
_atom_site_type_symbol
_atom_site_fract_x
_atom_site_fract_y
_atom_site_fract_z
_atom_site_U_iso_or_equiv
_atom_site_adp_type
_atom_site_occupancy
Al1    Al    0.25322   0.25145   0.00027   0.01267  Uiso   1.00
Al2    Al    0.00378   0.25094   0.00003   0.01267  Uiso   1.00
C3     C     0.07535   0.03414   0.00276   0.01267  Uiso   1.00
C4     C     0.17982   0.24703   0.21771   0.01267  Uiso   1.00
C5     C     0.14468   0.25136   0.28333   0.01267  Uiso   1.00
C6     C     0.11105   0.46926   0.49625   0.01267  Uiso   1.00
C7     C     0.42895   0.46914   0.49632   0.01267  Uiso   1.00
C8     C     0.32696   0.25148   0.28334   0.01267  Uiso   1.00
C9     C     0.36201   0.24691   0.21777   0.01267  Uiso   1.00
C10    C     0.39317   0.03422   0.00264   0.01267  Uiso   1.00
C11    C     0.46594   0.06789   0.00578   0.01267  Uiso   1.00
C12    C     0.43017   0.13877   0.00768   0.01267  Uiso   1.00
C13    C     0.28901   0.24509   0.18362   0.01267  Uiso   1.00
C14    C     0.32477   0.24490   0.11226   0.01267  Uiso   1.00
C15    C     0.21784   0.25334   0.31743   0.01267  Uiso   1.00
C16    C     0.18174   0.25495   0.38843   0.01267  Uiso   1.00
C17    C     0.03872   0.43535   0.49311   0.01267  Uiso   1.00
C18    C     0.07594   0.36404   0.49194   0.01267  Uiso   1.00
O19    O     0.32980   0.16825   0.00764   0.01267  Uiso   1.00
O20    O     0.42520   0.24529   0.08281   0.01267  Uiso   1.00
O21    O     0.25270   0.25543   0.41765   0.01267  Uiso   1.00
O22    O     0.00484   0.33434   0.49239   0.01267  Uiso   1.00
O23    O     0.17642   0.33491   0.49289   0.01267  Uiso   1.00
O24    O     0.08135   0.25454   0.41757   0.01267  Uiso   1.00
O25    O     0.25293   0.24589   0.08303   0.01267  Uiso   1.00
O26    O     0.00232   0.16795   0.00653   0.01267  Uiso   1.00
O27    O     0.37785   0.28006   0.47279   0.01267  Uiso   1.00
O28    O     0.12679   0.22507   0.02958   0.01267  Uiso   1.00
H29    H     0.13389   0.05786   0.00544   0.01267  Uiso   1.00
H30    H     0.12093   0.24605   0.19334   0.01267  Uiso   1.00
H31    H     0.05970   0.25368   0.30700   0.01267  Uiso   1.00
H32    H     0.19545   0.44514   0.49480   0.01267  Uiso   1.00
H33    H     0.36993   0.44501   0.49508   0.01267  Uiso   1.00
H34    H     0.38539   0.25409   0.30715   0.01267  Uiso   1.00
H35    H     0.44627   0.24578   0.19336   0.01267  Uiso   1.00
H36    H     0.30834   0.05820   0.00512   0.01267  Uiso   1.00
H37    H     0.37660   0.31503   0.44061   0.00000  Uiso   1.00
H38    H     0.12403   0.19444   0.06579   0.00000  Uiso   1.00
Al39   Al    0.75322   0.25145   0.00027   0.01267  Uiso   1.00
Al40   Al    0.50378   0.25094   0.00003   0.01267  Uiso   1.00
C41    C     0.57535   0.03414   0.00276   0.01267  Uiso   1.00
C42    C     0.67982   0.24703   0.21771   0.01267  Uiso   1.00
C43    C     0.64468   0.25136   0.28333   0.01267  Uiso   1.00
C44    C     0.61105   0.46926   0.49625   0.01267  Uiso   1.00
C45    C     0.92895   0.46914   0.49632   0.01267  Uiso   1.00
C46    C     0.82696   0.25148   0.28334   0.01267  Uiso   1.00
C47    C     0.86201   0.24691   0.21777   0.01267  Uiso   1.00
C48    C     0.89317   0.03422   0.00264   0.01267  Uiso   1.00
C49    C     0.96594   0.06789   0.00578   0.01267  Uiso   1.00
C50    C     0.93017   0.13877   0.00768   0.01267  Uiso   1.00
C51    C     0.78901   0.24509   0.18362   0.01267  Uiso   1.00
C52    C     0.82477   0.24490   0.11226   0.01267  Uiso   1.00
C53    C     0.71784   0.25334   0.31743   0.01267  Uiso   1.00
C54    C     0.68174   0.25495   0.38843   0.01267  Uiso   1.00
C55    C     0.53872   0.43535   0.49311   0.01267  Uiso   1.00
C56    C     0.57594   0.36404   0.49194   0.01267  Uiso   1.00
O57    O     0.82980   0.16825   0.00764   0.01267  Uiso   1.00
O58    O     0.92520   0.24529   0.08281   0.01267  Uiso   1.00
O59    O     0.75270   0.25543   0.41765   0.01267  Uiso   1.00
O60    O     0.50484   0.33434   0.49239   0.01267  Uiso   1.00
O61    O     0.67642   0.33491   0.49289   0.01267  Uiso   1.00
O62    O     0.58135   0.25454   0.41757   0.01267  Uiso   1.00
O63    O     0.75293   0.24589   0.08303   0.01267  Uiso   1.00
O64    O     0.50232   0.16795   0.00653   0.01267  Uiso   1.00
O65    O     0.87785   0.28006   0.47279   0.01267  Uiso   1.00
O66    O     0.62679   0.22507   0.02958   0.01267  Uiso   1.00
H67    H     0.63389   0.05786   0.00544   0.01267  Uiso   1.00
H68    H     0.62093   0.24605   0.19334   0.01267  Uiso   1.00
H69    H     0.55970   0.25368   0.30700   0.01267  Uiso   1.00
H70    H     0.69545   0.44514   0.49480   0.01267  Uiso   1.00
H71    H     0.86993   0.44501   0.49508   0.01267  Uiso   1.00
H72    H     0.88539   0.25409   0.30715   0.01267  Uiso   1.00
H73    H     0.94627   0.24578   0.19336   0.01267  Uiso   1.00
H74    H     0.80834   0.05820   0.00512   0.01267  Uiso   1.00
H75    H     0.87660   0.31503   0.44061   0.00000  Uiso   1.00
H76    H     0.62403   0.19444   0.06579   0.00000  Uiso   1.00
Al77   Al    0.25322   0.75145   0.00027   0.01267  Uiso   1.00
Al78   Al    0.00378   0.75094   0.00003   0.01267  Uiso   1.00
C79    C     0.07535   0.53414   0.00276   0.01267  Uiso   1.00
C80    C     0.17982   0.74703   0.21771   0.01267  Uiso   1.00
C81    C     0.14468   0.75136   0.28333   0.01267  Uiso   1.00
C82    C     0.11105   0.96926   0.49625   0.01267  Uiso   1.00
C83    C     0.42895   0.96914   0.49632   0.01267  Uiso   1.00
C84    C     0.32696   0.75148   0.28334   0.01267  Uiso   1.00
C85    C     0.36201   0.74691   0.21777   0.01267  Uiso   1.00
C86    C     0.39317   0.53422   0.00264   0.01267  Uiso   1.00
C87    C     0.46594   0.56789   0.00578   0.01267  Uiso   1.00
C88    C     0.43017   0.63877   0.00768   0.01267  Uiso   1.00
C89    C     0.28901   0.74509   0.18362   0.01267  Uiso   1.00
C90    C     0.32477   0.74490   0.11226   0.01267  Uiso   1.00
C91    C     0.21784   0.75334   0.31743   0.01267  Uiso   1.00
C92    C     0.18174   0.75495   0.38843   0.01267  Uiso   1.00
C93    C     0.03872   0.93535   0.49311   0.01267  Uiso   1.00
C94    C     0.07594   0.86404   0.49194   0.01267  Uiso   1.00
O95    O     0.32980   0.66825   0.00764   0.01267  Uiso   1.00
O96    O     0.42520   0.74529   0.08281   0.01267  Uiso   1.00
O97    O     0.25270   0.75543   0.41765   0.01267  Uiso   1.00
O98    O     0.00484   0.83434   0.49239   0.01267  Uiso   1.00
O99    O     0.17642   0.83491   0.49289   0.01267  Uiso   1.00
O100   O     0.08135   0.75454   0.41757   0.01267  Uiso   1.00
O101   O     0.25293   0.74589   0.08303   0.01267  Uiso   1.00
O102   O     0.00232   0.66795   0.00653   0.01267  Uiso   1.00
O103   O     0.37785   0.78006   0.47279   0.01267  Uiso   1.00
O104   O     0.12679   0.72507   0.02958   0.01267  Uiso   1.00
H105   H     0.13389   0.55786   0.00544   0.01267  Uiso   1.00
H106   H     0.12093   0.74605   0.19334   0.01267  Uiso   1.00
H107   H     0.05970   0.75368   0.30700   0.01267  Uiso   1.00
H108   H     0.19545   0.94514   0.49480   0.01267  Uiso   1.00
H109   H     0.36993   0.94501   0.49508   0.01267  Uiso   1.00
H110   H     0.38539   0.75409   0.30715   0.01267  Uiso   1.00
H111   H     0.44627   0.74578   0.19336   0.01267  Uiso   1.00
H112   H     0.30834   0.55820   0.00512   0.01267  Uiso   1.00
H113   H     0.37660   0.81503   0.44061   0.00000  Uiso   1.00
H114   H     0.12403   0.69444   0.06579   0.00000  Uiso   1.00
Al115  Al    0.75322   0.75145   0.00027   0.01267  Uiso   1.00
Al116  Al    0.50378   0.75094   0.00003   0.01267  Uiso   1.00
C117   C     0.57535   0.53414   0.00276   0.01267  Uiso   1.00
C118   C     0.67982   0.74703   0.21771   0.01267  Uiso   1.00
C119   C     0.64468   0.75136   0.28333   0.01267  Uiso   1.00
C120   C     0.61105   0.96926   0.49625   0.01267  Uiso   1.00
C121   C     0.92895   0.96914   0.49632   0.01267  Uiso   1.00
C122   C     0.82696   0.75148   0.28334   0.01267  Uiso   1.00
C123   C     0.86201   0.74691   0.21777   0.01267  Uiso   1.00
C124   C     0.89317   0.53422   0.00264   0.01267  Uiso   1.00
C125   C     0.96594   0.56789   0.00578   0.01267  Uiso   1.00
C126   C     0.93017   0.63877   0.00768   0.01267  Uiso   1.00
C127   C     0.78901   0.74509   0.18362   0.01267  Uiso   1.00
C128   C     0.82477   0.74490   0.11226   0.01267  Uiso   1.00
C129   C     0.71784   0.75334   0.31743   0.01267  Uiso   1.00
C130   C     0.68174   0.75495   0.38843   0.01267  Uiso   1.00
C131   C     0.53872   0.93535   0.49311   0.01267  Uiso   1.00
C132   C     0.57594   0.86404   0.49194   0.01267  Uiso   1.00
O133   O     0.82980   0.66825   0.00764   0.01267  Uiso   1.00
O134   O     0.92520   0.74529   0.08281   0.01267  Uiso   1.00
O135   O     0.75270   0.75543   0.41765   0.01267  Uiso   1.00
O136   O     0.50484   0.83434   0.49239   0.01267  Uiso   1.00
O137   O     0.67642   0.83491   0.49289   0.01267  Uiso   1.00
O138   O     0.58135   0.75454   0.41757   0.01267  Uiso   1.00
O139   O     0.75293   0.74589   0.08303   0.01267  Uiso   1.00
O140   O     0.50232   0.66795   0.00653   0.01267  Uiso   1.00
O141   O     0.87785   0.78006   0.47279   0.01267  Uiso   1.00
O142   O     0.62679   0.72507   0.02958   0.01267  Uiso   1.00
H143   H     0.63389   0.55786   0.00544   0.01267  Uiso   1.00
H144   H     0.62093   0.74605   0.19334   0.01267  Uiso   1.00
H145   H     0.55970   0.75368   0.30700   0.01267  Uiso   1.00
H146   H     0.69545   0.94514   0.49480   0.01267  Uiso   1.00
H147   H     0.86993   0.94501   0.49508   0.01267  Uiso   1.00
H148   H     0.88539   0.75409   0.30715   0.01267  Uiso   1.00
H149   H     0.94627   0.74578   0.19336   0.01267  Uiso   1.00
H150   H     0.80834   0.55820   0.00512   0.01267  Uiso   1.00
H151   H     0.87660   0.81503   0.44061   0.00000  Uiso   1.00
H152   H     0.62403   0.69444   0.06579   0.00000  Uiso   1.00
Al153  Al    0.25322   0.25145   0.50027   0.01267  Uiso   1.00
Al154  Al    0.00378   0.25094   0.50003   0.01267  Uiso   1.00
C155   C     0.07535   0.03414   0.50276   0.01267  Uiso   1.00
C156   C     0.17982   0.24703   0.71771   0.01267  Uiso   1.00
C157   C     0.14468   0.25136   0.78333   0.01267  Uiso   1.00
C158   C     0.11105   0.46926   0.99625   0.01267  Uiso   1.00
C159   C     0.42895   0.46914   0.99632   0.01267  Uiso   1.00
C160   C     0.32696   0.25148   0.78334   0.01267  Uiso   1.00
C161   C     0.36201   0.24691   0.71777   0.01267  Uiso   1.00
C162   C     0.39317   0.03422   0.50264   0.01267  Uiso   1.00
C163   C     0.46594   0.06789   0.50578   0.01267  Uiso   1.00
C164   C     0.43017   0.13877   0.50768   0.01267  Uiso   1.00
C165   C     0.28901   0.24509   0.68362   0.01267  Uiso   1.00
C166   C     0.32477   0.24490   0.61226   0.01267  Uiso   1.00
C167   C     0.21784   0.25334   0.81743   0.01267  Uiso   1.00
C168   C     0.18174   0.25495   0.88843   0.01267  Uiso   1.00
C169   C     0.03872   0.43535   0.99311   0.01267  Uiso   1.00
C170   C     0.07594   0.36404   0.99194   0.01267  Uiso   1.00
O171   O     0.32980   0.16825   0.50764   0.01267  Uiso   1.00
O172   O     0.42520   0.24529   0.58281   0.01267  Uiso   1.00
O173   O     0.25270   0.25543   0.91765   0.01267  Uiso   1.00
O174   O     0.00484   0.33434   0.99239   0.01267  Uiso   1.00
O175   O     0.17642   0.33491   0.99289   0.01267  Uiso   1.00
O176   O     0.08135   0.25454   0.91757   0.01267  Uiso   1.00
O177   O     0.25293   0.24589   0.58303   0.01267  Uiso   1.00
O178   O     0.00232   0.16795   0.50653   0.01267  Uiso   1.00
O179   O     0.37785   0.28006   0.97279   0.01267  Uiso   1.00
O180   O     0.12679   0.22507   0.52958   0.01267  Uiso   1.00
H181   H     0.13389   0.05786   0.50544   0.01267  Uiso   1.00
H182   H     0.12093   0.24605   0.69334   0.01267  Uiso   1.00
H183   H     0.05970   0.25368   0.80700   0.01267  Uiso   1.00
H184   H     0.19545   0.44514   0.99480   0.01267  Uiso   1.00
H185   H     0.36993   0.44501   0.99508   0.01267  Uiso   1.00
H186   H     0.38539   0.25409   0.80715   0.01267  Uiso   1.00
H187   H     0.44627   0.24578   0.69336   0.01267  Uiso   1.00
H188   H     0.30834   0.05820   0.50512   0.01267  Uiso   1.00
H189   H     0.37660   0.31503   0.94061   0.00000  Uiso   1.00
H190   H     0.12403   0.19444   0.56579   0.00000  Uiso   1.00
Al191  Al    0.75322   0.25145   0.50027   0.01267  Uiso   1.00
Al192  Al    0.50378   0.25094   0.50003   0.01267  Uiso   1.00
C193   C     0.57535   0.03414   0.50276   0.01267  Uiso   1.00
C194   C     0.67982   0.24703   0.71771   0.01267  Uiso   1.00
C195   C     0.64468   0.25136   0.78333   0.01267  Uiso   1.00
C196   C     0.61105   0.46926   0.99625   0.01267  Uiso   1.00
C197   C     0.92895   0.46914   0.99632   0.01267  Uiso   1.00
C198   C     0.82696   0.25148   0.78334   0.01267  Uiso   1.00
C199   C     0.86201   0.24691   0.71777   0.01267  Uiso   1.00
C200   C     0.89317   0.03422   0.50264   0.01267  Uiso   1.00
C201   C     0.96594   0.06789   0.50578   0.01267  Uiso   1.00
C202   C     0.93017   0.13877   0.50768   0.01267  Uiso   1.00
C203   C     0.78901   0.24509   0.68362   0.01267  Uiso   1.00
C204   C     0.82477   0.24490   0.61226   0.01267  Uiso   1.00
C205   C     0.71784   0.25334   0.81743   0.01267  Uiso   1.00
C206   C     0.68174   0.25495   0.88843   0.01267  Uiso   1.00
C207   C     0.53872   0.43535   0.99311   0.01267  Uiso   1.00
C208   C     0.57594   0.36404   0.99194   0.01267  Uiso   1.00
O209   O     0.82980   0.16825   0.50764   0.01267  Uiso   1.00
O210   O     0.92520   0.24529   0.58281   0.01267  Uiso   1.00
O211   O     0.75270   0.25543   0.91765   0.01267  Uiso   1.00
O212   O     0.50484   0.33434   0.99239   0.01267  Uiso   1.00
O213   O     0.67642   0.33491   0.99289   0.01267  Uiso   1.00
O214   O     0.58135   0.25454   0.91757   0.01267  Uiso   1.00
O215   O     0.75293   0.24589   0.58303   0.01267  Uiso   1.00
O216   O     0.50232   0.16795   0.50653   0.01267  Uiso   1.00
O217   O     0.87785   0.28006   0.97279   0.01267  Uiso   1.00
O218   O     0.62679   0.22507   0.52958   0.01267  Uiso   1.00
H219   H     0.63389   0.05786   0.50544   0.01267  Uiso   1.00
H220   H     0.62093   0.24605   0.69334   0.01267  Uiso   1.00
H221   H     0.55970   0.25368   0.80700   0.01267  Uiso   1.00
H222   H     0.69545   0.44514   0.99480   0.01267  Uiso   1.00
H223   H     0.86993   0.44501   0.99508   0.01267  Uiso   1.00
H224   H     0.88539   0.25409   0.80715   0.01267  Uiso   1.00
H225   H     0.94627   0.24578   0.69336   0.01267  Uiso   1.00
H226   H     0.80834   0.05820   0.50512   0.01267  Uiso   1.00
H227   H     0.87660   0.31503   0.94061   0.00000  Uiso   1.00
H228   H     0.62403   0.19444   0.56579   0.00000  Uiso   1.00
Al229  Al    0.25322   0.75145   0.50027   0.01267  Uiso   1.00
Al230  Al    0.00378   0.75094   0.50003   0.01267  Uiso   1.00
C231   C     0.07535   0.53414   0.50276   0.01267  Uiso   1.00
C232   C     0.17982   0.74703   0.71771   0.01267  Uiso   1.00
C233   C     0.14468   0.75136   0.78333   0.01267  Uiso   1.00
C234   C     0.11105   0.96926   0.99625   0.01267  Uiso   1.00
C235   C     0.42895   0.96914   0.99632   0.01267  Uiso   1.00
C236   C     0.32696   0.75148   0.78334   0.01267  Uiso   1.00
C237   C     0.36201   0.74691   0.71777   0.01267  Uiso   1.00
C238   C     0.39317   0.53422   0.50264   0.01267  Uiso   1.00
C239   C     0.46594   0.56789   0.50578   0.01267  Uiso   1.00
C240   C     0.43017   0.63877   0.50768   0.01267  Uiso   1.00
C241   C     0.28901   0.74509   0.68362   0.01267  Uiso   1.00
C242   C     0.32477   0.74490   0.61226   0.01267  Uiso   1.00
C243   C     0.21784   0.75334   0.81743   0.01267  Uiso   1.00
C244   C     0.18174   0.75495   0.88843   0.01267  Uiso   1.00
C245   C     0.03872   0.93535   0.99311   0.01267  Uiso   1.00
C246   C     0.07594   0.86404   0.99194   0.01267  Uiso   1.00
O247   O     0.32980   0.66825   0.50764   0.01267  Uiso   1.00
O248   O     0.42520   0.74529   0.58281   0.01267  Uiso   1.00
O249   O     0.25270   0.75543   0.91765   0.01267  Uiso   1.00
O250   O     0.00484   0.83434   0.99239   0.01267  Uiso   1.00
O251   O     0.17642   0.83491   0.99289   0.01267  Uiso   1.00
O252   O     0.08135   0.75454   0.91757   0.01267  Uiso   1.00
O253   O     0.25293   0.74589   0.58303   0.01267  Uiso   1.00
O254   O     0.00232   0.66795   0.50653   0.01267  Uiso   1.00
O255   O     0.37785   0.78006   0.97279   0.01267  Uiso   1.00
O256   O     0.12679   0.72507   0.52958   0.01267  Uiso   1.00
H257   H     0.13389   0.55786   0.50544   0.01267  Uiso   1.00
H258   H     0.12093   0.74605   0.69334   0.01267  Uiso   1.00
H259   H     0.05970   0.75368   0.80700   0.01267  Uiso   1.00
H260   H     0.19545   0.94514   0.99480   0.01267  Uiso   1.00
H261   H     0.36993   0.94501   0.99508   0.01267  Uiso   1.00
H262   H     0.38539   0.75409   0.80715   0.01267  Uiso   1.00
H263   H     0.44627   0.74578   0.69336   0.01267  Uiso   1.00
H264   H     0.30834   0.55820   0.50512   0.01267  Uiso   1.00
H265   H     0.37660   0.81503   0.94061   0.00000  Uiso   1.00
H266   H     0.12403   0.69444   0.56579   0.00000  Uiso   1.00
Al267  Al    0.75322   0.75145   0.50027   0.01267  Uiso   1.00
Al268  Al    0.50378   0.75094   0.50003   0.01267  Uiso   1.00
C269   C     0.57535   0.53414   0.50276   0.01267  Uiso   1.00
C270   C     0.67982   0.74703   0.71771   0.01267  Uiso   1.00
C271   C     0.64468   0.75136   0.78333   0.01267  Uiso   1.00
C272   C     0.61105   0.96926   0.99625   0.01267  Uiso   1.00
C273   C     0.92895   0.96914   0.99632   0.01267  Uiso   1.00
C274   C     0.82696   0.75148   0.78334   0.01267  Uiso   1.00
C275   C     0.86201   0.74691   0.71777   0.01267  Uiso   1.00
C276   C     0.89317   0.53422   0.50264   0.01267  Uiso   1.00
C277   C     0.96594   0.56789   0.50578   0.01267  Uiso   1.00
C278   C     0.93017   0.63877   0.50768   0.01267  Uiso   1.00
C279   C     0.78901   0.74509   0.68362   0.01267  Uiso   1.00
C280   C     0.82477   0.74490   0.61226   0.01267  Uiso   1.00
C281   C     0.71784   0.75334   0.81743   0.01267  Uiso   1.00
C282   C     0.68174   0.75495   0.88843   0.01267  Uiso   1.00
C283   C     0.53872   0.93535   0.99311   0.01267  Uiso   1.00
C284   C     0.57594   0.86404   0.99194   0.01267  Uiso   1.00
O285   O     0.82980   0.66825   0.50764   0.01267  Uiso   1.00
O286   O     0.92520   0.74529   0.58281   0.01267  Uiso   1.00
O287   O     0.75270   0.75543   0.91765   0.01267  Uiso   1.00
O288   O     0.50484   0.83434   0.99239   0.01267  Uiso   1.00
O289   O     0.67642   0.83491   0.99289   0.01267  Uiso   1.00
O290   O     0.58135   0.75454   0.91757   0.01267  Uiso   1.00
O291   O     0.75293   0.74589   0.58303   0.01267  Uiso   1.00
O292   O     0.50232   0.66795   0.50653   0.01267  Uiso   1.00
O293   O     0.87785   0.78006   0.97279   0.01267  Uiso   1.00
O294   O     0.62679   0.72507   0.52958   0.01267  Uiso   1.00
H295   H     0.63389   0.55786   0.50544   0.01267  Uiso   1.00
H296   H     0.62093   0.74605   0.69334   0.01267  Uiso   1.00
H297   H     0.55970   0.75368   0.80700   0.01267  Uiso   1.00
H298   H     0.69545   0.94514   0.99480   0.01267  Uiso   1.00
H299   H     0.86993   0.94501   0.99508   0.01267  Uiso   1.00
H300   H     0.88539   0.75409   0.80715   0.01267  Uiso   1.00
H301   H     0.94627   0.74578   0.69336   0.01267  Uiso   1.00
H302   H     0.80834   0.55820   0.50512   0.01267  Uiso   1.00
H303   H     0.87660   0.81503   0.94061   0.00000  Uiso   1.00
H304   H     0.62403   0.69444   0.56579   0.00000  Uiso   1.00
loop_
_geom_bond_atom_site_label_1
_geom_bond_atom_site_label_2
_geom_bond_distance
_geom_bond_site_symmetry_2
_ccdc_geom_bond_type
Al1    O19     1.791   .     S
Al1    O25     1.787   .     S
Al1    O28     1.800   .     S
Al1    O173    1.797   1_554 S
Al1    O175    1.796   1_554 S
Al1    O179    1.804   1_554 S
Al2    O26     1.794   .     S
Al2    O28     1.797   .     S
Al2    O58     1.794   1_455 S
Al2    O174    1.795   1_554 S
Al2    O176    1.789   1_554 S
Al2    O217    1.803   1_454 A
C3     H29     1.080   .     S
C3     C234    1.406   1_544 A
C3     C49     1.407   1_455 S
C4     C5      1.406   .     A
C4     C13     1.408   .     A
C4     H30     1.079   .     S
C5     C15     1.409   .     A
C5     H31     1.081   .     S
C6     C231    1.406   .     A
C6     C17     1.407   .     A
C6     H32     1.078   .     S
C7     C238    1.409   .     A
C7     C55     1.410   .     A
C7     H33     1.079   .     S
C8     C9      1.407   .     A
C8     C15     1.408   .     A
C8     H34     1.079   .     S
C9     C13     1.406   .     A
C9     H35     1.078   .     S
C10    C11     1.408   .     A
C10    H36     1.080   .     S
C10    C235    1.409   1_544 A
C11    C41     1.407   .     A
C11    C12     1.501   .     S
C12    O19     1.291   .     A
C12    O64     1.291   .     A
C13    C14     1.502   .     S
C14    O20     1.292   .     A
C14    O25     1.289   .     A
C15    C16     1.502   .     S
C16    O21     1.291   .     A
C16    O24     1.291   .     A
C17    C18     1.506   .     S
C17    C45     1.410   1_455 S
C18    O22     1.293   .     A
C18    O23     1.293   .     A
O20    Al40    1.794   .     S
O21    Al153   1.797   .     S
O22    Al154   1.795   .     S
O23    Al153   1.796   .     S
O24    Al154   1.789   .     S
O26    C50     1.291   1_455 A
O27    Al153   1.804   .     S
O27    Al192   1.803   .     S
O27    H37     0.862   .     S
O28    H38     0.861   .     S
Al39   O57     1.791   .     S
Al39   O63     1.787   .     S
Al39   O66     1.800   .     S
Al39   O211    1.797   1_554 A
Al39   O213    1.796   1_554 S
Al39   O217    1.804   1_554 A
Al40   O64     1.794   .     S
Al40   O66     1.797   .     S
Al40   O212    1.795   1_554 A
Al40   O214    1.789   1_554 S
Al40   O179    1.803   1_554 A
C41    H67     1.080   .     S
C41    C272    1.406   1_544 A
C42    C43     1.406   .     A
C42    C51     1.408   .     A
C42    H68     1.079   .     S
C43    C53     1.409   .     A
C43    H69     1.081   .     S
C44    C269    1.406   .     A
C44    C55     1.407   .     A
C44    H70     1.078   .     S
C45    C276    1.409   .     A
C45    H71     1.079   .     S
C45    C17     1.410   1_655 S
C46    C47     1.407   .     A
C46    C53     1.408   .     A
C46    H72     1.079   .     S
C47    C51     1.406   .     A
C47    H73     1.078   .     S
C48    C49     1.408   .     A
C48    H74     1.080   .     S
C48    C273    1.409   1_544 A
C49    C50     1.501   .     S
C49    C3      1.407   1_655 S
C50    O57     1.291   .     A
C50    O26     1.291   1_655 A
C51    C52     1.502   .     S
C52    O58     1.292   .     A
C52    O63     1.289   .     A
C53    C54     1.502   .     S
C54    O59     1.291   .     A
C54    O62     1.291   .     A
C55    C56     1.506   .     S
C56    O60     1.293   .     A
C56    O61     1.293   .     A
O58    Al2     1.794   1_655 S
O59    Al191   1.797   .     S
O60    Al192   1.795   .     S
O61    Al191   1.796   .     S
O62    Al192   1.789   .     S
O65    Al191   1.804   .     S
O65    H75     0.862   .     S
O65    Al154   1.803   1_655 A
O66    H76     0.861   .     S
Al77   O95     1.791   .     S
Al77   O101    1.787   .     S
Al77   O104    1.800   .     S
Al77   O249    1.797   1_554 S
Al77   O251    1.796   1_554 A
Al77   O255    1.804   1_554 A
Al78   O102    1.794   .     S
Al78   O104    1.797   .     S
Al78   O134    1.794   1_455 S
Al78   O250    1.795   1_554 A
Al78   O252    1.789   1_554 A
Al78   O293    1.803   1_454 S
C79    H105    1.080   .     S
C79    C158    1.406   1_554 A
C79    C125    1.407   1_455 A
C80    C81     1.406   .     A
C80    C89     1.408   .     A
C80    H106    1.079   .     S
C81    C91     1.409   .     A
C81    H107    1.081   .     S
C82    C93     1.407   .     A
C82    H108    1.078   .     S
C82    C155    1.406   1_565 S
C83    C131    1.410   .     A
C83    H109    1.079   .     S
C83    C162    1.409   1_565 A
C84    C85     1.407   .     A
C84    C91     1.408   .     A
C84    H110    1.079   .     S
C85    C89     1.406   .     A
C85    H111    1.078   .     S
C86    C87     1.408   .     A
C86    H112    1.080   .     S
C86    C159    1.409   1_554 A
C87    C117    1.407   .     A
C87    C88     1.501   .     S
C88    O95     1.291   .     A
C88    O140    1.291   .     A
C89    C90     1.502   .     S
C90    O96     1.292   .     A
C90    O101    1.289   .     A
C91    C92     1.502   .     S
C92    O97     1.291   .     A
C92    O100    1.291   .     A
C93    C94     1.506   .     S
C93    C121    1.410   1_455 S
C94    O98     1.293   .     A
C94    O99     1.293   .     A
O96    Al116   1.794   .     S
O97    Al229   1.797   .     S
O98    Al230   1.795   .     S
O99    Al229   1.796   .     S
O100   Al230   1.789   .     S
O102   C126    1.291   1_455 S
O103   Al229   1.804   .     S
O103   Al268   1.803   .     S
O103   H113    0.862   .     S
O104   H114    0.861   .     S
Al115  O133    1.791   .     S
Al115  O139    1.787   .     S
Al115  O142    1.800   .     S
Al115  O287    1.797   1_554 S
Al115  O289    1.796   1_554 S
Al115  O293    1.804   1_554 S
Al116  O140    1.794   .     S
Al116  O142    1.797   .     S
Al116  O288    1.795   1_554 S
Al116  O290    1.789   1_554 S
Al116  O255    1.803   1_554 S
C117   H143    1.080   .     S
C117   C196    1.406   1_554 S
C118   C119    1.406   .     A
C118   C127    1.408   .     A
C118   H144    1.079   .     S
C119   C129    1.409   .     A
C119   H145    1.081   .     S
C120   C131    1.407   .     A
C120   H146    1.078   .     S
C120   C193    1.406   1_565 S
C121   H147    1.079   .     S
C121   C93     1.410   1_655 S
C121   C200    1.409   1_565 S
C122   C123    1.407   .     A
C122   C129    1.408   .     A
C122   H148    1.079   .     S
C123   C127    1.406   .     A
C123   H149    1.078   .     S
C124   C125    1.408   .     A
C124   H150    1.080   .     S
C124   C197    1.409   1_554 S
C125   C126    1.501   .     S
C125   C79     1.407   1_655 A
C126   O133    1.291   .     A
C126   O102    1.291   1_655 S
C127   C128    1.502   .     S
C128   O134    1.292   .     A
C128   O139    1.289   .     A
C129   C130    1.502   .     S
C130   O135    1.291   .     A
C130   O138    1.291   .     A
C131   C132    1.506   .     S
C132   O136    1.293   .     A
C132   O137    1.293   .     A
O134   Al78    1.794   1_655 S
O135   Al267   1.797   .     S
O136   Al268   1.795   .     S
O137   Al267   1.796   .     S
O138   Al268   1.789   .     S
O141   Al267   1.804   .     S
O141   H151    0.862   .     S
O141   Al230   1.803   1_655 A
O142   H152    0.861   .     S
Al153  O171    1.791   .     S
Al153  O177    1.787   .     S
Al153  O180    1.800   .     S
Al154  O178    1.794   .     S
Al154  O180    1.797   .     S
Al154  O65     1.803   1_455 A
Al154  O210    1.794   1_455 S
C155   H181    1.080   .     S
C155   C82     1.406   1_545 S
C155   C201    1.407   1_455 A
C156   C157    1.406   .     A
C156   C165    1.408   .     A
C156   H182    1.079   .     S
C157   C167    1.409   .     A
C157   H183    1.081   .     S
C158   C169    1.407   .     A
C158   H184    1.078   .     S
C158   C79     1.406   1_556 A
C159   C207    1.410   .     A
C159   H185    1.079   .     S
C159   C86     1.409   1_556 A
C160   C161    1.407   .     A
C160   C167    1.408   .     A
C160   H186    1.079   .     S
C161   C165    1.406   .     A
C161   H187    1.078   .     S
C162   C163    1.408   .     A
C162   H188    1.080   .     S
C162   C83     1.409   1_545 A
C163   C193    1.407   .     A
C163   C164    1.501   .     S
C164   O171    1.291   .     A
C164   O216    1.291   .     A
C165   C166    1.502   .     S
C166   O172    1.292   .     A
C166   O177    1.289   .     A
C167   C168    1.502   .     S
C168   O173    1.291   .     A
C168   O176    1.291   .     A
C169   C170    1.506   .     S
C169   C197    1.410   1_455 S
C170   O174    1.293   .     A
C170   O175    1.293   .     A
O172   Al192   1.794   .     S
O173   Al1     1.797   1_556 S
O174   Al2     1.795   1_556 S
O175   Al1     1.796   1_556 S
O176   Al2     1.789   1_556 S
O178   C202    1.291   1_455 S
O179   H189    0.862   .     S
O179   Al1     1.804   1_556 S
O179   Al40    1.803   1_556 A
O180   H190    0.861   .     S
Al191  O209    1.791   .     S
Al191  O215    1.787   .     S
Al191  O218    1.800   .     S
Al192  O216    1.794   .     S
Al192  O218    1.797   .     S
C193   H219    1.080   .     S
C193   C120    1.406   1_545 S
C194   C195    1.406   .     A
C194   C203    1.408   .     A
C194   H220    1.079   .     S
C195   C205    1.409   .     A
C195   H221    1.081   .     S
C196   C207    1.407   .     A
C196   H222    1.078   .     S
C196   C117    1.406   1_556 S
C197   H223    1.079   .     S
C197   C124    1.409   1_556 S
C197   C169    1.410   1_655 S
C198   C199    1.407   .     A
C198   C205    1.408   .     A
C198   H224    1.079   .     S
C199   C203    1.406   .     A
C199   H225    1.078   .     S
C200   C201    1.408   .     A
C200   H226    1.080   .     S
C200   C121    1.409   1_545 S
C201   C202    1.501   .     S
C201   C155    1.407   1_655 A
C202   O209    1.291   .     A
C202   O178    1.291   1_655 S
C203   C204    1.502   .     S
C204   O210    1.292   .     A
C204   O215    1.289   .     A
C205   C206    1.502   .     S
C206   O211    1.291   .     A
C206   O214    1.291   .     A
C207   C208    1.506   .     S
C208   O212    1.293   .     A
C208   O213    1.293   .     A
O210   Al154   1.794   1_655 S
O211   Al39    1.797   1_556 A
O212   Al40    1.795   1_556 A
O213   Al39    1.796   1_556 S
O214   Al40    1.789   1_556 S
O217   H227    0.862   .     S
O217   Al2     1.803   1_656 A
O217   Al39    1.804   1_556 A
O218   H228    0.861   .     S
Al229  O247    1.791   .     S
Al229  O253    1.787   .     S
Al229  O256    1.800   .     S
Al230  O254    1.794   .     S
Al230  O256    1.797   .     S
Al230  O141    1.803   1_455 A
Al230  O286    1.794   1_455 S
C231   H257    1.080   .     S
C231   C277    1.407   1_455 S
C232   C233    1.406   .     A
C232   C241    1.408   .     A
C232   H258    1.079   .     S
C233   C243    1.409   .     A
C233   H259    1.081   .     S
C234   C245    1.407   .     A
C234   H260    1.078   .     S
C234   C3      1.406   1_566 A
C235   C283    1.410   .     A
C235   H261    1.079   .     S
C235   C10     1.409   1_566 A
C236   C237    1.407   .     A
C236   C243    1.408   .     A
C236   H262    1.079   .     S
C237   C241    1.406   .     A
C237   H263    1.078   .     S
C238   C239    1.408   .     A
C238   H264    1.080   .     S
C239   C269    1.407   .     A
C239   C240    1.501   .     S
C240   O247    1.291   .     A
C240   O292    1.291   .     A
C241   C242    1.502   .     S
C242   O248    1.292   .     A
C242   O253    1.289   .     A
C243   C244    1.502   .     S
C244   O249    1.291   .     A
C244   O252    1.291   .     A
C245   C246    1.506   .     S
C245   C273    1.410   1_455 S
C246   O250    1.293   .     A
C246   O251    1.293   .     A
O248   Al268   1.794   .     S
O249   Al77    1.797   1_556 S
O250   Al78    1.795   1_556 A
O251   Al77    1.796   1_556 A
O252   Al78    1.789   1_556 A
O254   C278    1.291   1_455 A
O255   H265    0.862   .     S
O255   Al77    1.804   1_556 A
O255   Al116   1.803   1_556 S
O256   H266    0.861   .     S
Al267  O285    1.791   .     S
Al267  O291    1.787   .     S
Al267  O294    1.800   .     S
Al268  O292    1.794   .     S
Al268  O294    1.797   .     S
C269   H295    1.080   .     S
C270   C271    1.406   .     A
C270   C279    1.408   .     A
C270   H296    1.079   .     S
C271   C281    1.409   .     A
C271   H297    1.081   .     S
C272   C283    1.407   .     A
C272   H298    1.078   .     S
C272   C41     1.406   1_566 A
C273   H299    1.079   .     S
C273   C48     1.409   1_566 A
C273   C245    1.410   1_655 S
C274   C275    1.407   .     A
C274   C281    1.408   .     A
C274   H300    1.079   .     S
C275   C279    1.406   .     A
C275   H301    1.078   .     S
C276   C277    1.408   .     A
C276   H302    1.080   .     S
C277   C278    1.501   .     S
C277   C231    1.407   1_655 S
C278   O285    1.291   .     A
C278   O254    1.291   1_655 A
C279   C280    1.502   .     S
C280   O286    1.292   .     A
C280   O291    1.289   .     A
C281   C282    1.502   .     S
C282   O287    1.291   .     A
C282   O290    1.291   .     A
C283   C284    1.506   .     S
C284   O288    1.293   .     A
C284   O289    1.293   .     A
O286   Al230   1.794   1_655 S
O287   Al115   1.797   1_556 S
O288   Al116   1.795   1_556 S
O289   Al115   1.796   1_556 S
O290   Al116   1.789   1_556 S
O293   H303    0.862   .     S
O293   Al78    1.803   1_656 S
O293   Al115   1.804   1_556 S
O294   H304    0.861   .     S
