data_SABWAU_clean_h
_audit_creation_date              2015-05-11
_audit_creation_method            'Materials Studio'
_symmetry_space_group_name_H-M    'P1'
_symmetry_Int_Tables_number       1
_symmetry_cell_setting            triclinic
loop_
_symmetry_equiv_pos_as_xyz
  x,y,z
_cell_length_a                    6.5760
_cell_length_b                    7.6120
_cell_length_c                    10.4726
_cell_angle_alpha                 111.3110
_cell_angle_beta                  103.2480
_cell_angle_gamma                 90.0000
loop_
_atom_site_label
_atom_site_type_symbol
_atom_site_fract_x
_atom_site_fract_y
_atom_site_fract_z
_atom_site_U_iso_or_equiv
_atom_site_adp_type
_atom_site_occupancy
Al1    Al    0.00100   0.00120   0.00240   0.01267  Uiso   1.00
Al2    Al    0.50100   0.00120   0.00240   0.01267  Uiso   1.00
C3     C     0.16000   0.07250   0.78700   0.01267  Uiso   1.00
C4     C     0.83500   0.93140   0.21280   0.01267  Uiso   1.00
C5     C     0.87100   0.07680   0.59960   0.01267  Uiso   1.00
C6     C     0.13000   0.96160   0.40720   0.01267  Uiso   1.00
C7     C     0.78100   0.02560   0.45120   0.01267  Uiso   1.00
C8     C     0.21200   0.97640   0.55080   0.01267  Uiso   1.00
C9     C     0.07800   0.02920   0.63640   0.01267  Uiso   1.00
C10    C     0.91000   0.95160   0.35920   0.01267  Uiso   1.00
C11    C     0.66000   0.71450   0.78700   0.01267  Uiso   1.00
C12    C     0.33500   0.28140   0.21280   0.01267  Uiso   1.00
C13    C     0.37100   0.52280   0.59960   0.01267  Uiso   1.00
C14    C     0.63000   0.44560   0.40720   0.01267  Uiso   1.00
C15    C     0.28100   0.42560   0.45120   0.01267  Uiso   1.00
C16    C     0.71200   0.57440   0.55080   0.01267  Uiso   1.00
C17    C     0.57800   0.60720   0.63640   0.01267  Uiso   1.00
C18    C     0.41000   0.40760   0.35920   0.01267  Uiso   1.00
O19    O     0.25600   0.89000   0.00000   0.01267  Uiso   1.00
O20    O     0.05100   0.10920   0.87240   0.01267  Uiso   1.00
O21    O     0.94000   0.88250   0.12500   0.01267  Uiso   1.00
O22    O     0.34000   0.00760   0.81720   0.01267  Uiso   1.00
O23    O     0.63700   0.93440   0.16880   0.01267  Uiso   1.00
O24    O     0.75600   0.11000  -0.00000   0.01267  Uiso   1.00
O25    O     0.55100   0.76320   0.87240   0.01267  Uiso   1.00
O26    O     0.44000   0.24250   0.12500   0.01267  Uiso   1.00
O27    O     0.84000   0.80960   0.81720   0.01267  Uiso   1.00
O28    O     0.13700   0.23440   0.16880   0.01267  Uiso   1.00
H29    H     0.77599   0.15100   0.67912   0.01267  Uiso   1.00
H30    H     0.24164   0.95842   0.33779   0.01267  Uiso   1.00
H31    H     0.60939   0.04588   0.41200   0.01267  Uiso   1.00
H32    H     0.38030   0.94449   0.58640   0.01267  Uiso   1.00
H33    H     0.27599   0.52812   0.67912   0.01267  Uiso   1.00
H34    H     0.74164   0.37938   0.33779   0.01267  Uiso   1.00
H35    H     0.10939   0.36612   0.41200   0.01267  Uiso   1.00
H36    H     0.88030   0.64192   0.58640   0.01267  Uiso   1.00
H37    H     0.75600   0.25101   0.03725   0.01267  Uiso   1.00
H38    H     0.25600   0.74899  -0.03725   0.01267  Uiso   1.00
