data_image0
_cell_length_a       19.5042
_cell_length_b       15.2014
_cell_length_c       6.5693
_cell_angle_alpha    90
_cell_angle_beta     104.18
_cell_angle_gamma    90

_symmetry_space_group_name_H-M    "P 1"
_symmetry_int_tables_number       1

loop_
  _symmetry_equiv_pos_as_xyz
  'x, y, z'

loop_
  _atom_site_label
  _atom_site_occupancy
  _atom_site_fract_x
  _atom_site_fract_y
  _atom_site_fract_z
  _atom_site_thermal_displace_type
  _atom_site_B_iso_or_equiv
  _atom_site_type_symbol
  Al1      1.0000 0.50030  0.24370  0.51080  Biso   1.000  Al
  O1       1.0000 0.49990  0.30250  0.26510  Biso   1.000  O
  O2       1.0000 0.99560  0.55210  0.23840  Biso   1.000  O
  O3       1.0000 0.91590  0.06960  0.87220  Biso   1.000  O
  O4       1.0000 0.93550  0.08900  0.54930  Biso   1.000  O
  O5       1.0000 0.55730  0.15890  0.44510  Biso   1.000  O
  O6       1.0000 0.58250  0.18480  0.14100  Biso   1.000  O
  C1       1.0000 0.81980  0.10662  0.58950  Biso   1.000  C
  C2       1.0000 0.77270  0.10664  0.71540  Biso   1.000  C
  C3       1.0000 0.70070  0.12479  0.62810  Biso   1.000  C
  C4       1.0000 0.67570  0.14239  0.41760  Biso   1.000  C
  C5       1.0000 0.72300  0.14221  0.29360  Biso   1.000  C
  C6       1.0000 0.79480  0.12424  0.38110  Biso   1.000  C
  C7       1.0000 0.89540  0.08731  0.67500  Biso   1.000  C
  C8       1.0000 0.60090  0.16242  0.33010  Biso   1.000  C
  H1       1.0000 0.78950  0.09399  0.86510  Biso   1.000  H
  H2       1.0000 0.66720  0.12510  0.71860  Biso   1.000  H
  H3       1.0000 0.70620  0.15493  0.14440  Biso   1.000  H
  H4       1.0000 0.82830  0.12390  0.29140  Biso   1.000  H
  O7       1.0000 0.41410  0.30640  0.86650  Biso   1.000  O
  O8       1.0000 0.44240  0.34660  0.56720  Biso   1.000  O
  O9       1.0000 0.06320  0.41690  0.45680  Biso   1.000  O
  O10      1.0000 0.08610  0.42970  0.14010  Biso   1.000  O
  C9       1.0000 0.32370  0.35710  0.58960  Biso   1.000  C
  C10      1.0000 0.27500  0.34440  0.70670  Biso   1.000  C
  C11      1.0000 0.20280  0.36360  0.62200  Biso   1.000  C
  C12      1.0000 0.17990  0.39517  0.42140  Biso   1.000  C
  C13      1.0000 0.22870  0.40830  0.30190  Biso   1.000  C
  C14      1.0000 0.30100  0.38900  0.38750  Biso   1.000  C
  C15      1.0000 0.39850  0.33603  0.67850  Biso   1.000  C
  C16      1.0000 0.10480  0.41529  0.33560  Biso   1.000  C
  H5       1.0000 0.29080  0.32170  0.84910  Biso   1.000  H
  H6       1.0000 0.16810  0.35450  0.70660  Biso   1.000  H
  H7       1.0000 0.21270  0.43100  0.15920  Biso   1.000  H
  H8       1.0000 0.33610  0.39790  0.30330  Biso   1.000  H
  H9       1.0000 0.49500  0.36060  0.27900  Biso   1.000  H
  H10      1.0000 0.99300  0.61020  0.24500  Biso   1.000  H
  Al2      1.0000 0.49970  0.74370  0.98920  Biso   1.000  Al
  O11      1.0000 0.50010  0.80250  0.23490  Biso   1.000  O
  O12      1.0000 0.00440  0.05210  0.26160  Biso   1.000  O
  O13      1.0000 0.08410  0.56960  0.62780  Biso   1.000  O
  O14      1.0000 0.06450  0.58900  0.95070  Biso   1.000  O
  O15      1.0000 0.44270  0.65890  0.05490  Biso   1.000  O
  O16      1.0000 0.41750  0.68480  0.35900  Biso   1.000  O
  C17      1.0000 0.18020  0.60662  0.91050  Biso   1.000  C
  C18      1.0000 0.22730  0.60664  0.78460  Biso   1.000  C
  C19      1.0000 0.29930  0.62479  0.87190  Biso   1.000  C
  C20      1.0000 0.32430  0.64239  0.08240  Biso   1.000  C
  C21      1.0000 0.27700  0.64221  0.20640  Biso   1.000  C
  C22      1.0000 0.20520  0.62424  0.11890  Biso   1.000  C
  C23      1.0000 0.10460  0.58731  0.82500  Biso   1.000  C
  C24      1.0000 0.39910  0.66242  0.16990  Biso   1.000  C
  H11      1.0000 0.21050  0.59399  0.63490  Biso   1.000  H
  H12      1.0000 0.33280  0.62510  0.78140  Biso   1.000  H
  H13      1.0000 0.29380  0.65493  0.35560  Biso   1.000  H
  H14      1.0000 0.17170  0.62390  0.20860  Biso   1.000  H
  O17      1.0000 0.58590  0.80640  0.63350  Biso   1.000  O
  O18      1.0000 0.55760  0.84660  0.93280  Biso   1.000  O
  O19      1.0000 0.93680  0.91690  0.04320  Biso   1.000  O
  O20      1.0000 0.91390  0.92970  0.35990  Biso   1.000  O
  C25      1.0000 0.67630  0.85710  0.91040  Biso   1.000  C
  C26      1.0000 0.72500  0.84440  0.79330  Biso   1.000  C
  C27      1.0000 0.79720  0.86360  0.87800  Biso   1.000  C
  C28      1.0000 0.82010  0.89517  0.07860  Biso   1.000  C
  C29      1.0000 0.77130  0.90830  0.19810  Biso   1.000  C
  C30      1.0000 0.69900  0.88900  0.11250  Biso   1.000  C
  C31      1.0000 0.60150  0.83603  0.82150  Biso   1.000  C
  C32      1.0000 0.89520  0.91529  0.16440  Biso   1.000  C
  H15      1.0000 0.70920  0.82170  0.65090  Biso   1.000  H
  H16      1.0000 0.83190  0.85450  0.79340  Biso   1.000  H
  H17      1.0000 0.78730  0.93100  0.34080  Biso   1.000  H
  H18      1.0000 0.66390  0.89790  0.19670  Biso   1.000  H
  H19      1.0000 0.50500  0.86060  0.22100  Biso   1.000  H
  H20      1.0000 0.00700  0.11020  0.25500  Biso   1.000  H
  Al3      1.0000 0.49970  0.75630  0.48920  Biso   1.000  Al
  O21      1.0000 0.50010  0.69750  0.73490  Biso   1.000  O
  O22      1.0000 0.00440  0.44790  0.76160  Biso   1.000  O
  O23      1.0000 0.08410  0.93040  0.12780  Biso   1.000  O
  O24      1.0000 0.06450  0.91100  0.45070  Biso   1.000  O
  O25      1.0000 0.44270  0.84110  0.55490  Biso   1.000  O
  O26      1.0000 0.41750  0.81520  0.85900  Biso   1.000  O
  C33      1.0000 0.18020  0.89338  0.41050  Biso   1.000  C
  C34      1.0000 0.22730  0.89336  0.28460  Biso   1.000  C
  C35      1.0000 0.29930  0.87521  0.37190  Biso   1.000  C
  C36      1.0000 0.32430  0.85761  0.58240  Biso   1.000  C
  C37      1.0000 0.27700  0.85779  0.70640  Biso   1.000  C
  C38      1.0000 0.20520  0.87576  0.61890  Biso   1.000  C
  C39      1.0000 0.10460  0.91269  0.32500  Biso   1.000  C
  C40      1.0000 0.39910  0.83758  0.66990  Biso   1.000  C
  H21      1.0000 0.21050  0.90601  0.13490  Biso   1.000  H
  H22      1.0000 0.33280  0.87490  0.28140  Biso   1.000  H
  H23      1.0000 0.29380  0.84507  0.85560  Biso   1.000  H
  H24      1.0000 0.17170  0.87610  0.70860  Biso   1.000  H
  O27      1.0000 0.58590  0.69360  0.13350  Biso   1.000  O
  O28      1.0000 0.55760  0.65340  0.43280  Biso   1.000  O
  O29      1.0000 0.93680  0.58310  0.54320  Biso   1.000  O
  O30      1.0000 0.91390  0.57030  0.85990  Biso   1.000  O
  C41      1.0000 0.67630  0.64290  0.41040  Biso   1.000  C
  C42      1.0000 0.72500  0.65560  0.29330  Biso   1.000  C
  C43      1.0000 0.79720  0.63640  0.37800  Biso   1.000  C
  C44      1.0000 0.82010  0.60483  0.57860  Biso   1.000  C
  C45      1.0000 0.77130  0.59170  0.69810  Biso   1.000  C
  C46      1.0000 0.69900  0.61100  0.61250  Biso   1.000  C
  C47      1.0000 0.60150  0.66397  0.32150  Biso   1.000  C
  C48      1.0000 0.89520  0.58471  0.66440  Biso   1.000  C
  H25      1.0000 0.70920  0.67830  0.15090  Biso   1.000  H
  H26      1.0000 0.83190  0.64550  0.29340  Biso   1.000  H
  H27      1.0000 0.78730  0.56900  0.84080  Biso   1.000  H
  H28      1.0000 0.66390  0.60210  0.69670  Biso   1.000  H
  H29      1.0000 0.50500  0.63940  0.72100  Biso   1.000  H
  H30      1.0000 0.00700  0.38980  0.75500  Biso   1.000  H
  Al4      1.0000 0.50030  0.25630  0.01080  Biso   1.000  Al
  O31      1.0000 0.49990  0.19750  0.76510  Biso   1.000  O
  O32      1.0000 0.99560  0.94790  0.73840  Biso   1.000  O
  O33      1.0000 0.91590  0.43040  0.37220  Biso   1.000  O
  O34      1.0000 0.93550  0.41100  0.04930  Biso   1.000  O
  O35      1.0000 0.55730  0.34110  0.94510  Biso   1.000  O
  O36      1.0000 0.58250  0.31520  0.64100  Biso   1.000  O
  C49      1.0000 0.81980  0.39338  0.08950  Biso   1.000  C
  C50      1.0000 0.77270  0.39336  0.21540  Biso   1.000  C
  C51      1.0000 0.70070  0.37521  0.12810  Biso   1.000  C
  C52      1.0000 0.67570  0.35761  0.91760  Biso   1.000  C
  C53      1.0000 0.72300  0.35779  0.79360  Biso   1.000  C
  C54      1.0000 0.79480  0.37576  0.88110  Biso   1.000  C
  C55      1.0000 0.89540  0.41269  0.17500  Biso   1.000  C
  C56      1.0000 0.60090  0.33758  0.83010  Biso   1.000  C
  H31      1.0000 0.78950  0.40601  0.36510  Biso   1.000  H
  H32      1.0000 0.66720  0.37490  0.21860  Biso   1.000  H
  H33      1.0000 0.70620  0.34507  0.64440  Biso   1.000  H
  H34      1.0000 0.82830  0.37610  0.79140  Biso   1.000  H
  O37      1.0000 0.41410  0.19360  0.36650  Biso   1.000  O
  O38      1.0000 0.44240  0.15340  0.06720  Biso   1.000  O
  O39      1.0000 0.06320  0.08310  0.95680  Biso   1.000  O
  O40      1.0000 0.08610  0.07030  0.64010  Biso   1.000  O
  C57      1.0000 0.32370  0.14290  0.08960  Biso   1.000  C
  C58      1.0000 0.27500  0.15560  0.20670  Biso   1.000  C
  C59      1.0000 0.20280  0.13640  0.12200  Biso   1.000  C
  C60      1.0000 0.17990  0.10483  0.92140  Biso   1.000  C
  C61      1.0000 0.22870  0.09170  0.80190  Biso   1.000  C
  C62      1.0000 0.30100  0.11100  0.88750  Biso   1.000  C
  C63      1.0000 0.39850  0.16397  0.17850  Biso   1.000  C
  C64      1.0000 0.10480  0.08471  0.83560  Biso   1.000  C
  H35      1.0000 0.29080  0.17830  0.34910  Biso   1.000  H
  H36      1.0000 0.16810  0.14550  0.20660  Biso   1.000  H
  H37      1.0000 0.21270  0.06900  0.65920  Biso   1.000  H
  H38      1.0000 0.33610  0.10210  0.80330  Biso   1.000  H
  H39      1.0000 0.49500  0.13940  0.77900  Biso   1.000  H
  H40      1.0000 0.99300  0.88980  0.74500  Biso   1.000  H
  Al5      1.0000 0.00000  0.50000  0.00000  Biso   1.000  Al
  Al6      1.0000 0.00000  0.00000  0.50000  Biso   1.000  Al
  Al7      1.0000 0.00000  0.50000  0.50000  Biso   1.000  Al
  Al8      1.0000 0.00000  0.00000  0.00000  Biso   1.000  Al
