data_image0
_cell_length_a       10.425
_cell_length_b       10.62
_cell_length_c       11.323
_cell_angle_alpha    83.41
_cell_angle_beta     74.96
_cell_angle_gamma    69.67

_symmetry_space_group_name_H-M    "P 1"
_symmetry_int_tables_number       1

loop_
  _symmetry_equiv_pos_as_xyz
  'x, y, z'

loop_
  _atom_site_label
  _atom_site_occupancy
  _atom_site_fract_x
  _atom_site_fract_y
  _atom_site_fract_z
  _atom_site_thermal_displace_type
  _atom_site_B_iso_or_equiv
  _atom_site_type_symbol
  Dy1      1.0000 0.58699  0.59728  0.63175  Biso   1.000  Dy
  O1       1.0000 0.39660  0.61680  0.40510  Biso   1.000  O
  O2       1.0000 0.47160  0.74170  0.49640  Biso   1.000  O
  O3       1.0000 0.28290  0.24910  0.43960  Biso   1.000  O
  O4       1.0000 0.05140  0.31870  0.45450  Biso   1.000  O
  O5       1.0000 0.87130  0.06270  0.26230  Biso   1.000  O
  O6       1.0000 0.94940  0.84840  0.27470  Biso   1.000  O
  O7       1.0000 0.00290  0.44110  0.66950  Biso   1.000  O
  O8       1.0000 0.77080  0.49620  0.71980  Biso   1.000  O
  O9       1.0000 0.52900  0.48140  0.16490  Biso   1.000  O
  O10      1.0000 0.65830  0.39120  0.29780  Biso   1.000  O
  O11      1.0000 0.17600  0.24770  0.15880  Biso   1.000  O
  O12      1.0000 0.27110  0.23410  0.96790  Biso   1.000  O
  N1       1.0000 0.96020  0.95600  0.28310  Biso   1.000  N
  N2       1.0000 0.16920  0.26130  0.05200  Biso   1.000  N
  C1       1.0000 0.28140  0.85280  0.40600  Biso   1.000  C
  C2       1.0000 0.28210  0.97800  0.43140  Biso   1.000  C
  H1       1.0000 0.35430  0.98340  0.46240  Biso   1.000  H
  C3       1.0000 0.17550  0.09500  0.41080  Biso   1.000  C
  C4       1.0000 0.06780  0.08670  0.36380  Biso   1.000  C
  H2       1.0000 0.99410  0.16330  0.35200  Biso   1.000  H
  C5       1.0000 0.07320  0.96200  0.33540  Biso   1.000  C
  C6       1.0000 0.17750  0.84390  0.35530  Biso   1.000  C
  H3       1.0000 0.17780  0.76130  0.33530  Biso   1.000  H
  C7       1.0000 0.39190  0.72720  0.43730  Biso   1.000  C
  C8       1.0000 0.17120  0.23180  0.43710  Biso   1.000  C
  C9       1.0000 0.89430  0.41820  0.87660  Biso   1.000  C
  C10      1.0000 0.77180  0.44390  0.96950  Biso   1.000  C
  H4       1.0000 0.68460  0.48400  0.95060  Biso   1.000  H
  C11      1.0000 0.77930  0.40990  0.09050  Biso   1.000  C
  C12      1.0000 0.90990  0.34940  0.11890  Biso   1.000  C
  H5       1.0000 0.91680  0.32610  0.19930  Biso   1.000  H
  C13      1.0000 0.02820  0.32510  0.02460  Biso   1.000  C
  C14      1.0000 0.02470  0.35710  0.90460  Biso   1.000  C
  H6       1.0000 0.10730  0.33840  0.84340  Biso   1.000  H
  C15      1.0000 0.88790  0.45540  0.74640  Biso   1.000  C
  C16      1.0000 0.64800  0.43040  0.18990  Biso   1.000  C
  Dy2      1.0000 0.41301  0.40272  0.36825  Biso   1.000  Dy
  O13      1.0000 0.60340  0.38320  0.59490  Biso   1.000  O
  O14      1.0000 0.52840  0.25830  0.50360  Biso   1.000  O
  O15      1.0000 0.71710  0.75090  0.56040  Biso   1.000  O
  O16      1.0000 0.94860  0.68130  0.54550  Biso   1.000  O
  O17      1.0000 0.12870  0.93730  0.73770  Biso   1.000  O
  O18      1.0000 0.05060  0.15160  0.72530  Biso   1.000  O
  O19      1.0000 0.99710  0.55890  0.33050  Biso   1.000  O
  O20      1.0000 0.22920  0.50380  0.28020  Biso   1.000  O
  O21      1.0000 0.47100  0.51860  0.83510  Biso   1.000  O
  O22      1.0000 0.34170  0.60880  0.70220  Biso   1.000  O
  O23      1.0000 0.82400  0.75230  0.84120  Biso   1.000  O
  O24      1.0000 0.72890  0.76590  0.03210  Biso   1.000  O
  N3       1.0000 0.03980  0.04400  0.71690  Biso   1.000  N
  N4       1.0000 0.83080  0.73870  0.94800  Biso   1.000  N
  C17      1.0000 0.71860  0.14720  0.59400  Biso   1.000  C
  C18      1.0000 0.71790  0.02200  0.56860  Biso   1.000  C
  H7       1.0000 0.64570  0.01660  0.53760  Biso   1.000  H
  C19      1.0000 0.82450  0.90500  0.58920  Biso   1.000  C
  C20      1.0000 0.93220  0.91330  0.63620  Biso   1.000  C
  H8       1.0000 0.00590  0.83670  0.64800  Biso   1.000  H
  C21      1.0000 0.92680  0.03800  0.66460  Biso   1.000  C
  C22      1.0000 0.82250  0.15610  0.64470  Biso   1.000  C
  H9       1.0000 0.82220  0.23870  0.66470  Biso   1.000  H
  C23      1.0000 0.60810  0.27280  0.56270  Biso   1.000  C
  C24      1.0000 0.82880  0.76820  0.56290  Biso   1.000  C
  C25      1.0000 0.10570  0.58180  0.12340  Biso   1.000  C
  C26      1.0000 0.22820  0.55610  0.03050  Biso   1.000  C
  H10      1.0000 0.31540  0.51600  0.04940  Biso   1.000  H
  C27      1.0000 0.22070  0.59010  0.90950  Biso   1.000  C
  C28      1.0000 0.09010  0.65060  0.88110  Biso   1.000  C
  H11      1.0000 0.08320  0.67390  0.80070  Biso   1.000  H
  C29      1.0000 0.97180  0.67490  0.97540  Biso   1.000  C
  C30      1.0000 0.97530  0.64290  0.09540  Biso   1.000  C
  H12      1.0000 0.89270  0.66160  0.15660  Biso   1.000  H
  C31      1.0000 0.11210  0.54460  0.25360  Biso   1.000  C
  C32      1.0000 0.35200  0.56960  0.81010  Biso   1.000  C
  Cu1      1.0000 0.00000  0.50000  0.50000  Biso   1.000  Cu
