data_image0
_cell_length_a       10.599
_cell_length_b       10.681
_cell_length_c       11.424
_cell_angle_alpha    82.67
_cell_angle_beta     74.14
_cell_angle_gamma    69.32

_symmetry_space_group_name_H-M    "P 1"
_symmetry_int_tables_number       1

loop_
  _symmetry_equiv_pos_as_xyz
  'x, y, z'

loop_
  _atom_site_label
  _atom_site_occupancy
  _atom_site_fract_x
  _atom_site_fract_y
  _atom_site_fract_z
  _atom_site_thermal_displace_type
  _atom_site_B_iso_or_equiv
  _atom_site_type_symbol
  Pr1      1.0000 0.58905  0.59790  0.62865  Biso   1.000  Pr
  O1       1.0000 0.39700  0.62390  0.40860  Biso   1.000  O
  O2       1.0000 0.47090  0.75300  0.49100  Biso   1.000  O
  O3       1.0000 0.26750  0.25440  0.44750  Biso   1.000  O
  O4       1.0000 0.04080  0.32150  0.45520  Biso   1.000  O
  O5       1.0000 0.87760  0.06020  0.26040  Biso   1.000  O
  O6       1.0000 0.95660  0.84760  0.27470  Biso   1.000  O
  O7       1.0000 0.00800  0.43960  0.66780  Biso   1.000  O
  O8       1.0000 0.78110  0.48530  0.71640  Biso   1.000  O
  O9       1.0000 0.53590  0.47780  0.15970  Biso   1.000  O
  O10      1.0000 0.66170  0.38650  0.29270  Biso   1.000  O
  O11      1.0000 0.17120  0.25130  0.15740  Biso   1.000  O
  O12      1.0000 0.27050  0.23980  0.96710  Biso   1.000  O
  N1       1.0000 0.96270  0.95630  0.28500  Biso   1.000  N
  N2       1.0000 0.16760  0.26520  0.05100  Biso   1.000  N
  C1       1.0000 0.28000  0.85830  0.40500  Biso   1.000  C
  C2       1.0000 0.27580  0.98430  0.43140  Biso   1.000  C
  H1       1.0000 0.34520  0.99130  0.46270  Biso   1.000  H
  C3       1.0000 0.16920  0.09840  0.41140  Biso   1.000  C
  C4       1.0000 0.06480  0.08830  0.36430  Biso   1.000  C
  H2       1.0000 0.99100  0.16390  0.35270  Biso   1.000  H
  C5       1.0000 0.07400  0.96380  0.33540  Biso   1.000  C
  C6       1.0000 0.17780  0.84790  0.35550  Biso   1.000  C
  H3       1.0000 0.17960  0.76500  0.33650  Biso   1.000  H
  C7       1.0000 0.39100  0.73520  0.43570  Biso   1.000  C
  C8       1.0000 0.16080  0.23510  0.44020  Biso   1.000  C
  C9       1.0000 0.89900  0.41370  0.87390  Biso   1.000  C
  C10      1.0000 0.77760  0.43810  0.96500  Biso   1.000  C
  H4       1.0000 0.69210  0.47650  0.94540  Biso   1.000  H
  C11      1.0000 0.78250  0.40550  0.08630  Biso   1.000  C
  C12      1.0000 0.91090  0.34740  0.11540  Biso   1.000  C
  H5       1.0000 0.91580  0.32470  0.19570  Biso   1.000  H
  C13      1.0000 0.03070  0.32410  0.02220  Biso   1.000  C
  C14      1.0000 0.02800  0.35530  0.90180  Biso   1.000  C
  H6       1.0000 0.11010  0.33790  0.84080  Biso   1.000  H
  C15      1.0000 0.89470  0.44950  0.74330  Biso   1.000  C
  C16      1.0000 0.65070  0.42660  0.18540  Biso   1.000  C
  Pr2      1.0000 0.41095  0.40210  0.37135  Biso   1.000  Pr
  O13      1.0000 0.60300  0.37610  0.59140  Biso   1.000  O
  O14      1.0000 0.52910  0.24700  0.50900  Biso   1.000  O
  O15      1.0000 0.73250  0.74560  0.55250  Biso   1.000  O
  O16      1.0000 0.95920  0.67850  0.54480  Biso   1.000  O
  O17      1.0000 0.12240  0.93980  0.73960  Biso   1.000  O
  O18      1.0000 0.04340  0.15240  0.72530  Biso   1.000  O
  O19      1.0000 0.99200  0.56040  0.33220  Biso   1.000  O
  O20      1.0000 0.21890  0.51470  0.28360  Biso   1.000  O
  O21      1.0000 0.46410  0.52220  0.84030  Biso   1.000  O
  O22      1.0000 0.33830  0.61350  0.70730  Biso   1.000  O
  O23      1.0000 0.82880  0.74870  0.84260  Biso   1.000  O
  O24      1.0000 0.72950  0.76020  0.03290  Biso   1.000  O
  N3       1.0000 0.03730  0.04370  0.71500  Biso   1.000  N
  N4       1.0000 0.83240  0.73480  0.94900  Biso   1.000  N
  C17      1.0000 0.72000  0.14170  0.59500  Biso   1.000  C
  C18      1.0000 0.72420  0.01570  0.56860  Biso   1.000  C
  H7       1.0000 0.65480  0.00870  0.53730  Biso   1.000  H
  C19      1.0000 0.83080  0.90160  0.58860  Biso   1.000  C
  C20      1.0000 0.93520  0.91170  0.63570  Biso   1.000  C
  H8       1.0000 0.00900  0.83610  0.64730  Biso   1.000  H
  C21      1.0000 0.92600  0.03620  0.66460  Biso   1.000  C
  C22      1.0000 0.82220  0.15210  0.64450  Biso   1.000  C
  H9       1.0000 0.82040  0.23500  0.66350  Biso   1.000  H
  C23      1.0000 0.60900  0.26480  0.56430  Biso   1.000  C
  C24      1.0000 0.83920  0.76490  0.55980  Biso   1.000  C
  C25      1.0000 0.10100  0.58630  0.12610  Biso   1.000  C
  C26      1.0000 0.22240  0.56190  0.03500  Biso   1.000  C
  H10      1.0000 0.30790  0.52350  0.05460  Biso   1.000  H
  C27      1.0000 0.21750  0.59450  0.91370  Biso   1.000  C
  C28      1.0000 0.08910  0.65260  0.88460  Biso   1.000  C
  H11      1.0000 0.08420  0.67530  0.80430  Biso   1.000  H
  C29      1.0000 0.96930  0.67590  0.97780  Biso   1.000  C
  C30      1.0000 0.97200  0.64470  0.09820  Biso   1.000  C
  H12      1.0000 0.88990  0.66210  0.15920  Biso   1.000  H
  C31      1.0000 0.10530  0.55050  0.25670  Biso   1.000  C
  C32      1.0000 0.34930  0.57340  0.81460  Biso   1.000  C
  Cu1      1.0000 0.00000  0.50000  0.50000  Biso   1.000  Cu
