data_image0
_cell_length_a       10.399
_cell_length_b       10.606
_cell_length_c       11.3
_cell_angle_alpha    83.5
_cell_angle_beta     75.15
_cell_angle_gamma    69.62

_symmetry_space_group_name_H-M    "P 1"
_symmetry_int_tables_number       1

loop_
  _symmetry_equiv_pos_as_xyz
  'x, y, z'

loop_
  _atom_site_label
  _atom_site_occupancy
  _atom_site_fract_x
  _atom_site_fract_y
  _atom_site_fract_z
  _atom_site_thermal_displace_type
  _atom_site_B_iso_or_equiv
  _atom_site_type_symbol
  Er1      1.0000 0.58641  0.59630  0.63277  Biso   1.000  Er
  O1       1.0000 0.39550  0.61550  0.40590  Biso   1.000  O
  O2       1.0000 0.47170  0.73960  0.49910  Biso   1.000  O
  O3       1.0000 0.28670  0.24830  0.43680  Biso   1.000  O
  O4       1.0000 0.05400  0.31810  0.45450  Biso   1.000  O
  O5       1.0000 0.87070  0.06270  0.26290  Biso   1.000  O
  O6       1.0000 0.94960  0.84860  0.27350  Biso   1.000  O
  O7       1.0000 0.00110  0.44270  0.67060  Biso   1.000  O
  O8       1.0000 0.76890  0.49770  0.72000  Biso   1.000  O
  O9       1.0000 0.52770  0.48320  0.16460  Biso   1.000  O
  O10      1.0000 0.65710  0.39400  0.29870  Biso   1.000  O
  O11      1.0000 0.17510  0.24620  0.16000  Biso   1.000  O
  O12      1.0000 0.27150  0.23310  0.96820  Biso   1.000  O
  N1       1.0000 0.95770  0.95690  0.28570  Biso   1.000  N
  N2       1.0000 0.16880  0.26170  0.05280  Biso   1.000  N
  C1       1.0000 0.28180  0.85100  0.40710  Biso   1.000  C
  C2       1.0000 0.28380  0.97650  0.43160  Biso   1.000  C
  H1       1.0000 0.35670  0.98150  0.46220  Biso   1.000  H
  C3       1.0000 0.17700  0.09440  0.41070  Biso   1.000  C
  C4       1.0000 0.06920  0.08610  0.36450  Biso   1.000  C
  H2       1.0000 0.99560  0.16330  0.35280  Biso   1.000  H
  C5       1.0000 0.07280  0.96180  0.33610  Biso   1.000  C
  C6       1.0000 0.17650  0.84390  0.35700  Biso   1.000  C
  H3       1.0000 0.17550  0.76130  0.33780  Biso   1.000  H
  C7       1.0000 0.39130  0.72560  0.43870  Biso   1.000  C
  C8       1.0000 0.17490  0.23060  0.43580  Biso   1.000  C
  C9       1.0000 0.89270  0.41950  0.87730  Biso   1.000  C
  C10      1.0000 0.76990  0.44580  0.96990  Biso   1.000  C
  H4       1.0000 0.68250  0.48650  0.95080  Biso   1.000  H
  C11      1.0000 0.77770  0.41150  0.09100  Biso   1.000  C
  C12      1.0000 0.90930  0.35040  0.11950  Biso   1.000  C
  H5       1.0000 0.91620  0.32750  0.20000  Biso   1.000  H
  C13      1.0000 0.02900  0.32490  0.02470  Biso   1.000  C
  C14      1.0000 0.02440  0.35750  0.90510  Biso   1.000  C
  H6       1.0000 0.10680  0.33900  0.84360  Biso   1.000  H
  C15      1.0000 0.88610  0.45630  0.74630  Biso   1.000  C
  C16      1.0000 0.64620  0.43310  0.19060  Biso   1.000  C
  Er2      1.0000 0.41359  0.40370  0.36723  Biso   1.000  Er
  O13      1.0000 0.60450  0.38450  0.59410  Biso   1.000  O
  O14      1.0000 0.52830  0.26040  0.50090  Biso   1.000  O
  O15      1.0000 0.71330  0.75170  0.56320  Biso   1.000  O
  O16      1.0000 0.94600  0.68190  0.54550  Biso   1.000  O
  O17      1.0000 0.12930  0.93730  0.73710  Biso   1.000  O
  O18      1.0000 0.05040  0.15140  0.72650  Biso   1.000  O
  O19      1.0000 0.99890  0.55730  0.32940  Biso   1.000  O
  O20      1.0000 0.23110  0.50230  0.28000  Biso   1.000  O
  O21      1.0000 0.47230  0.51680  0.83540  Biso   1.000  O
  O22      1.0000 0.34290  0.60600  0.70130  Biso   1.000  O
  O23      1.0000 0.82490  0.75380  0.84000  Biso   1.000  O
  O24      1.0000 0.72850  0.76690  0.03180  Biso   1.000  O
  N3       1.0000 0.04230  0.04310  0.71430  Biso   1.000  N
  N4       1.0000 0.83120  0.73830  0.94720  Biso   1.000  N
  C17      1.0000 0.71820  0.14900  0.59290  Biso   1.000  C
  C18      1.0000 0.71620  0.02350  0.56840  Biso   1.000  C
  H7       1.0000 0.64330  0.01850  0.53780  Biso   1.000  H
  C19      1.0000 0.82300  0.90560  0.58930  Biso   1.000  C
  C20      1.0000 0.93080  0.91390  0.63550  Biso   1.000  C
  H8       1.0000 0.00440  0.83670  0.64720  Biso   1.000  H
  C21      1.0000 0.92720  0.03820  0.66390  Biso   1.000  C
  C22      1.0000 0.82350  0.15610  0.64300  Biso   1.000  C
  H9       1.0000 0.82450  0.23870  0.66220  Biso   1.000  H
  C23      1.0000 0.60870  0.27440  0.56130  Biso   1.000  C
  C24      1.0000 0.82510  0.76940  0.56420  Biso   1.000  C
  C25      1.0000 0.10730  0.58050  0.12270  Biso   1.000  C
  C26      1.0000 0.23010  0.55420  0.03010  Biso   1.000  C
  H10      1.0000 0.31750  0.51350  0.04920  Biso   1.000  H
  C27      1.0000 0.22230  0.58850  0.90900  Biso   1.000  C
  C28      1.0000 0.09070  0.64960  0.88050  Biso   1.000  C
  H11      1.0000 0.08380  0.67250  0.80000  Biso   1.000  H
  C29      1.0000 0.97100  0.67510  0.97530  Biso   1.000  C
  C30      1.0000 0.97560  0.64250  0.09490  Biso   1.000  C
  H12      1.0000 0.89320  0.66100  0.15640  Biso   1.000  H
  C31      1.0000 0.11390  0.54370  0.25370  Biso   1.000  C
  C32      1.0000 0.35380  0.56690  0.80940  Biso   1.000  C
  Cu1      1.0000 0.00000  0.50000  0.50000  Biso   1.000  Cu
