data_image0
_cell_length_a       10.528
_cell_length_b       10.671
_cell_length_c       11.378
_cell_angle_alpha    83.14
_cell_angle_beta     74.61
_cell_angle_gamma    69.34

_symmetry_space_group_name_H-M    "P 1"
_symmetry_int_tables_number       1

loop_
  _symmetry_equiv_pos_as_xyz
  'x, y, z'

loop_
  _atom_site_label
  _atom_site_occupancy
  _atom_site_fract_x
  _atom_site_fract_y
  _atom_site_fract_z
  _atom_site_thermal_displace_type
  _atom_site_B_iso_or_equiv
  _atom_site_type_symbol
  Sm1      1.0000 0.58795  0.59672  0.63094  Biso   1.000  Sm
  O1       1.0000 0.39590  0.62080  0.40760  Biso   1.000  O
  O2       1.0000 0.47030  0.74780  0.49540  Biso   1.000  O
  O3       1.0000 0.27560  0.25220  0.44230  Biso   1.000  O
  O4       1.0000 0.04670  0.32000  0.45480  Biso   1.000  O
  O5       1.0000 0.87410  0.06100  0.26310  Biso   1.000  O
  O6       1.0000 0.95370  0.84790  0.27440  Biso   1.000  O
  O7       1.0000 0.00570  0.44090  0.66840  Biso   1.000  O
  O8       1.0000 0.77630  0.48890  0.71780  Biso   1.000  O
  O9       1.0000 0.53280  0.48090  0.16170  Biso   1.000  O
  O10      1.0000 0.66050  0.38870  0.29510  Biso   1.000  O
  O11      1.0000 0.17200  0.24910  0.15930  Biso   1.000  O
  O12      1.0000 0.27150  0.23990  0.96810  Biso   1.000  O
  N1       1.0000 0.96080  0.95680  0.28630  Biso   1.000  N
  N2       1.0000 0.16790  0.26450  0.05230  Biso   1.000  N
  C1       1.0000 0.28090  0.85570  0.40610  Biso   1.000  C
  C2       1.0000 0.27930  0.98150  0.43150  Biso   1.000  C
  H1       1.0000 0.35010  0.98780  0.46260  Biso   1.000  H
  C3       1.0000 0.17260  0.09710  0.41060  Biso   1.000  C
  C4       1.0000 0.06680  0.08810  0.36490  Biso   1.000  C
  H2       1.0000 0.99270  0.16430  0.35390  Biso   1.000  H
  C5       1.0000 0.07380  0.96320  0.33620  Biso   1.000  C
  C6       1.0000 0.17710  0.84590  0.35680  Biso   1.000  C
  H3       1.0000 0.17730  0.76320  0.33840  Biso   1.000  H
  C7       1.0000 0.39090  0.73180  0.43810  Biso   1.000  C
  C8       1.0000 0.16740  0.23340  0.43770  Biso   1.000  C
  C9       1.0000 0.89730  0.41600  0.87490  Biso   1.000  C
  C10      1.0000 0.77550  0.44130  0.96720  Biso   1.000  C
  H4       1.0000 0.68920  0.48120  0.94780  Biso   1.000  H
  C11      1.0000 0.78070  0.40790  0.08810  Biso   1.000  C
  C12      1.0000 0.91020  0.34860  0.11730  Biso   1.000  C
  H5       1.0000 0.91560  0.32570  0.19770  Biso   1.000  H
  C13      1.0000 0.03110  0.32470  0.02330  Biso   1.000  C
  C14      1.0000 0.02660  0.35640  0.90300  Biso   1.000  C
  H6       1.0000 0.10870  0.33820  0.84170  Biso   1.000  H
  C15      1.0000 0.89260  0.45180  0.74480  Biso   1.000  C
  C16      1.0000 0.64920  0.42900  0.18700  Biso   1.000  C
  Sm2      1.0000 0.41205  0.40328  0.36906  Biso   1.000  Sm
  O13      1.0000 0.60410  0.37920  0.59240  Biso   1.000  O
  O14      1.0000 0.52970  0.25220  0.50460  Biso   1.000  O
  O15      1.0000 0.72440  0.74780  0.55770  Biso   1.000  O
  O16      1.0000 0.95330  0.68000  0.54520  Biso   1.000  O
  O17      1.0000 0.12590  0.93900  0.73690  Biso   1.000  O
  O18      1.0000 0.04630  0.15210  0.72560  Biso   1.000  O
  O19      1.0000 0.99430  0.55910  0.33160  Biso   1.000  O
  O20      1.0000 0.22370  0.51110  0.28220  Biso   1.000  O
  O21      1.0000 0.46720  0.51910  0.83830  Biso   1.000  O
  O22      1.0000 0.33950  0.61130  0.70490  Biso   1.000  O
  O23      1.0000 0.82800  0.75090  0.84070  Biso   1.000  O
  O24      1.0000 0.72850  0.76010  0.03190  Biso   1.000  O
  N3       1.0000 0.03920  0.04320  0.71370  Biso   1.000  N
  N4       1.0000 0.83210  0.73550  0.94770  Biso   1.000  N
  C17      1.0000 0.71910  0.14430  0.59390  Biso   1.000  C
  C18      1.0000 0.72070  0.01850  0.56850  Biso   1.000  C
  H7       1.0000 0.64990  0.01220  0.53740  Biso   1.000  H
  C19      1.0000 0.82740  0.90290  0.58940  Biso   1.000  C
  C20      1.0000 0.93320  0.91190  0.63510  Biso   1.000  C
  H8       1.0000 0.00730  0.83570  0.64610  Biso   1.000  H
  C21      1.0000 0.92620  0.03680  0.66380  Biso   1.000  C
  C22      1.0000 0.82290  0.15410  0.64320  Biso   1.000  C
  H9       1.0000 0.82270  0.23680  0.66160  Biso   1.000  H
  C23      1.0000 0.60910  0.26820  0.56190  Biso   1.000  C
  C24      1.0000 0.83260  0.76660  0.56230  Biso   1.000  C
  C25      1.0000 0.10270  0.58400  0.12510  Biso   1.000  C
  C26      1.0000 0.22450  0.55870  0.03280  Biso   1.000  C
  H10      1.0000 0.31080  0.51880  0.05220  Biso   1.000  H
  C27      1.0000 0.21930  0.59210  0.91190  Biso   1.000  C
  C28      1.0000 0.08980  0.65140  0.88270  Biso   1.000  C
  H11      1.0000 0.08440  0.67430  0.80230  Biso   1.000  H
  C29      1.0000 0.96890  0.67530  0.97670  Biso   1.000  C
  C30      1.0000 0.97340  0.64360  0.09700  Biso   1.000  C
  H12      1.0000 0.89130  0.66180  0.15830  Biso   1.000  H
  C31      1.0000 0.10740  0.54820  0.25520  Biso   1.000  C
  C32      1.0000 0.35080  0.57100  0.81300  Biso   1.000  C
  Cu1      1.0000 0.00000  0.50000  0.50000  Biso   1.000  Cu
