data_image0
_cell_length_a       10.414
_cell_length_b       10.615
_cell_length_c       11.317
_cell_angle_alpha    83.45
_cell_angle_beta     75.04
_cell_angle_gamma    69.61

_symmetry_space_group_name_H-M    "P 1"
_symmetry_int_tables_number       1

loop_
  _symmetry_equiv_pos_as_xyz
  'x, y, z'

loop_
  _atom_site_label
  _atom_site_occupancy
  _atom_site_fract_x
  _atom_site_fract_y
  _atom_site_fract_z
  _atom_site_thermal_displace_type
  _atom_site_B_iso_or_equiv
  _atom_site_type_symbol
  Ho1      1.0000 0.58673  0.59671  0.63225  Biso   1.000  Ho
  O1       1.0000 0.39600  0.61610  0.40550  Biso   1.000  O
  O2       1.0000 0.47140  0.74080  0.49800  Biso   1.000  O
  O3       1.0000 0.28400  0.24920  0.43890  Biso   1.000  O
  O4       1.0000 0.05210  0.31840  0.45520  Biso   1.000  O
  O5       1.0000 0.87230  0.06250  0.26180  Biso   1.000  O
  O6       1.0000 0.95000  0.84830  0.27360  Biso   1.000  O
  O7       1.0000 0.00160  0.44210  0.67060  Biso   1.000  O
  O8       1.0000 0.76990  0.49650  0.72000  Biso   1.000  O
  O9       1.0000 0.52920  0.48290  0.16420  Biso   1.000  O
  O10      1.0000 0.65850  0.39240  0.29790  Biso   1.000  O
  O11      1.0000 0.17390  0.24660  0.15990  Biso   1.000  O
  O12      1.0000 0.27130  0.23260  0.96800  Biso   1.000  O
  N1       1.0000 0.95790  0.95670  0.28570  Biso   1.000  N
  N2       1.0000 0.16790  0.26210  0.05290  Biso   1.000  N
  C1       1.0000 0.28170  0.85270  0.40650  Biso   1.000  C
  C2       1.0000 0.28230  0.97730  0.43170  Biso   1.000  C
  H1       1.0000 0.35460  0.98270  0.46270  Biso   1.000  H
  C3       1.0000 0.17580  0.09420  0.41090  Biso   1.000  C
  C4       1.0000 0.06910  0.08590  0.36410  Biso   1.000  C
  H2       1.0000 0.99550  0.16290  0.35220  Biso   1.000  H
  C5       1.0000 0.07330  0.96220  0.33530  Biso   1.000  C
  C6       1.0000 0.17670  0.84360  0.35590  Biso   1.000  C
  H3       1.0000 0.17620  0.76100  0.33660  Biso   1.000  H
  C7       1.0000 0.39050  0.72650  0.43860  Biso   1.000  C
  C8       1.0000 0.17370  0.23120  0.43670  Biso   1.000  C
  C9       1.0000 0.89350  0.41880  0.87680  Biso   1.000  C
  C10      1.0000 0.77130  0.44450  0.96980  Biso   1.000  C
  H4       1.0000 0.68400  0.48440  0.95070  Biso   1.000  H
  C11      1.0000 0.77800  0.41140  0.09050  Biso   1.000  C
  C12      1.0000 0.90960  0.35030  0.11890  Biso   1.000  C
  H5       1.0000 0.91650  0.32760  0.19940  Biso   1.000  H
  C13      1.0000 0.02870  0.32480  0.02450  Biso   1.000  C
  C14      1.0000 0.02470  0.35730  0.90450  Biso   1.000  C
  H6       1.0000 0.10720  0.33880  0.84320  Biso   1.000  H
  C15      1.0000 0.88720  0.45590  0.74670  Biso   1.000  C
  C16      1.0000 0.64640  0.43200  0.19010  Biso   1.000  C
  Ho2      1.0000 0.41327  0.40329  0.36775  Biso   1.000  Ho
  O13      1.0000 0.60400  0.38390  0.59450  Biso   1.000  O
  O14      1.0000 0.52860  0.25920  0.50200  Biso   1.000  O
  O15      1.0000 0.71600  0.75080  0.56110  Biso   1.000  O
  O16      1.0000 0.94790  0.68160  0.54480  Biso   1.000  O
  O17      1.0000 0.12770  0.93750  0.73820  Biso   1.000  O
  O18      1.0000 0.05000  0.15170  0.72640  Biso   1.000  O
  O19      1.0000 0.99840  0.55790  0.32940  Biso   1.000  O
  O20      1.0000 0.23010  0.50350  0.28000  Biso   1.000  O
  O21      1.0000 0.47080  0.51710  0.83580  Biso   1.000  O
  O22      1.0000 0.34150  0.60760  0.70210  Biso   1.000  O
  O23      1.0000 0.82610  0.75340  0.84010  Biso   1.000  O
  O24      1.0000 0.72870  0.76740  0.03200  Biso   1.000  O
  N3       1.0000 0.04210  0.04330  0.71430  Biso   1.000  N
  N4       1.0000 0.83210  0.73790  0.94710  Biso   1.000  N
  C17      1.0000 0.71830  0.14730  0.59350  Biso   1.000  C
  C18      1.0000 0.71770  0.02270  0.56830  Biso   1.000  C
  H7       1.0000 0.64540  0.01730  0.53730  Biso   1.000  H
  C19      1.0000 0.82420  0.90580  0.58910  Biso   1.000  C
  C20      1.0000 0.93090  0.91410  0.63590  Biso   1.000  C
  H8       1.0000 0.00450  0.83710  0.64780  Biso   1.000  H
  C21      1.0000 0.92670  0.03780  0.66470  Biso   1.000  C
  C22      1.0000 0.82330  0.15640  0.64410  Biso   1.000  C
  H9       1.0000 0.82380  0.23900  0.66340  Biso   1.000  H
  C23      1.0000 0.60950  0.27350  0.56140  Biso   1.000  C
  C24      1.0000 0.82630  0.76880  0.56330  Biso   1.000  C
  C25      1.0000 0.10650  0.58120  0.12320  Biso   1.000  C
  C26      1.0000 0.22870  0.55550  0.03020  Biso   1.000  C
  H10      1.0000 0.31600  0.51560  0.04930  Biso   1.000  H
  C27      1.0000 0.22200  0.58860  0.90950  Biso   1.000  C
  C28      1.0000 0.09040  0.64970  0.88110  Biso   1.000  C
  H11      1.0000 0.08350  0.67240  0.80060  Biso   1.000  H
  C29      1.0000 0.97130  0.67520  0.97550  Biso   1.000  C
  C30      1.0000 0.97530  0.64270  0.09550  Biso   1.000  C
  H12      1.0000 0.89280  0.66120  0.15680  Biso   1.000  H
  C31      1.0000 0.11280  0.54410  0.25330  Biso   1.000  C
  C32      1.0000 0.35360  0.56800  0.80990  Biso   1.000  C
  Cu1      1.0000 0.00000  0.50000  0.50000  Biso   1.000  Cu
