data_image0
_cell_length_a       10.464
_cell_length_b       10.607
_cell_length_c       11.353
_cell_angle_alpha    83.08
_cell_angle_beta     74.54
_cell_angle_gamma    69.67

_symmetry_space_group_name_H-M    "P 1"
_symmetry_int_tables_number       1

loop_
  _symmetry_equiv_pos_as_xyz
  'x, y, z'

loop_
  _atom_site_label
  _atom_site_occupancy
  _atom_site_fract_x
  _atom_site_fract_y
  _atom_site_fract_z
  _atom_site_thermal_displace_type
  _atom_site_B_iso_or_equiv
  _atom_site_type_symbol
  Gd1      1.0000 0.58787  0.59859  0.62986  Biso   1.000  Gd
  O1       1.0000 0.39670  0.61890  0.40440  Biso   1.000  O
  O2       1.0000 0.47250  0.74500  0.49230  Biso   1.000  O
  O3       1.0000 0.27690  0.25060  0.44540  Biso   1.000  O
  O4       1.0000 0.04660  0.31960  0.45420  Biso   1.000  O
  O5       1.0000 0.87900  0.06010  0.25760  Biso   1.000  O
  O6       1.0000 0.95190  0.84860  0.27360  Biso   1.000  O
  O7       1.0000 0.00460  0.44010  0.66900  Biso   1.000  O
  O8       1.0000 0.77410  0.49450  0.71940  Biso   1.000  O
  O9       1.0000 0.53200  0.47570  0.16380  Biso   1.000  O
  O10      1.0000 0.65950  0.38830  0.29710  Biso   1.000  O
  O11      1.0000 0.17500  0.25110  0.15630  Biso   1.000  O
  O12      1.0000 0.27070  0.23230  0.96520  Biso   1.000  O
  N1       1.0000 0.96180  0.95620  0.28310  Biso   1.000  N
  N2       1.0000 0.16810  0.26240  0.05040  Biso   1.000  N
  C1       1.0000 0.28200  0.85350  0.40410  Biso   1.000  C
  C2       1.0000 0.28010  0.98000  0.43110  Biso   1.000  C
  H1       1.0000 0.35090  0.98610  0.46280  Biso   1.000  H
  C3       1.0000 0.17400  0.09540  0.41070  Biso   1.000  C
  C4       1.0000 0.06710  0.08720  0.36340  Biso   1.000  C
  H2       1.0000 0.99320  0.16370  0.35220  Biso   1.000  H
  C5       1.0000 0.07420  0.96220  0.33380  Biso   1.000  C
  C6       1.0000 0.17830  0.84530  0.35310  Biso   1.000  C
  H3       1.0000 0.17930  0.76270  0.33250  Biso   1.000  H
  C7       1.0000 0.39240  0.72950  0.43490  Biso   1.000  C
  C8       1.0000 0.16850  0.23190  0.43890  Biso   1.000  C
  C9       1.0000 0.89620  0.41590  0.87560  Biso   1.000  C
  C10      1.0000 0.77340  0.44160  0.96820  Biso   1.000  C
  H4       1.0000 0.68670  0.48180  0.94930  Biso   1.000  H
  C11      1.0000 0.78030  0.40710  0.08880  Biso   1.000  C
  C12      1.0000 0.91000  0.34850  0.11670  Biso   1.000  C
  H5       1.0000 0.91580  0.32610  0.19730  Biso   1.000  H
  C13      1.0000 0.03080  0.32370  0.02270  Biso   1.000  C
  C14      1.0000 0.02490  0.35640  0.90230  Biso   1.000  C
  H6       1.0000 0.10680  0.33840  0.84020  Biso   1.000  H
  C15      1.0000 0.88930  0.45380  0.74550  Biso   1.000  C
  C16      1.0000 0.64710  0.42730  0.18870  Biso   1.000  C
  Gd2      1.0000 0.41213  0.40141  0.37014  Biso   1.000  Gd
  O13      1.0000 0.60330  0.38110  0.59560  Biso   1.000  O
  O14      1.0000 0.52750  0.25500  0.50770  Biso   1.000  O
  O15      1.0000 0.72310  0.74940  0.55460  Biso   1.000  O
  O16      1.0000 0.95340  0.68040  0.54580  Biso   1.000  O
  O17      1.0000 0.12100  0.93990  0.74240  Biso   1.000  O
  O18      1.0000 0.04810  0.15140  0.72640  Biso   1.000  O
  O19      1.0000 0.99540  0.55990  0.33100  Biso   1.000  O
  O20      1.0000 0.22590  0.50550  0.28060  Biso   1.000  O
  O21      1.0000 0.46800  0.52430  0.83620  Biso   1.000  O
  O22      1.0000 0.34050  0.61170  0.70290  Biso   1.000  O
  O23      1.0000 0.82500  0.74890  0.84370  Biso   1.000  O
  O24      1.0000 0.72930  0.76770  0.03480  Biso   1.000  O
  N3       1.0000 0.03820  0.04380  0.71690  Biso   1.000  N
  N4       1.0000 0.83190  0.73760  0.94960  Biso   1.000  N
  C17      1.0000 0.71800  0.14650  0.59590  Biso   1.000  C
  C18      1.0000 0.71990  0.02000  0.56890  Biso   1.000  C
  H7       1.0000 0.64910  0.01390  0.53720  Biso   1.000  H
  C19      1.0000 0.82600  0.90460  0.58930  Biso   1.000  C
  C20      1.0000 0.93290  0.91280  0.63660  Biso   1.000  C
  H8       1.0000 0.00680  0.83630  0.64780  Biso   1.000  H
  C21      1.0000 0.92580  0.03780  0.66620  Biso   1.000  C
  C22      1.0000 0.82170  0.15470  0.64690  Biso   1.000  C
  H9       1.0000 0.82070  0.23730  0.66750  Biso   1.000  H
  C23      1.0000 0.60760  0.27050  0.56510  Biso   1.000  C
  C24      1.0000 0.83150  0.76810  0.56110  Biso   1.000  C
  C25      1.0000 0.10380  0.58410  0.12440  Biso   1.000  C
  C26      1.0000 0.22660  0.55840  0.03180  Biso   1.000  C
  H10      1.0000 0.31330  0.51820  0.05070  Biso   1.000  H
  C27      1.0000 0.21970  0.59290  0.91120  Biso   1.000  C
  C28      1.0000 0.09000  0.65150  0.88330  Biso   1.000  C
  H11      1.0000 0.08420  0.67390  0.80270  Biso   1.000  H
  C29      1.0000 0.96920  0.67630  0.97730  Biso   1.000  C
  C30      1.0000 0.97510  0.64360  0.09770  Biso   1.000  C
  H12      1.0000 0.89320  0.66160  0.15980  Biso   1.000  H
  C31      1.0000 0.11070  0.54620  0.25450  Biso   1.000  C
  C32      1.0000 0.35290  0.57270  0.81130  Biso   1.000  C
  Cu1      1.0000 0.00000  0.50000  0.50000  Biso   1.000  Cu
