data_SADMIV_clean
_audit_creation_date              2014-07-02
_audit_creation_method            'Materials Studio'
_symmetry_space_group_name_H-M    'P1'
_symmetry_Int_Tables_number       1
_symmetry_cell_setting            triclinic
loop_
_symmetry_equiv_pos_as_xyz
  x,y,z
_cell_length_a                    6.8306
_cell_length_b                    7.6427
_cell_length_c                    10.5844
_cell_angle_alpha                 111.1640
_cell_angle_beta                  102.9750
_cell_angle_gamma                 90.0000
loop_
_atom_site_label
_atom_site_type_symbol
_atom_site_fract_x
_atom_site_fract_y
_atom_site_fract_z
_atom_site_U_iso_or_equiv
_atom_site_adp_type
_atom_site_occupancy
Fe1    Fe    0.00000   0.00000   0.00000   0.01267  Uiso   1.00
Fe2    Fe    0.50000   0.00000   0.00000   0.01267  Uiso   1.00
H1     H     0.19500   0.89710   0.33480   0.01267  Uiso   1.00
H2     H     0.66050   0.04970   0.43000   0.01267  Uiso   1.00
H3     H     0.30500   0.56230   0.66520   0.01267  Uiso   1.00
H4     H     0.83950   0.61970   0.57000   0.01267  Uiso   1.00
H5     H     0.80500   0.10290   0.66520   0.01267  Uiso   1.00
H6     H     0.33950   0.95030   0.57000   0.01267  Uiso   1.00
H7     H     0.69500   0.43770   0.33480   0.01267  Uiso   1.00
H8     H     0.16050   0.38030   0.43000   0.01267  Uiso   1.00
C1     C     0.91580   0.96900   0.36300   0.01267  Uiso   1.00
C2     C     0.11350   0.94010   0.40380   0.01267  Uiso   1.00
C3     C     0.80230   0.02890   0.45920   0.01267  Uiso   1.00
C4     C     0.82550   0.93590   0.21620   0.01267  Uiso   1.00
C5     C     0.58420   0.60600   0.63700   0.01267  Uiso   1.00
C6     C     0.38650   0.53630   0.59620   0.01267  Uiso   1.00
C7     C     0.69770   0.56970   0.54080   0.01267  Uiso   1.00
C8     C     0.67450   0.71970   0.78380   0.01267  Uiso   1.00
C9     C     0.08420   0.03100   0.63700   0.01267  Uiso   1.00
C10    C     0.88650   0.05990   0.59620   0.01267  Uiso   1.00
C11    C     0.19770   0.97110   0.54080   0.01267  Uiso   1.00
C12    C     0.17450   0.06410   0.78380   0.01267  Uiso   1.00
C13    C     0.41580   0.39400   0.36300   0.01267  Uiso   1.00
C14    C     0.61350   0.46370   0.40380   0.01267  Uiso   1.00
C15    C     0.30230   0.43030   0.45920   0.01267  Uiso   1.00
C16    C     0.32550   0.28030   0.21620   0.01267  Uiso   1.00
O1     O     0.93240   0.88480   0.12740   0.01267  Uiso   1.00
O2     O     0.64050   0.95820   0.17780   0.01267  Uiso   1.00
O3     O     0.56760   0.75740   0.87260   0.01267  Uiso   1.00
O4     O     0.85950   0.78040   0.82220   0.01267  Uiso   1.00
O5     O     0.06760   0.11520   0.87260   0.01267  Uiso   1.00
O6     O     0.35950   0.04180   0.82220   0.01267  Uiso   1.00
O7     O     0.43240   0.24260   0.12740   0.01267  Uiso   1.00
O8     O     0.14050   0.21960   0.17780   0.01267  Uiso   1.00
O9     O     0.25000   0.88650   1.00000   0.01267  Uiso   1.00
O10    O     0.75000   0.11350   1.00000   0.01267  Uiso   1.00
