data_image0
_cell_length_a       12.9224
_cell_length_b       13.3343
_cell_length_c       13.5054
_cell_angle_alpha    68.597
_cell_angle_beta     88.575
_cell_angle_gamma    79.571

_symmetry_space_group_name_H-M    "P 1"
_symmetry_int_tables_number       1

loop_
  _symmetry_equiv_pos_as_xyz
  'x, y, z'

loop_
  _atom_site_label
  _atom_site_occupancy
  _atom_site_fract_x
  _atom_site_fract_y
  _atom_site_fract_z
  _atom_site_thermal_displace_type
  _atom_site_B_iso_or_equiv
  _atom_site_type_symbol
  U1       1.0000 0.18267  0.79878  0.38145  Biso   1.000  U
  U2       1.0000 0.19062  0.29586  0.39385  Biso   1.000  U
  U3       1.0000 0.50957  0.77492  0.98758  Biso   1.000  U
  O1       1.0000 0.41170  0.87810  0.90330  Biso   1.000  O
  O2       1.0000 0.60700  0.66820  0.07220  Biso   1.000  O
  O3       1.0000 0.42850  0.78910  0.14590  Biso   1.000  O
  O4       1.0000 0.32660  0.82660  0.26460  Biso   1.000  O
  O5       1.0000 0.40890  0.10770  0.94740  Biso   1.000  O
  O6       1.0000 0.36160  0.09730  0.10610  Biso   1.000  O
  O7       1.0000 0.07390  0.87360  0.48800  Biso   1.000  O
  O8       1.0000 0.91130  0.83870  0.51490  Biso   1.000  O
  O9       1.0000 0.75180  0.86510  0.64740  Biso   1.000  O
  O10      1.0000 0.76610  0.03020  0.63760  Biso   1.000  O
  O11      1.0000 0.03990  0.85790  0.95850  Biso   1.000  O
  O12      1.0000 0.43600  0.26870  0.16400  Biso   1.000  O
  O13      1.0000 0.33630  0.31560  0.28070  Biso   1.000  O
  O14      1.0000 0.39860  0.65500  0.00640  Biso   1.000  O
  O15      1.0000 0.44710  0.50170  0.14650  Biso   1.000  O
  O16      1.0000 0.07830  0.37250  0.49920  Biso   1.000  O
  O17      1.0000 0.91910  0.33540  0.53260  Biso   1.000  O
  O18      1.0000 0.76540  0.35220  0.67710  Biso   1.000  O
  O19      1.0000 0.77150  0.52510  0.64250  Biso   1.000  O
  O20      1.0000 0.05260  0.39050  0.95910  Biso   1.000  O
  C1       1.0000 0.34460  0.83880  0.16920  Biso   1.000  C
  C2       1.0000 0.26380  0.90700  0.08270  Biso   1.000  C
  C3       1.0000 0.27010  0.01300  0.01710  Biso   1.000  C
  C4       1.0000 0.19500  0.06800  0.93220  Biso   1.000  C
  H1       1.0000 0.19630  0.14050  0.88950  Biso   1.000  H
  C5       1.0000 0.12140  0.01780  0.91160  Biso   1.000  C
  H2       1.0000 0.07340  0.05430  0.85410  Biso   1.000  H
  C6       1.0000 0.11840  0.91180  0.97680  Biso   1.000  C
  C7       1.0000 0.18780  0.85570  0.06240  Biso   1.000  C
  H3       1.0000 0.18380  0.78430  0.10610  Biso   1.000  H
  C8       1.0000 0.02920  0.86390  0.85380  Biso   1.000  C
  C9       1.0000 0.93020  0.88910  0.81040  Biso   1.000  C
  H4       1.0000 0.87290  0.90450  0.84880  Biso   1.000  H
  C10      1.0000 0.91450  0.89170  0.70610  Biso   1.000  C
  C11      1.0000 0.00330  0.86610  0.65210  Biso   1.000  C
  C12      1.0000 0.10290  0.84660  0.69770  Biso   1.000  C
  H5       1.0000 0.16110  0.83570  0.65850  Biso   1.000  H
  C13      1.0000 0.11870  0.84280  0.79860  Biso   1.000  C
  H6       1.0000 0.18610  0.82690  0.82950  Biso   1.000  H
  C14      1.0000 0.80580  0.93140  0.65990  Biso   1.000  C
  C15      1.0000 0.99350  0.85970  0.54380  Biso   1.000  C
  C16      1.0000 0.35880  0.32810  0.18710  Biso   1.000  C
  C17      1.0000 0.28460  0.40670  0.09660  Biso   1.000  C
  C18      1.0000 0.30410  0.51160  0.03630  Biso   1.000  C
  C19      1.0000 0.23480  0.57590  0.94760  Biso   1.000  C
  H7       1.0000 0.24520  0.64620  0.90680  Biso   1.000  H
  C20      1.0000 0.15260  0.53760  0.91980  Biso   1.000  C
  H8       1.0000 0.10780  0.58130  0.86120  Biso   1.000  H
  C21      1.0000 0.13740  0.43290  0.98050  Biso   1.000  C
  C22      1.0000 0.20350  0.36710  0.06910  Biso   1.000  C
  H9       1.0000 0.19260  0.29680  0.10920  Biso   1.000  H
  C23      1.0000 0.38920  0.55770  0.06680  Biso   1.000  C
  C24      1.0000 0.04210  0.38770  0.85750  Biso   1.000  C
  C25      1.0000 0.94330  0.40420  0.81720  Biso   1.000  C
  H10      1.0000 0.88620  0.42000  0.85580  Biso   1.000  H
  C26      1.0000 0.92580  0.39760  0.71860  Biso   1.000  C
  C27      1.0000 0.01300  0.37330  0.66180  Biso   1.000  C
  C28      1.0000 0.11360  0.35870  0.70400  Biso   1.000  C
  H11      1.0000 0.17110  0.34390  0.66540  Biso   1.000  H
  C29      1.0000 0.13140  0.36550  0.80290  Biso   1.000  C
  H12      1.0000 0.19910  0.35580  0.83090  Biso   1.000  H
  C30      1.0000 0.00320  0.36010  0.55720  Biso   1.000  C
  C31      1.0000 0.81580  0.42700  0.67420  Biso   1.000  C
  C32      1.0000 0.35350  0.07430  0.02800  Biso   1.000  C
  U4       1.0000 0.49420  0.72810  0.00830  Biso   1.000  U
  U5       1.0000 0.81733  0.20122  0.61855  Biso   1.000  U
  U6       1.0000 0.80938  0.70414  0.60615  Biso   1.000  U
  U7       1.0000 0.49043  0.22508  0.01242  Biso   1.000  U
  O21      1.0000 0.58830  0.12190  0.09670  Biso   1.000  O
  O22      1.0000 0.39300  0.33180  0.92780  Biso   1.000  O
  O23      1.0000 0.57150  0.21090  0.85410  Biso   1.000  O
  O24      1.0000 0.67340  0.17340  0.73540  Biso   1.000  O
  O25      1.0000 0.59110  0.89230  0.05260  Biso   1.000  O
  O26      1.0000 0.63840  0.90270  0.89390  Biso   1.000  O
  O27      1.0000 0.92610  0.12640  0.51200  Biso   1.000  O
  O28      1.0000 0.08870  0.16130  0.48510  Biso   1.000  O
  O29      1.0000 0.24820  0.13490  0.35260  Biso   1.000  O
  O30      1.0000 0.23390  0.96980  0.36240  Biso   1.000  O
  O31      1.0000 0.96010  0.14210  0.04150  Biso   1.000  O
  O32      1.0000 0.56400  0.73130  0.83600  Biso   1.000  O
  O33      1.0000 0.66370  0.68440  0.71930  Biso   1.000  O
  O34      1.0000 0.60140  0.34500  0.99360  Biso   1.000  O
  O35      1.0000 0.55290  0.49830  0.85350  Biso   1.000  O
  O36      1.0000 0.92170  0.62750  0.50080  Biso   1.000  O
  O37      1.0000 0.08090  0.66460  0.46740  Biso   1.000  O
  O38      1.0000 0.23460  0.64780  0.32290  Biso   1.000  O
  O39      1.0000 0.22850  0.47490  0.35750  Biso   1.000  O
  O40      1.0000 0.94740  0.60950  0.04090  Biso   1.000  O
  C33      1.0000 0.65540  0.16120  0.83080  Biso   1.000  C
  C34      1.0000 0.73620  0.09300  0.91730  Biso   1.000  C
  C35      1.0000 0.72990  0.98700  0.98290  Biso   1.000  C
  C36      1.0000 0.80500  0.93200  0.06780  Biso   1.000  C
  H13      1.0000 0.80370  0.85950  0.11050  Biso   1.000  H
  C37      1.0000 0.87860  0.98220  0.08840  Biso   1.000  C
  H14      1.0000 0.92660  0.94570  0.14590  Biso   1.000  H
  C38      1.0000 0.88160  0.08820  0.02320  Biso   1.000  C
  C39      1.0000 0.81220  0.14430  0.93760  Biso   1.000  C
  H15      1.0000 0.81620  0.21570  0.89390  Biso   1.000  H
  C40      1.0000 0.97080  0.13610  0.14620  Biso   1.000  C
  C41      1.0000 0.06980  0.11090  0.18960  Biso   1.000  C
  H16      1.0000 0.12710  0.09550  0.15120  Biso   1.000  H
  C42      1.0000 0.08550  0.10830  0.29390  Biso   1.000  C
  C43      1.0000 0.99670  0.13390  0.34790  Biso   1.000  C
  C44      1.0000 0.89710  0.15340  0.30230  Biso   1.000  C
  H17      1.0000 0.83890  0.16430  0.34150  Biso   1.000  H
  C45      1.0000 0.88130  0.15720  0.20140  Biso   1.000  C
  H18      1.0000 0.81390  0.17310  0.17050  Biso   1.000  H
  C46      1.0000 0.19420  0.06860  0.34010  Biso   1.000  C
  C47      1.0000 0.00650  0.14030  0.45620  Biso   1.000  C
  C48      1.0000 0.64120  0.67190  0.81290  Biso   1.000  C
  C49      1.0000 0.71540  0.59330  0.90340  Biso   1.000  C
  C50      1.0000 0.69590  0.48840  0.96370  Biso   1.000  C
  C51      1.0000 0.76520  0.42410  0.05240  Biso   1.000  C
  H19      1.0000 0.75480  0.35380  0.09320  Biso   1.000  H
  C52      1.0000 0.84740  0.46240  0.08020  Biso   1.000  C
  H20      1.0000 0.89220  0.41870  0.13880  Biso   1.000  H
  C53      1.0000 0.86260  0.56710  0.01950  Biso   1.000  C
  C54      1.0000 0.79650  0.63290  0.93090  Biso   1.000  C
  H21      1.0000 0.80740  0.70320  0.89080  Biso   1.000  H
  C55      1.0000 0.61080  0.44230  0.93320  Biso   1.000  C
  C56      1.0000 0.95790  0.61230  0.14250  Biso   1.000  C
  C57      1.0000 0.05670  0.59580  0.18280  Biso   1.000  C
  H22      1.0000 0.11380  0.58000  0.14420  Biso   1.000  H
  C58      1.0000 0.07420  0.60240  0.28140  Biso   1.000  C
  C59      1.0000 0.98700  0.62670  0.33820  Biso   1.000  C
  C60      1.0000 0.88640  0.64130  0.29600  Biso   1.000  C
  H23      1.0000 0.82890  0.65610  0.33460  Biso   1.000  H
  C61      1.0000 0.86860  0.63450  0.19710  Biso   1.000  C
  H24      1.0000 0.80090  0.64420  0.16910  Biso   1.000  H
  C62      1.0000 0.99680  0.63990  0.44280  Biso   1.000  C
  C63      1.0000 0.18420  0.57300  0.32580  Biso   1.000  C
  C64      1.0000 0.64650  0.92570  0.97200  Biso   1.000  C
  U8       1.0000 0.50580  0.27190  0.99170  Biso   1.000  U
