data_image0
_cell_length_a       14.956
_cell_length_b       23.671
_cell_length_c       9.026
_cell_angle_alpha    90
_cell_angle_beta     90
_cell_angle_gamma    90

_symmetry_space_group_name_H-M    "P 1"
_symmetry_int_tables_number       1

loop_
  _symmetry_equiv_pos_as_xyz
  'x, y, z'

loop_
  _atom_site_label
  _atom_site_occupancy
  _atom_site_fract_x
  _atom_site_fract_y
  _atom_site_fract_z
  _atom_site_thermal_displace_type
  _atom_site_B_iso_or_equiv
  _atom_site_type_symbol
  Fe1      1.0000 0.92451  0.94430  0.99939  Biso   1.000  Fe
  O1       1.0000 0.86710  0.92690  0.19500  Biso   1.000  O
  O2       1.0000 0.58780  0.87590  0.19590  Biso   1.000  O
  O3       1.0000 0.48340  0.93030  0.30390  Biso   1.000  O
  O4       1.0000 0.76790  0.87020  0.30300  Biso   1.000  O
  C1       1.0000 0.81160  0.88780  0.19580  Biso   1.000  C
  C2       1.0000 0.54400  0.89210  0.30200  Biso   1.000  C
  Cl1      1.0000 0.56865  0.74572  0.15520  Biso   1.000  Cl
  Fe2      1.0000 0.92451  0.44430  0.49939  Biso   1.000  Fe
  O5       1.0000 0.86710  0.42690  0.69500  Biso   1.000  O
  O6       1.0000 0.58780  0.37590  0.69590  Biso   1.000  O
  O7       1.0000 0.48340  0.43030  0.80390  Biso   1.000  O
  O8       1.0000 0.76790  0.37020  0.80300  Biso   1.000  O
  C3       1.0000 0.81160  0.38780  0.69580  Biso   1.000  C
  C4       1.0000 0.54400  0.39210  0.80200  Biso   1.000  C
  Cl2      1.0000 0.56865  0.24572  0.65520  Biso   1.000  Cl
  Fe3      1.0000 0.42451  0.94430  0.49939  Biso   1.000  Fe
  O9       1.0000 0.36710  0.92690  0.69500  Biso   1.000  O
  O10      1.0000 0.08780  0.87590  0.69590  Biso   1.000  O
  O11      1.0000 0.98340  0.93030  0.80390  Biso   1.000  O
  O12      1.0000 0.26790  0.87020  0.80300  Biso   1.000  O
  C5       1.0000 0.31160  0.88780  0.69580  Biso   1.000  C
  C6       1.0000 0.04400  0.89210  0.80200  Biso   1.000  C
  Cl3      1.0000 0.06865  0.74572  0.65520  Biso   1.000  Cl
  Fe4      1.0000 0.42451  0.44430  0.99939  Biso   1.000  Fe
  O13      1.0000 0.36710  0.42690  0.19500  Biso   1.000  O
  O14      1.0000 0.08780  0.37590  0.19590  Biso   1.000  O
  O15      1.0000 0.98340  0.43030  0.30390  Biso   1.000  O
  O16      1.0000 0.26790  0.37020  0.30300  Biso   1.000  O
  C7       1.0000 0.31160  0.38780  0.19580  Biso   1.000  C
  C8       1.0000 0.04400  0.39210  0.30200  Biso   1.000  C
  Cl4      1.0000 0.06865  0.24572  0.15520  Biso   1.000  Cl
  Fe5      1.0000 0.07549  0.05570  0.99939  Biso   1.000  Fe
  O17      1.0000 0.13290  0.07310  0.19500  Biso   1.000  O
  O18      1.0000 0.41220  0.12410  0.19590  Biso   1.000  O
  O19      1.0000 0.51660  0.06970  0.30390  Biso   1.000  O
  O20      1.0000 0.23210  0.12980  0.30300  Biso   1.000  O
  C9       1.0000 0.18840  0.11220  0.19580  Biso   1.000  C
  C10      1.0000 0.45600  0.10790  0.30200  Biso   1.000  C
  Cl5      1.0000 0.43135  0.25428  0.15520  Biso   1.000  Cl
  Fe6      1.0000 0.07549  0.55570  0.49939  Biso   1.000  Fe
  O21      1.0000 0.13290  0.57310  0.69500  Biso   1.000  O
  O22      1.0000 0.41220  0.62410  0.69590  Biso   1.000  O
  O23      1.0000 0.51660  0.56970  0.80390  Biso   1.000  O
  O24      1.0000 0.23210  0.62980  0.80300  Biso   1.000  O
  C11      1.0000 0.18840  0.61220  0.69580  Biso   1.000  C
  C12      1.0000 0.45600  0.60790  0.80200  Biso   1.000  C
  Cl6      1.0000 0.43135  0.75428  0.65520  Biso   1.000  Cl
  Fe7      1.0000 0.57549  0.05570  0.49939  Biso   1.000  Fe
  O25      1.0000 0.63290  0.07310  0.69500  Biso   1.000  O
  O26      1.0000 0.91220  0.12410  0.69590  Biso   1.000  O
  O27      1.0000 0.01660  0.06970  0.80390  Biso   1.000  O
  O28      1.0000 0.73210  0.12980  0.80300  Biso   1.000  O
  C13      1.0000 0.68840  0.11220  0.69580  Biso   1.000  C
  C14      1.0000 0.95600  0.10790  0.80200  Biso   1.000  C
  Cl7      1.0000 0.93135  0.25428  0.65520  Biso   1.000  Cl
  Fe8      1.0000 0.57549  0.55570  0.99939  Biso   1.000  Fe
  O29      1.0000 0.63290  0.57310  0.19500  Biso   1.000  O
  O30      1.0000 0.91220  0.62410  0.19590  Biso   1.000  O
  O31      1.0000 0.01660  0.56970  0.30390  Biso   1.000  O
  O32      1.0000 0.73210  0.62980  0.30300  Biso   1.000  O
  C15      1.0000 0.68840  0.61220  0.19580  Biso   1.000  C
  C16      1.0000 0.95600  0.60790  0.30200  Biso   1.000  C
  Cl8      1.0000 0.93135  0.75428  0.15520  Biso   1.000  Cl
  Fe9      1.0000 0.17451  0.30570  0.24939  Biso   1.000  Fe
  O33      1.0000 0.11710  0.32310  0.44500  Biso   1.000  O
  O34      1.0000 0.83780  0.37410  0.44590  Biso   1.000  O
  O35      1.0000 0.73340  0.31970  0.55390  Biso   1.000  O
  O36      1.0000 0.01790  0.37980  0.55300  Biso   1.000  O
  C17      1.0000 0.06160  0.36220  0.44580  Biso   1.000  C
  C18      1.0000 0.79400  0.35790  0.55200  Biso   1.000  C
  Cl9      1.0000 0.81865  0.50428  0.40520  Biso   1.000  Cl
  Fe10     1.0000 0.17451  0.80570  0.74939  Biso   1.000  Fe
  O37      1.0000 0.11710  0.82310  0.94500  Biso   1.000  O
  O38      1.0000 0.83780  0.87410  0.94590  Biso   1.000  O
  O39      1.0000 0.73340  0.81970  0.05390  Biso   1.000  O
  O40      1.0000 0.01790  0.87980  0.05300  Biso   1.000  O
  C19      1.0000 0.06160  0.86220  0.94580  Biso   1.000  C
  C20      1.0000 0.79400  0.85790  0.05200  Biso   1.000  C
  Cl10     1.0000 0.81865  0.00428  0.90520  Biso   1.000  Cl
  Fe11     1.0000 0.67451  0.30570  0.74939  Biso   1.000  Fe
  O41      1.0000 0.61710  0.32310  0.94500  Biso   1.000  O
  O42      1.0000 0.33780  0.37410  0.94590  Biso   1.000  O
  O43      1.0000 0.23340  0.31970  0.05390  Biso   1.000  O
  O44      1.0000 0.51790  0.37980  0.05300  Biso   1.000  O
  C21      1.0000 0.56160  0.36220  0.94580  Biso   1.000  C
  C22      1.0000 0.29400  0.35790  0.05200  Biso   1.000  C
  Cl11     1.0000 0.31865  0.50428  0.90520  Biso   1.000  Cl
  Fe12     1.0000 0.67451  0.80570  0.24939  Biso   1.000  Fe
  O45      1.0000 0.61710  0.82310  0.44500  Biso   1.000  O
  O46      1.0000 0.33780  0.87410  0.44590  Biso   1.000  O
  O47      1.0000 0.23340  0.81970  0.55390  Biso   1.000  O
  O48      1.0000 0.51790  0.87980  0.55300  Biso   1.000  O
  C23      1.0000 0.56160  0.86220  0.44580  Biso   1.000  C
  C24      1.0000 0.29400  0.85790  0.55200  Biso   1.000  C
  Cl12     1.0000 0.31865  0.00428  0.40520  Biso   1.000  Cl
  Fe13     1.0000 0.32549  0.19430  0.24939  Biso   1.000  Fe
  O49      1.0000 0.38290  0.17690  0.44500  Biso   1.000  O
  O50      1.0000 0.66220  0.12590  0.44590  Biso   1.000  O
  O51      1.0000 0.76660  0.18030  0.55390  Biso   1.000  O
  O52      1.0000 0.48210  0.12020  0.55300  Biso   1.000  O
  C25      1.0000 0.43840  0.13780  0.44580  Biso   1.000  C
  C26      1.0000 0.70600  0.14210  0.55200  Biso   1.000  C
  Cl13     1.0000 0.68135  0.99572  0.40520  Biso   1.000  Cl
  Fe14     1.0000 0.32549  0.69430  0.74939  Biso   1.000  Fe
  O53      1.0000 0.38290  0.67690  0.94500  Biso   1.000  O
  O54      1.0000 0.66220  0.62590  0.94590  Biso   1.000  O
  O55      1.0000 0.76660  0.68030  0.05390  Biso   1.000  O
  O56      1.0000 0.48210  0.62020  0.05300  Biso   1.000  O
  C27      1.0000 0.43840  0.63780  0.94580  Biso   1.000  C
  C28      1.0000 0.70600  0.64210  0.05200  Biso   1.000  C
  Cl14     1.0000 0.68135  0.49572  0.90520  Biso   1.000  Cl
  Fe15     1.0000 0.82549  0.19430  0.74939  Biso   1.000  Fe
  O57      1.0000 0.88290  0.17690  0.94500  Biso   1.000  O
  O58      1.0000 0.16220  0.12590  0.94590  Biso   1.000  O
  O59      1.0000 0.26660  0.18030  0.05390  Biso   1.000  O
  O60      1.0000 0.98210  0.12020  0.05300  Biso   1.000  O
  C29      1.0000 0.93840  0.13780  0.94580  Biso   1.000  C
  C30      1.0000 0.20600  0.14210  0.05200  Biso   1.000  C
  Cl15     1.0000 0.18135  0.99572  0.90520  Biso   1.000  Cl
  Fe16     1.0000 0.82549  0.69430  0.24939  Biso   1.000  Fe
  O61      1.0000 0.88290  0.67690  0.44500  Biso   1.000  O
  O62      1.0000 0.16220  0.62590  0.44590  Biso   1.000  O
  O63      1.0000 0.26660  0.68030  0.55390  Biso   1.000  O
  O64      1.0000 0.98210  0.62020  0.55300  Biso   1.000  O
  C31      1.0000 0.93840  0.63780  0.44580  Biso   1.000  C
  C32      1.0000 0.20600  0.64210  0.55200  Biso   1.000  C
  Cl16     1.0000 0.18135  0.49572  0.40520  Biso   1.000  Cl
  O65      1.0000 0.75000  0.75000  0.32710  Biso   1.000  O
  O66      1.0000 0.75000  0.25000  0.82710  Biso   1.000  O
  O67      1.0000 0.25000  0.25000  0.32710  Biso   1.000  O
  O68      1.0000 0.25000  0.75000  0.82710  Biso   1.000  O
  O69      1.0000 0.00000  0.50000  0.57710  Biso   1.000  O
  O70      1.0000 0.00000  0.00000  0.07710  Biso   1.000  O
  O71      1.0000 0.50000  0.50000  0.07710  Biso   1.000  O
  O72      1.0000 0.50000  0.00000  0.57710  Biso   1.000  O
