data_image0
_cell_length_a       14.779
_cell_length_b       23.754
_cell_length_c       9.1747
_cell_angle_alpha    90
_cell_angle_beta     90
_cell_angle_gamma    90

_symmetry_space_group_name_H-M    "P 1"
_symmetry_int_tables_number       1

loop_
  _symmetry_equiv_pos_as_xyz
  'x, y, z'

loop_
  _atom_site_label
  _atom_site_occupancy
  _atom_site_fract_x
  _atom_site_fract_y
  _atom_site_fract_z
  _atom_site_thermal_displace_type
  _atom_site_B_iso_or_equiv
  _atom_site_type_symbol
  Fe1      1.0000 0.32330  0.80426  0.12751  Biso   1.000  Fe
  O1       1.0000 0.23125  0.86914  0.07300  Biso   1.000  O
  O2       1.0000 0.01717  0.92908  0.57720  Biso   1.000  O
  O3       1.0000 0.91313  0.87481  0.68430  Biso   1.000  O
  O4       1.0000 0.13252  0.92698  0.18140  Biso   1.000  O
  C1       1.0000 0.18811  0.88773  0.18120  Biso   1.000  C
  C2       1.0000 0.95627  0.89083  0.57820  Biso   1.000  C
  Cl1      1.0000 0.18422  0.00396  0.47423  Biso   1.000  Cl
  Fe2      1.0000 0.32330  0.30426  0.62751  Biso   1.000  Fe
  O5       1.0000 0.23125  0.36914  0.57300  Biso   1.000  O
  O6       1.0000 0.01717  0.42908  0.07720  Biso   1.000  O
  O7       1.0000 0.91313  0.37481  0.18430  Biso   1.000  O
  O8       1.0000 0.13252  0.42698  0.68140  Biso   1.000  O
  C3       1.0000 0.18811  0.38773  0.68120  Biso   1.000  C
  C4       1.0000 0.95627  0.39083  0.07820  Biso   1.000  C
  Cl2      1.0000 0.18422  0.50396  0.97423  Biso   1.000  Cl
  Fe3      1.0000 0.82330  0.80426  0.62751  Biso   1.000  Fe
  O9       1.0000 0.73125  0.86914  0.57300  Biso   1.000  O
  O10      1.0000 0.51717  0.92908  0.07720  Biso   1.000  O
  O11      1.0000 0.41313  0.87481  0.18430  Biso   1.000  O
  O12      1.0000 0.63252  0.92698  0.68140  Biso   1.000  O
  C5       1.0000 0.68811  0.88773  0.68120  Biso   1.000  C
  C6       1.0000 0.45627  0.89083  0.07820  Biso   1.000  C
  Cl3      1.0000 0.68422  0.00396  0.97423  Biso   1.000  Cl
  Fe4      1.0000 0.82330  0.30426  0.12751  Biso   1.000  Fe
  O13      1.0000 0.73125  0.36914  0.07300  Biso   1.000  O
  O14      1.0000 0.51717  0.42908  0.57720  Biso   1.000  O
  O15      1.0000 0.41313  0.37481  0.68430  Biso   1.000  O
  O16      1.0000 0.63252  0.42698  0.18140  Biso   1.000  O
  C7       1.0000 0.68811  0.38773  0.18120  Biso   1.000  C
  C8       1.0000 0.45627  0.39083  0.57820  Biso   1.000  C
  Cl4      1.0000 0.68422  0.50396  0.47423  Biso   1.000  Cl
  Fe5      1.0000 0.67670  0.19574  0.12751  Biso   1.000  Fe
  O17      1.0000 0.76875  0.13086  0.07300  Biso   1.000  O
  O18      1.0000 0.98283  0.07092  0.57720  Biso   1.000  O
  O19      1.0000 0.08687  0.12519  0.68430  Biso   1.000  O
  O20      1.0000 0.86748  0.07302  0.18140  Biso   1.000  O
  C9       1.0000 0.81189  0.11227  0.18120  Biso   1.000  C
  C10      1.0000 0.04373  0.10917  0.57820  Biso   1.000  C
  Cl5      1.0000 0.81578  0.99604  0.47423  Biso   1.000  Cl
  Fe6      1.0000 0.67670  0.69574  0.62751  Biso   1.000  Fe
  O21      1.0000 0.76875  0.63086  0.57300  Biso   1.000  O
  O22      1.0000 0.98283  0.57092  0.07720  Biso   1.000  O
  O23      1.0000 0.08687  0.62519  0.18430  Biso   1.000  O
  O24      1.0000 0.86748  0.57302  0.68140  Biso   1.000  O
  C11      1.0000 0.81189  0.61227  0.68120  Biso   1.000  C
  C12      1.0000 0.04373  0.60917  0.07820  Biso   1.000  C
  Cl6      1.0000 0.81578  0.49604  0.97423  Biso   1.000  Cl
  Fe7      1.0000 0.17670  0.19574  0.62751  Biso   1.000  Fe
  O25      1.0000 0.26875  0.13086  0.57300  Biso   1.000  O
  O26      1.0000 0.48283  0.07092  0.07720  Biso   1.000  O
  O27      1.0000 0.58687  0.12519  0.18430  Biso   1.000  O
  O28      1.0000 0.36748  0.07302  0.68140  Biso   1.000  O
  C13      1.0000 0.31189  0.11227  0.68120  Biso   1.000  C
  C14      1.0000 0.54373  0.10917  0.07820  Biso   1.000  C
  Cl7      1.0000 0.31578  0.99604  0.97423  Biso   1.000  Cl
  Fe8      1.0000 0.17670  0.69574  0.12751  Biso   1.000  Fe
  O29      1.0000 0.26875  0.63086  0.07300  Biso   1.000  O
  O30      1.0000 0.48283  0.57092  0.57720  Biso   1.000  O
  O31      1.0000 0.58687  0.62519  0.68430  Biso   1.000  O
  O32      1.0000 0.36748  0.57302  0.18140  Biso   1.000  O
  C15      1.0000 0.31189  0.61227  0.18120  Biso   1.000  C
  C16      1.0000 0.54373  0.60917  0.57820  Biso   1.000  C
  Cl8      1.0000 0.31578  0.49604  0.47423  Biso   1.000  Cl
  Fe9      1.0000 0.57330  0.44574  0.37751  Biso   1.000  Fe
  O33      1.0000 0.48125  0.38086  0.32300  Biso   1.000  O
  O34      1.0000 0.26717  0.32092  0.82720  Biso   1.000  O
  O35      1.0000 0.16313  0.37519  0.93430  Biso   1.000  O
  O36      1.0000 0.38252  0.32302  0.43140  Biso   1.000  O
  C17      1.0000 0.43811  0.36227  0.43120  Biso   1.000  C
  C18      1.0000 0.20627  0.35917  0.82820  Biso   1.000  C
  Cl9      1.0000 0.43422  0.24604  0.72423  Biso   1.000  Cl
  Fe10     1.0000 0.57330  0.94574  0.87751  Biso   1.000  Fe
  O37      1.0000 0.48125  0.88086  0.82300  Biso   1.000  O
  O38      1.0000 0.26717  0.82092  0.32720  Biso   1.000  O
  O39      1.0000 0.16313  0.87519  0.43430  Biso   1.000  O
  O40      1.0000 0.38252  0.82302  0.93140  Biso   1.000  O
  C19      1.0000 0.43811  0.86227  0.93120  Biso   1.000  C
  C20      1.0000 0.20627  0.85917  0.32820  Biso   1.000  C
  Cl10     1.0000 0.43422  0.74604  0.22423  Biso   1.000  Cl
  Fe11     1.0000 0.07330  0.44574  0.87751  Biso   1.000  Fe
  O41      1.0000 0.98125  0.38086  0.82300  Biso   1.000  O
  O42      1.0000 0.76717  0.32092  0.32720  Biso   1.000  O
  O43      1.0000 0.66313  0.37519  0.43430  Biso   1.000  O
  O44      1.0000 0.88252  0.32302  0.93140  Biso   1.000  O
  C21      1.0000 0.93811  0.36227  0.93120  Biso   1.000  C
  C22      1.0000 0.70627  0.35917  0.32820  Biso   1.000  C
  Cl11     1.0000 0.93422  0.24604  0.22423  Biso   1.000  Cl
  Fe12     1.0000 0.07330  0.94574  0.37751  Biso   1.000  Fe
  O45      1.0000 0.98125  0.88086  0.32300  Biso   1.000  O
  O46      1.0000 0.76717  0.82092  0.82720  Biso   1.000  O
  O47      1.0000 0.66313  0.87519  0.93430  Biso   1.000  O
  O48      1.0000 0.88252  0.82302  0.43140  Biso   1.000  O
  C23      1.0000 0.93811  0.86227  0.43120  Biso   1.000  C
  C24      1.0000 0.70627  0.85917  0.82820  Biso   1.000  C
  Cl12     1.0000 0.93422  0.74604  0.72423  Biso   1.000  Cl
  Fe13     1.0000 0.92670  0.05426  0.37751  Biso   1.000  Fe
  O49      1.0000 0.01875  0.11914  0.32300  Biso   1.000  O
  O50      1.0000 0.23283  0.17908  0.82720  Biso   1.000  O
  O51      1.0000 0.33687  0.12481  0.93430  Biso   1.000  O
  O52      1.0000 0.11748  0.17698  0.43140  Biso   1.000  O
  C25      1.0000 0.06189  0.13773  0.43120  Biso   1.000  C
  C26      1.0000 0.29373  0.14083  0.82820  Biso   1.000  C
  Cl13     1.0000 0.06578  0.25396  0.72423  Biso   1.000  Cl
  Fe14     1.0000 0.92670  0.55426  0.87751  Biso   1.000  Fe
  O53      1.0000 0.01875  0.61914  0.82300  Biso   1.000  O
  O54      1.0000 0.23283  0.67908  0.32720  Biso   1.000  O
  O55      1.0000 0.33687  0.62481  0.43430  Biso   1.000  O
  O56      1.0000 0.11748  0.67698  0.93140  Biso   1.000  O
  C27      1.0000 0.06189  0.63773  0.93120  Biso   1.000  C
  C28      1.0000 0.29373  0.64083  0.32820  Biso   1.000  C
  Cl14     1.0000 0.06578  0.75396  0.22423  Biso   1.000  Cl
  Fe15     1.0000 0.42670  0.05426  0.87751  Biso   1.000  Fe
  O57      1.0000 0.51875  0.11914  0.82300  Biso   1.000  O
  O58      1.0000 0.73283  0.17908  0.32720  Biso   1.000  O
  O59      1.0000 0.83687  0.12481  0.43430  Biso   1.000  O
  O60      1.0000 0.61748  0.17698  0.93140  Biso   1.000  O
  C29      1.0000 0.56189  0.13773  0.93120  Biso   1.000  C
  C30      1.0000 0.79373  0.14083  0.32820  Biso   1.000  C
  Cl15     1.0000 0.56578  0.25396  0.22423  Biso   1.000  Cl
  Fe16     1.0000 0.42670  0.55426  0.37751  Biso   1.000  Fe
  O61      1.0000 0.51875  0.61914  0.32300  Biso   1.000  O
  O62      1.0000 0.73283  0.67908  0.82720  Biso   1.000  O
  O63      1.0000 0.83687  0.62481  0.93430  Biso   1.000  O
  O64      1.0000 0.61748  0.67698  0.43140  Biso   1.000  O
  C31      1.0000 0.56189  0.63773  0.43120  Biso   1.000  C
  C32      1.0000 0.79373  0.64083  0.82820  Biso   1.000  C
  Cl16     1.0000 0.56578  0.75396  0.72423  Biso   1.000  Cl
  O65      1.0000 0.00000  0.00000  0.30540  Biso   1.000  O
  O66      1.0000 0.00000  0.50000  0.80540  Biso   1.000  O
  O67      1.0000 0.50000  0.00000  0.80540  Biso   1.000  O
  O68      1.0000 0.50000  0.50000  0.30540  Biso   1.000  O
  O69      1.0000 0.25000  0.25000  0.55540  Biso   1.000  O
  O70      1.0000 0.25000  0.75000  0.05540  Biso   1.000  O
  O71      1.0000 0.75000  0.25000  0.05540  Biso   1.000  O
  O72      1.0000 0.75000  0.75000  0.55540  Biso   1.000  O
