data_image0
_cell_length_a       30.773
_cell_length_b       9.3088
_cell_length_c       30.411
_cell_angle_alpha    90
_cell_angle_beta     111.272
_cell_angle_gamma    90

_symmetry_space_group_name_H-M    "P 1"
_symmetry_int_tables_number       1

loop_
  _symmetry_equiv_pos_as_xyz
  'x, y, z'

loop_
  _atom_site_label
  _atom_site_occupancy
  _atom_site_fract_x
  _atom_site_fract_y
  _atom_site_fract_z
  _atom_site_thermal_displace_type
  _atom_site_B_iso_or_equiv
  _atom_site_type_symbol
  Tb1      1.0000 0.24487  0.95471  0.47780  Biso   1.000  Tb
  C1       1.0000 0.31810  0.24360  0.52020  Biso   1.000  C
  C2       1.0000 0.36530  0.26990  0.51750  Biso   1.000  C
  C3       1.0000 0.38130  0.17950  0.48980  Biso   1.000  C
  H1       1.0000 0.36360  0.10060  0.47480  Biso   1.000  H
  C4       1.0000 0.42300  0.20740  0.48490  Biso   1.000  C
  H2       1.0000 0.43220  0.15240  0.46420  Biso   1.000  H
  C5       1.0000 0.45230  0.31890  0.51090  Biso   1.000  C
  H3       1.0000 0.48140  0.33560  0.50900  Biso   1.000  H
  C6       1.0000 0.43600  0.40220  0.53940  Biso   1.000  C
  C7       1.0000 0.39300  0.38350  0.54170  Biso   1.000  C
  H4       1.0000 0.38230  0.44610  0.55940  Biso   1.000  H
  C8       1.0000 0.67630  0.75170  0.92210  Biso   1.000  C
  C9       1.0000 0.63640  0.84060  0.89050  Biso   1.000  C
  C10      1.0000 0.61440  0.79430  0.84360  Biso   1.000  C
  H5       1.0000 0.62440  0.71160  0.83300  Biso   1.000  H
  C11      1.0000 0.57710  0.87460  0.81330  Biso   1.000  C
  C12      1.0000 0.56240  0.99710  0.83010  Biso   1.000  C
  H6       1.0000 0.53840  0.05220  0.80950  Biso   1.000  H
  C13      1.0000 0.58210  0.03800  0.87560  Biso   1.000  C
  H7       1.0000 0.57040  0.11600  0.88690  Biso   1.000  H
  C14      1.0000 0.62050  0.96060  0.90560  Biso   1.000  C
  H8       1.0000 0.63560  0.99170  0.93650  Biso   1.000  H
  C15      1.0000 0.69030  0.30430  0.54490  Biso   1.000  C
  C16      1.0000 0.65040  0.32080  0.56240  Biso   1.000  C
  C17      1.0000 0.63330  0.45440  0.56850  Biso   1.000  C
  H9       1.0000 0.64680  0.53740  0.56200  Biso   1.000  H
  C18      1.0000 0.59740  0.46410  0.58360  Biso   1.000  C
  H10      1.0000 0.58700  0.55470  0.58820  Biso   1.000  H
  C19      1.0000 0.57500  0.34120  0.59280  Biso   1.000  C
  H11      1.0000 0.54980  0.34880  0.60270  Biso   1.000  H
  C20      1.0000 0.59270  0.20670  0.58620  Biso   1.000  C
  C21      1.0000 0.62970  0.19800  0.57180  Biso   1.000  C
  H12      1.0000 0.64120  0.10820  0.56820  Biso   1.000  H
  C22      1.0000 0.44950  0.61200  0.58830  Biso   1.000  C
  H13      1.0000 0.43620  0.56320  0.60860  Biso   1.000  H
  H14      1.0000 0.42530  0.66890  0.56560  Biso   1.000  H
  C23      1.0000 0.57440  0.74260  0.74430  Biso   1.000  C
  H15      1.0000 0.57010  0.64390  0.75220  Biso   1.000  H
  H16      1.0000 0.60750  0.76130  0.75310  Biso   1.000  H
  C24      1.0000 0.53520  0.08080  0.60840  Biso   1.000  C
  H17      1.0000 0.50730  0.10660  0.58190  Biso   1.000  H
  H18      1.0000 0.53970  0.15110  0.63320  Biso   1.000  H
  C25      1.0000 0.48910  0.70790  0.61730  Biso   1.000  C
  C26      1.0000 0.51510  0.67200  0.66360  Biso   1.000  C
  C27      1.0000 0.54800  0.77200  0.69160  Biso   1.000  C
  C28      1.0000 0.55540  0.90000  0.67310  Biso   1.000  C
  C29      1.0000 0.52970  0.93480  0.62580  Biso   1.000  C
  C30      1.0000 0.49680  0.83700  0.59740  Biso   1.000  C
  C31      1.0000 0.50680  0.53060  0.68370  Biso   1.000  C
  H19      1.0000 0.48800  0.54640  0.70250  Biso   1.000  H
  H20      1.0000 0.53620  0.48980  0.70310  Biso   1.000  H
  H21      1.0000 0.49100  0.46570  0.65850  Biso   1.000  H
  C32      1.0000 0.59190  0.00570  0.70350  Biso   1.000  C
  H22      1.0000 0.60110  0.06900  0.68350  Biso   1.000  H
  H23      1.0000 0.61860  0.95370  0.72370  Biso   1.000  H
  H24      1.0000 0.57890  0.06100  0.72240  Biso   1.000  H
  C33      1.0000 0.46970  0.87120  0.54600  Biso   1.000  C
  H25      1.0000 0.48630  0.94210  0.53530  Biso   1.000  H
  H26      1.0000 0.43950  0.90770  0.54270  Biso   1.000  H
  H27      1.0000 0.46620  0.78550  0.52750  Biso   1.000  H
  O1       1.0000 0.30150  0.12170  0.50950  Biso   1.000  O
  O2       1.0000 0.30090  0.34370  0.53440  Biso   1.000  O
  O3       1.0000 0.67910  0.62630  0.91310  Biso   1.000  O
  O4       1.0000 0.70630  0.81100  0.95900  Biso   1.000  O
  O5       1.0000 0.70100  0.41320  0.52590  Biso   1.000  O
  O6       1.0000 0.70890  0.18650  0.55080  Biso   1.000  O
  O7       1.0000 0.46740  0.51010  0.56460  Biso   1.000  O
  O8       1.0000 0.55350  0.84150  0.76750  Biso   1.000  O
  O9       1.0000 0.57490  0.07950  0.59410  Biso   1.000  O
  Tb2      1.0000 0.74487  0.45471  0.47780  Biso   1.000  Tb
  C34      1.0000 0.81810  0.74360  0.52020  Biso   1.000  C
  C35      1.0000 0.86530  0.76990  0.51750  Biso   1.000  C
  C36      1.0000 0.88130  0.67950  0.48980  Biso   1.000  C
  H28      1.0000 0.86360  0.60060  0.47480  Biso   1.000  H
  C37      1.0000 0.92300  0.70740  0.48490  Biso   1.000  C
  H29      1.0000 0.93220  0.65240  0.46420  Biso   1.000  H
  C38      1.0000 0.95230  0.81890  0.51090  Biso   1.000  C
  H30      1.0000 0.98140  0.83560  0.50900  Biso   1.000  H
  C39      1.0000 0.93600  0.90220  0.53940  Biso   1.000  C
  C40      1.0000 0.89300  0.88350  0.54170  Biso   1.000  C
  H31      1.0000 0.88230  0.94610  0.55940  Biso   1.000  H
  C41      1.0000 0.17630  0.25170  0.92210  Biso   1.000  C
  C42      1.0000 0.13640  0.34060  0.89050  Biso   1.000  C
  C43      1.0000 0.11440  0.29430  0.84360  Biso   1.000  C
  H32      1.0000 0.12440  0.21160  0.83300  Biso   1.000  H
  C44      1.0000 0.07710  0.37460  0.81330  Biso   1.000  C
  C45      1.0000 0.06240  0.49710  0.83010  Biso   1.000  C
  H33      1.0000 0.03840  0.55220  0.80950  Biso   1.000  H
  C46      1.0000 0.08210  0.53800  0.87560  Biso   1.000  C
  H34      1.0000 0.07040  0.61600  0.88690  Biso   1.000  H
  C47      1.0000 0.12050  0.46060  0.90560  Biso   1.000  C
  H35      1.0000 0.13560  0.49170  0.93650  Biso   1.000  H
  C48      1.0000 0.19030  0.80430  0.54490  Biso   1.000  C
  C49      1.0000 0.15040  0.82080  0.56240  Biso   1.000  C
  C50      1.0000 0.13330  0.95440  0.56850  Biso   1.000  C
  H36      1.0000 0.14680  0.03740  0.56200  Biso   1.000  H
  C51      1.0000 0.09740  0.96410  0.58360  Biso   1.000  C
  H37      1.0000 0.08700  0.05470  0.58820  Biso   1.000  H
  C52      1.0000 0.07500  0.84120  0.59280  Biso   1.000  C
  H38      1.0000 0.04980  0.84880  0.60270  Biso   1.000  H
  C53      1.0000 0.09270  0.70670  0.58620  Biso   1.000  C
  C54      1.0000 0.12970  0.69800  0.57180  Biso   1.000  C
  H39      1.0000 0.14120  0.60820  0.56820  Biso   1.000  H
  C55      1.0000 0.94950  0.11200  0.58830  Biso   1.000  C
  H40      1.0000 0.93620  0.06320  0.60860  Biso   1.000  H
  H41      1.0000 0.92530  0.16890  0.56560  Biso   1.000  H
  C56      1.0000 0.07440  0.24260  0.74430  Biso   1.000  C
  H42      1.0000 0.07010  0.14390  0.75220  Biso   1.000  H
  H43      1.0000 0.10750  0.26130  0.75310  Biso   1.000  H
  C57      1.0000 0.03520  0.58080  0.60840  Biso   1.000  C
  H44      1.0000 0.00730  0.60660  0.58190  Biso   1.000  H
  H45      1.0000 0.03970  0.65110  0.63320  Biso   1.000  H
  C58      1.0000 0.98910  0.20790  0.61730  Biso   1.000  C
  C59      1.0000 0.01510  0.17200  0.66360  Biso   1.000  C
  C60      1.0000 0.04800  0.27200  0.69160  Biso   1.000  C
  C61      1.0000 0.05540  0.40000  0.67310  Biso   1.000  C
  C62      1.0000 0.02970  0.43480  0.62580  Biso   1.000  C
  C63      1.0000 0.99680  0.33700  0.59740  Biso   1.000  C
  C64      1.0000 0.00680  0.03060  0.68370  Biso   1.000  C
  H46      1.0000 0.98800  0.04640  0.70250  Biso   1.000  H
  H47      1.0000 0.03620  0.98980  0.70310  Biso   1.000  H
  H48      1.0000 0.99100  0.96570  0.65850  Biso   1.000  H
  C65      1.0000 0.09190  0.50570  0.70350  Biso   1.000  C
  H49      1.0000 0.10110  0.56900  0.68350  Biso   1.000  H
  H50      1.0000 0.11860  0.45370  0.72370  Biso   1.000  H
  H51      1.0000 0.07890  0.56100  0.72240  Biso   1.000  H
  C66      1.0000 0.96970  0.37120  0.54600  Biso   1.000  C
  H52      1.0000 0.98630  0.44210  0.53530  Biso   1.000  H
  H53      1.0000 0.93950  0.40770  0.54270  Biso   1.000  H
  H54      1.0000 0.96620  0.28550  0.52750  Biso   1.000  H
  O10      1.0000 0.80150  0.62170  0.50950  Biso   1.000  O
  O11      1.0000 0.80090  0.84370  0.53440  Biso   1.000  O
  O12      1.0000 0.17910  0.12630  0.91310  Biso   1.000  O
  O13      1.0000 0.20630  0.31100  0.95900  Biso   1.000  O
  O14      1.0000 0.20100  0.91320  0.52590  Biso   1.000  O
  O15      1.0000 0.20890  0.68650  0.55080  Biso   1.000  O
  O16      1.0000 0.96740  0.01010  0.56460  Biso   1.000  O
  O17      1.0000 0.05350  0.34150  0.76750  Biso   1.000  O
  O18      1.0000 0.07490  0.57950  0.59410  Biso   1.000  O
  Tb3      1.0000 0.75513  0.95471  0.02220  Biso   1.000  Tb
  C67      1.0000 0.68190  0.24360  0.97980  Biso   1.000  C
  C68      1.0000 0.63470  0.26990  0.98250  Biso   1.000  C
  C69      1.0000 0.61870  0.17950  0.01020  Biso   1.000  C
  H55      1.0000 0.63640  0.10060  0.02520  Biso   1.000  H
  C70      1.0000 0.57700  0.20740  0.01510  Biso   1.000  C
  H56      1.0000 0.56780  0.15240  0.03580  Biso   1.000  H
  C71      1.0000 0.54770  0.31890  0.98910  Biso   1.000  C
  H57      1.0000 0.51860  0.33560  0.99100  Biso   1.000  H
  C72      1.0000 0.56400  0.40220  0.96060  Biso   1.000  C
  C73      1.0000 0.60700  0.38350  0.95830  Biso   1.000  C
  H58      1.0000 0.61770  0.44610  0.94060  Biso   1.000  H
  C74      1.0000 0.32370  0.75170  0.57790  Biso   1.000  C
  C75      1.0000 0.36360  0.84060  0.60950  Biso   1.000  C
  C76      1.0000 0.38560  0.79430  0.65640  Biso   1.000  C
  H59      1.0000 0.37560  0.71160  0.66700  Biso   1.000  H
  C77      1.0000 0.42290  0.87460  0.68670  Biso   1.000  C
  C78      1.0000 0.43760  0.99710  0.66990  Biso   1.000  C
  H60      1.0000 0.46160  0.05220  0.69050  Biso   1.000  H
  C79      1.0000 0.41790  0.03800  0.62440  Biso   1.000  C
  H61      1.0000 0.42960  0.11600  0.61310  Biso   1.000  H
  C80      1.0000 0.37950  0.96060  0.59440  Biso   1.000  C
  H62      1.0000 0.36440  0.99170  0.56350  Biso   1.000  H
  C81      1.0000 0.30970  0.30430  0.95510  Biso   1.000  C
  C82      1.0000 0.34960  0.32080  0.93760  Biso   1.000  C
  C83      1.0000 0.36670  0.45440  0.93150  Biso   1.000  C
  H63      1.0000 0.35320  0.53740  0.93800  Biso   1.000  H
  C84      1.0000 0.40260  0.46410  0.91640  Biso   1.000  C
  H64      1.0000 0.41300  0.55470  0.91180  Biso   1.000  H
  C85      1.0000 0.42500  0.34120  0.90720  Biso   1.000  C
  H65      1.0000 0.45020  0.34880  0.89730  Biso   1.000  H
  C86      1.0000 0.40730  0.20670  0.91380  Biso   1.000  C
  C87      1.0000 0.37030  0.19800  0.92820  Biso   1.000  C
  H66      1.0000 0.35880  0.10820  0.93180  Biso   1.000  H
  C88      1.0000 0.55050  0.61200  0.91170  Biso   1.000  C
  H67      1.0000 0.56380  0.56320  0.89140  Biso   1.000  H
  H68      1.0000 0.57470  0.66890  0.93440  Biso   1.000  H
  C89      1.0000 0.42560  0.74260  0.75570  Biso   1.000  C
  H69      1.0000 0.42990  0.64390  0.74780  Biso   1.000  H
  H70      1.0000 0.39250  0.76130  0.74690  Biso   1.000  H
  C90      1.0000 0.46480  0.08080  0.89160  Biso   1.000  C
  H71      1.0000 0.49270  0.10660  0.91810  Biso   1.000  H
  H72      1.0000 0.46030  0.15110  0.86680  Biso   1.000  H
  C91      1.0000 0.51090  0.70790  0.88270  Biso   1.000  C
  C92      1.0000 0.48490  0.67200  0.83640  Biso   1.000  C
  C93      1.0000 0.45200  0.77200  0.80840  Biso   1.000  C
  C94      1.0000 0.44460  0.90000  0.82690  Biso   1.000  C
  C95      1.0000 0.47030  0.93480  0.87420  Biso   1.000  C
  C96      1.0000 0.50320  0.83700  0.90260  Biso   1.000  C
  C97      1.0000 0.49320  0.53060  0.81630  Biso   1.000  C
  H73      1.0000 0.51200  0.54640  0.79750  Biso   1.000  H
  H74      1.0000 0.46380  0.48980  0.79690  Biso   1.000  H
  H75      1.0000 0.50900  0.46570  0.84150  Biso   1.000  H
  C98      1.0000 0.40810  0.00570  0.79650  Biso   1.000  C
  H76      1.0000 0.39890  0.06900  0.81650  Biso   1.000  H
  H77      1.0000 0.38140  0.95370  0.77630  Biso   1.000  H
  H78      1.0000 0.42110  0.06100  0.77760  Biso   1.000  H
  C99      1.0000 0.53030  0.87120  0.95400  Biso   1.000  C
  H79      1.0000 0.51370  0.94210  0.96470  Biso   1.000  H
  H80      1.0000 0.56050  0.90770  0.95730  Biso   1.000  H
  H81      1.0000 0.53380  0.78550  0.97250  Biso   1.000  H
  O19      1.0000 0.69850  0.12170  0.99050  Biso   1.000  O
  O20      1.0000 0.69910  0.34370  0.96560  Biso   1.000  O
  O21      1.0000 0.32090  0.62630  0.58690  Biso   1.000  O
  O22      1.0000 0.29370  0.81100  0.54100  Biso   1.000  O
  O23      1.0000 0.29900  0.41320  0.97410  Biso   1.000  O
  O24      1.0000 0.29110  0.18650  0.94920  Biso   1.000  O
  O25      1.0000 0.53260  0.51010  0.93540  Biso   1.000  O
  O26      1.0000 0.44650  0.84150  0.73250  Biso   1.000  O
  O27      1.0000 0.42510  0.07950  0.90590  Biso   1.000  O
  Tb4      1.0000 0.25513  0.45471  0.02220  Biso   1.000  Tb
  C100     1.0000 0.18190  0.74360  0.97980  Biso   1.000  C
  C101     1.0000 0.13470  0.76990  0.98250  Biso   1.000  C
  C102     1.0000 0.11870  0.67950  0.01020  Biso   1.000  C
  H82      1.0000 0.13640  0.60060  0.02520  Biso   1.000  H
  C103     1.0000 0.07700  0.70740  0.01510  Biso   1.000  C
  H83      1.0000 0.06780  0.65240  0.03580  Biso   1.000  H
  C104     1.0000 0.04770  0.81890  0.98910  Biso   1.000  C
  H84      1.0000 0.01860  0.83560  0.99100  Biso   1.000  H
  C105     1.0000 0.06400  0.90220  0.96060  Biso   1.000  C
  C106     1.0000 0.10700  0.88350  0.95830  Biso   1.000  C
  H85      1.0000 0.11770  0.94610  0.94060  Biso   1.000  H
  C107     1.0000 0.82370  0.25170  0.57790  Biso   1.000  C
  C108     1.0000 0.86360  0.34060  0.60950  Biso   1.000  C
  C109     1.0000 0.88560  0.29430  0.65640  Biso   1.000  C
  H86      1.0000 0.87560  0.21160  0.66700  Biso   1.000  H
  C110     1.0000 0.92290  0.37460  0.68670  Biso   1.000  C
  C111     1.0000 0.93760  0.49710  0.66990  Biso   1.000  C
  H87      1.0000 0.96160  0.55220  0.69050  Biso   1.000  H
  C112     1.0000 0.91790  0.53800  0.62440  Biso   1.000  C
  H88      1.0000 0.92960  0.61600  0.61310  Biso   1.000  H
  C113     1.0000 0.87950  0.46060  0.59440  Biso   1.000  C
  H89      1.0000 0.86440  0.49170  0.56350  Biso   1.000  H
  C114     1.0000 0.80970  0.80430  0.95510  Biso   1.000  C
  C115     1.0000 0.84960  0.82080  0.93760  Biso   1.000  C
  C116     1.0000 0.86670  0.95440  0.93150  Biso   1.000  C
  H90      1.0000 0.85320  0.03740  0.93800  Biso   1.000  H
  C117     1.0000 0.90260  0.96410  0.91640  Biso   1.000  C
  H91      1.0000 0.91300  0.05470  0.91180  Biso   1.000  H
  C118     1.0000 0.92500  0.84120  0.90720  Biso   1.000  C
  H92      1.0000 0.95020  0.84880  0.89730  Biso   1.000  H
  C119     1.0000 0.90730  0.70670  0.91380  Biso   1.000  C
  C120     1.0000 0.87030  0.69800  0.92820  Biso   1.000  C
  H93      1.0000 0.85880  0.60820  0.93180  Biso   1.000  H
  C121     1.0000 0.05050  0.11200  0.91170  Biso   1.000  C
  H94      1.0000 0.06380  0.06320  0.89140  Biso   1.000  H
  H95      1.0000 0.07470  0.16890  0.93440  Biso   1.000  H
  C122     1.0000 0.92560  0.24260  0.75570  Biso   1.000  C
  H96      1.0000 0.92990  0.14390  0.74780  Biso   1.000  H
  H97      1.0000 0.89250  0.26130  0.74690  Biso   1.000  H
  C123     1.0000 0.96480  0.58080  0.89160  Biso   1.000  C
  H98      1.0000 0.99270  0.60660  0.91810  Biso   1.000  H
  H99      1.0000 0.96030  0.65110  0.86680  Biso   1.000  H
  C124     1.0000 0.01090  0.20790  0.88270  Biso   1.000  C
  C125     1.0000 0.98490  0.17200  0.83640  Biso   1.000  C
  C126     1.0000 0.95200  0.27200  0.80840  Biso   1.000  C
  C127     1.0000 0.94460  0.40000  0.82690  Biso   1.000  C
  C128     1.0000 0.97030  0.43480  0.87420  Biso   1.000  C
  C129     1.0000 0.00320  0.33700  0.90260  Biso   1.000  C
  C130     1.0000 0.99320  0.03060  0.81630  Biso   1.000  C
  H100     1.0000 0.01200  0.04640  0.79750  Biso   1.000  H
  H101     1.0000 0.96380  0.98980  0.79690  Biso   1.000  H
  H102     1.0000 0.00900  0.96570  0.84150  Biso   1.000  H
  C131     1.0000 0.90810  0.50570  0.79650  Biso   1.000  C
  H103     1.0000 0.89890  0.56900  0.81650  Biso   1.000  H
  H104     1.0000 0.88140  0.45370  0.77630  Biso   1.000  H
  H105     1.0000 0.92110  0.56100  0.77760  Biso   1.000  H
  C132     1.0000 0.03030  0.37120  0.95400  Biso   1.000  C
  H106     1.0000 0.01370  0.44210  0.96470  Biso   1.000  H
  H107     1.0000 0.06050  0.40770  0.95730  Biso   1.000  H
  H108     1.0000 0.03380  0.28550  0.97250  Biso   1.000  H
  O28      1.0000 0.19850  0.62170  0.99050  Biso   1.000  O
  O29      1.0000 0.19910  0.84370  0.96560  Biso   1.000  O
  O30      1.0000 0.82090  0.12630  0.58690  Biso   1.000  O
  O31      1.0000 0.79370  0.31100  0.54100  Biso   1.000  O
  O32      1.0000 0.79900  0.91320  0.97410  Biso   1.000  O
  O33      1.0000 0.79110  0.68650  0.94920  Biso   1.000  O
  O34      1.0000 0.03260  0.01010  0.93540  Biso   1.000  O
  O35      1.0000 0.94650  0.34150  0.73250  Biso   1.000  O
  O36      1.0000 0.92510  0.57950  0.90590  Biso   1.000  O
  Tb5      1.0000 0.75513  0.04529  0.52220  Biso   1.000  Tb
  C133     1.0000 0.68190  0.75640  0.47980  Biso   1.000  C
  C134     1.0000 0.63470  0.73010  0.48250  Biso   1.000  C
  C135     1.0000 0.61870  0.82050  0.51020  Biso   1.000  C
  H109     1.0000 0.63640  0.89940  0.52520  Biso   1.000  H
  C136     1.0000 0.57700  0.79260  0.51510  Biso   1.000  C
  H110     1.0000 0.56780  0.84760  0.53580  Biso   1.000  H
  C137     1.0000 0.54770  0.68110  0.48910  Biso   1.000  C
  H111     1.0000 0.51860  0.66440  0.49100  Biso   1.000  H
  C138     1.0000 0.56400  0.59780  0.46060  Biso   1.000  C
  C139     1.0000 0.60700  0.61650  0.45830  Biso   1.000  C
  H112     1.0000 0.61770  0.55390  0.44060  Biso   1.000  H
  C140     1.0000 0.32370  0.24830  0.07790  Biso   1.000  C
  C141     1.0000 0.36360  0.15940  0.10950  Biso   1.000  C
  C142     1.0000 0.38560  0.20570  0.15640  Biso   1.000  C
  H113     1.0000 0.37560  0.28840  0.16700  Biso   1.000  H
  C143     1.0000 0.42290  0.12540  0.18670  Biso   1.000  C
  C144     1.0000 0.43760  0.00290  0.16990  Biso   1.000  C
  H114     1.0000 0.46160  0.94780  0.19050  Biso   1.000  H
  C145     1.0000 0.41790  0.96200  0.12440  Biso   1.000  C
  H115     1.0000 0.42960  0.88400  0.11310  Biso   1.000  H
  C146     1.0000 0.37950  0.03940  0.09440  Biso   1.000  C
  H116     1.0000 0.36440  0.00830  0.06350  Biso   1.000  H
  C147     1.0000 0.30970  0.69570  0.45510  Biso   1.000  C
  C148     1.0000 0.34960  0.67920  0.43760  Biso   1.000  C
  C149     1.0000 0.36670  0.54560  0.43150  Biso   1.000  C
  H117     1.0000 0.35320  0.46260  0.43800  Biso   1.000  H
  C150     1.0000 0.40260  0.53590  0.41640  Biso   1.000  C
  H118     1.0000 0.41300  0.44530  0.41180  Biso   1.000  H
  C151     1.0000 0.42500  0.65880  0.40720  Biso   1.000  C
  H119     1.0000 0.45020  0.65120  0.39730  Biso   1.000  H
  C152     1.0000 0.40730  0.79330  0.41380  Biso   1.000  C
  C153     1.0000 0.37030  0.80200  0.42820  Biso   1.000  C
  H120     1.0000 0.35880  0.89180  0.43180  Biso   1.000  H
  C154     1.0000 0.55050  0.38800  0.41170  Biso   1.000  C
  H121     1.0000 0.56380  0.43680  0.39140  Biso   1.000  H
  H122     1.0000 0.57470  0.33110  0.43440  Biso   1.000  H
  C155     1.0000 0.42560  0.25740  0.25570  Biso   1.000  C
  H123     1.0000 0.42990  0.35610  0.24780  Biso   1.000  H
  H124     1.0000 0.39250  0.23870  0.24690  Biso   1.000  H
  C156     1.0000 0.46480  0.91920  0.39160  Biso   1.000  C
  H125     1.0000 0.49270  0.89340  0.41810  Biso   1.000  H
  H126     1.0000 0.46030  0.84890  0.36680  Biso   1.000  H
  C157     1.0000 0.51090  0.29210  0.38270  Biso   1.000  C
  C158     1.0000 0.48490  0.32800  0.33640  Biso   1.000  C
  C159     1.0000 0.45200  0.22800  0.30840  Biso   1.000  C
  C160     1.0000 0.44460  0.10000  0.32690  Biso   1.000  C
  C161     1.0000 0.47030  0.06520  0.37420  Biso   1.000  C
  C162     1.0000 0.50320  0.16300  0.40260  Biso   1.000  C
  C163     1.0000 0.49320  0.46940  0.31630  Biso   1.000  C
  H127     1.0000 0.51200  0.45360  0.29750  Biso   1.000  H
  H128     1.0000 0.46380  0.51020  0.29690  Biso   1.000  H
  H129     1.0000 0.50900  0.53430  0.34150  Biso   1.000  H
  C164     1.0000 0.40810  0.99430  0.29650  Biso   1.000  C
  H130     1.0000 0.39890  0.93100  0.31650  Biso   1.000  H
  H131     1.0000 0.38140  0.04630  0.27630  Biso   1.000  H
  H132     1.0000 0.42110  0.93900  0.27760  Biso   1.000  H
  C165     1.0000 0.53030  0.12880  0.45400  Biso   1.000  C
  H133     1.0000 0.51370  0.05790  0.46470  Biso   1.000  H
  H134     1.0000 0.56050  0.09230  0.45730  Biso   1.000  H
  H135     1.0000 0.53380  0.21450  0.47250  Biso   1.000  H
  O37      1.0000 0.69850  0.87830  0.49050  Biso   1.000  O
  O38      1.0000 0.69910  0.65630  0.46560  Biso   1.000  O
  O39      1.0000 0.32090  0.37370  0.08690  Biso   1.000  O
  O40      1.0000 0.29370  0.18900  0.04100  Biso   1.000  O
  O41      1.0000 0.29900  0.58680  0.47410  Biso   1.000  O
  O42      1.0000 0.29110  0.81350  0.44920  Biso   1.000  O
  O43      1.0000 0.53260  0.48990  0.43540  Biso   1.000  O
  O44      1.0000 0.44650  0.15850  0.23250  Biso   1.000  O
  O45      1.0000 0.42510  0.92050  0.40590  Biso   1.000  O
  Tb6      1.0000 0.25513  0.54529  0.52220  Biso   1.000  Tb
  C166     1.0000 0.18190  0.25640  0.47980  Biso   1.000  C
  C167     1.0000 0.13470  0.23010  0.48250  Biso   1.000  C
  C168     1.0000 0.11870  0.32050  0.51020  Biso   1.000  C
  H136     1.0000 0.13640  0.39940  0.52520  Biso   1.000  H
  C169     1.0000 0.07700  0.29260  0.51510  Biso   1.000  C
  H137     1.0000 0.06780  0.34760  0.53580  Biso   1.000  H
  C170     1.0000 0.04770  0.18110  0.48910  Biso   1.000  C
  H138     1.0000 0.01860  0.16440  0.49100  Biso   1.000  H
  C171     1.0000 0.06400  0.09780  0.46060  Biso   1.000  C
  C172     1.0000 0.10700  0.11650  0.45830  Biso   1.000  C
  H139     1.0000 0.11770  0.05390  0.44060  Biso   1.000  H
  C173     1.0000 0.82370  0.74830  0.07790  Biso   1.000  C
  C174     1.0000 0.86360  0.65940  0.10950  Biso   1.000  C
  C175     1.0000 0.88560  0.70570  0.15640  Biso   1.000  C
  H140     1.0000 0.87560  0.78840  0.16700  Biso   1.000  H
  C176     1.0000 0.92290  0.62540  0.18670  Biso   1.000  C
  C177     1.0000 0.93760  0.50290  0.16990  Biso   1.000  C
  H141     1.0000 0.96160  0.44780  0.19050  Biso   1.000  H
  C178     1.0000 0.91790  0.46200  0.12440  Biso   1.000  C
  H142     1.0000 0.92960  0.38400  0.11310  Biso   1.000  H
  C179     1.0000 0.87950  0.53940  0.09440  Biso   1.000  C
  H143     1.0000 0.86440  0.50830  0.06350  Biso   1.000  H
  C180     1.0000 0.80970  0.19570  0.45510  Biso   1.000  C
  C181     1.0000 0.84960  0.17920  0.43760  Biso   1.000  C
  C182     1.0000 0.86670  0.04560  0.43150  Biso   1.000  C
  H144     1.0000 0.85320  0.96260  0.43800  Biso   1.000  H
  C183     1.0000 0.90260  0.03590  0.41640  Biso   1.000  C
  H145     1.0000 0.91300  0.94530  0.41180  Biso   1.000  H
  C184     1.0000 0.92500  0.15880  0.40720  Biso   1.000  C
  H146     1.0000 0.95020  0.15120  0.39730  Biso   1.000  H
  C185     1.0000 0.90730  0.29330  0.41380  Biso   1.000  C
  C186     1.0000 0.87030  0.30200  0.42820  Biso   1.000  C
  H147     1.0000 0.85880  0.39180  0.43180  Biso   1.000  H
  C187     1.0000 0.05050  0.88800  0.41170  Biso   1.000  C
  H148     1.0000 0.06380  0.93680  0.39140  Biso   1.000  H
  H149     1.0000 0.07470  0.83110  0.43440  Biso   1.000  H
  C188     1.0000 0.92560  0.75740  0.25570  Biso   1.000  C
  H150     1.0000 0.92990  0.85610  0.24780  Biso   1.000  H
  H151     1.0000 0.89250  0.73870  0.24690  Biso   1.000  H
  C189     1.0000 0.96480  0.41920  0.39160  Biso   1.000  C
  H152     1.0000 0.99270  0.39340  0.41810  Biso   1.000  H
  H153     1.0000 0.96030  0.34890  0.36680  Biso   1.000  H
  C190     1.0000 0.01090  0.79210  0.38270  Biso   1.000  C
  C191     1.0000 0.98490  0.82800  0.33640  Biso   1.000  C
  C192     1.0000 0.95200  0.72800  0.30840  Biso   1.000  C
  C193     1.0000 0.94460  0.60000  0.32690  Biso   1.000  C
  C194     1.0000 0.97030  0.56520  0.37420  Biso   1.000  C
  C195     1.0000 0.00320  0.66300  0.40260  Biso   1.000  C
  C196     1.0000 0.99320  0.96940  0.31630  Biso   1.000  C
  H154     1.0000 0.01200  0.95360  0.29750  Biso   1.000  H
  H155     1.0000 0.96380  0.01020  0.29690  Biso   1.000  H
  H156     1.0000 0.00900  0.03430  0.34150  Biso   1.000  H
  C197     1.0000 0.90810  0.49430  0.29650  Biso   1.000  C
  H157     1.0000 0.89890  0.43100  0.31650  Biso   1.000  H
  H158     1.0000 0.88140  0.54630  0.27630  Biso   1.000  H
  H159     1.0000 0.92110  0.43900  0.27760  Biso   1.000  H
  C198     1.0000 0.03030  0.62880  0.45400  Biso   1.000  C
  H160     1.0000 0.01370  0.55790  0.46470  Biso   1.000  H
  H161     1.0000 0.06050  0.59230  0.45730  Biso   1.000  H
  H162     1.0000 0.03380  0.71450  0.47250  Biso   1.000  H
  O46      1.0000 0.19850  0.37830  0.49050  Biso   1.000  O
  O47      1.0000 0.19910  0.15630  0.46560  Biso   1.000  O
  O48      1.0000 0.82090  0.87370  0.08690  Biso   1.000  O
  O49      1.0000 0.79370  0.68900  0.04100  Biso   1.000  O
  O50      1.0000 0.79900  0.08680  0.47410  Biso   1.000  O
  O51      1.0000 0.79110  0.31350  0.44920  Biso   1.000  O
  O52      1.0000 0.03260  0.98990  0.43540  Biso   1.000  O
  O53      1.0000 0.94650  0.65850  0.23250  Biso   1.000  O
  O54      1.0000 0.92510  0.42050  0.40590  Biso   1.000  O
  Tb7      1.0000 0.24487  0.04529  0.97780  Biso   1.000  Tb
  C199     1.0000 0.31810  0.75640  0.02020  Biso   1.000  C
  C200     1.0000 0.36530  0.73010  0.01750  Biso   1.000  C
  C201     1.0000 0.38130  0.82050  0.98980  Biso   1.000  C
  H163     1.0000 0.36360  0.89940  0.97480  Biso   1.000  H
  C202     1.0000 0.42300  0.79260  0.98490  Biso   1.000  C
  H164     1.0000 0.43220  0.84760  0.96420  Biso   1.000  H
  C203     1.0000 0.45230  0.68110  0.01090  Biso   1.000  C
  H165     1.0000 0.48140  0.66440  0.00900  Biso   1.000  H
  C204     1.0000 0.43600  0.59780  0.03940  Biso   1.000  C
  C205     1.0000 0.39300  0.61650  0.04170  Biso   1.000  C
  H166     1.0000 0.38230  0.55390  0.05940  Biso   1.000  H
  C206     1.0000 0.67630  0.24830  0.42210  Biso   1.000  C
  C207     1.0000 0.63640  0.15940  0.39050  Biso   1.000  C
  C208     1.0000 0.61440  0.20570  0.34360  Biso   1.000  C
  H167     1.0000 0.62440  0.28840  0.33300  Biso   1.000  H
  C209     1.0000 0.57710  0.12540  0.31330  Biso   1.000  C
  C210     1.0000 0.56240  0.00290  0.33010  Biso   1.000  C
  H168     1.0000 0.53840  0.94780  0.30950  Biso   1.000  H
  C211     1.0000 0.58210  0.96200  0.37560  Biso   1.000  C
  H169     1.0000 0.57040  0.88400  0.38690  Biso   1.000  H
  C212     1.0000 0.62050  0.03940  0.40560  Biso   1.000  C
  H170     1.0000 0.63560  0.00830  0.43650  Biso   1.000  H
  C213     1.0000 0.69030  0.69570  0.04490  Biso   1.000  C
  C214     1.0000 0.65040  0.67920  0.06240  Biso   1.000  C
  C215     1.0000 0.63330  0.54560  0.06850  Biso   1.000  C
  H171     1.0000 0.64680  0.46260  0.06200  Biso   1.000  H
  C216     1.0000 0.59740  0.53590  0.08360  Biso   1.000  C
  H172     1.0000 0.58700  0.44530  0.08820  Biso   1.000  H
  C217     1.0000 0.57500  0.65880  0.09280  Biso   1.000  C
  H173     1.0000 0.54980  0.65120  0.10270  Biso   1.000  H
  C218     1.0000 0.59270  0.79330  0.08620  Biso   1.000  C
  C219     1.0000 0.62970  0.80200  0.07180  Biso   1.000  C
  H174     1.0000 0.64120  0.89180  0.06820  Biso   1.000  H
  C220     1.0000 0.44950  0.38800  0.08830  Biso   1.000  C
  H175     1.0000 0.43620  0.43680  0.10860  Biso   1.000  H
  H176     1.0000 0.42530  0.33110  0.06560  Biso   1.000  H
  C221     1.0000 0.57440  0.25740  0.24430  Biso   1.000  C
  H177     1.0000 0.57010  0.35610  0.25220  Biso   1.000  H
  H178     1.0000 0.60750  0.23870  0.25310  Biso   1.000  H
  C222     1.0000 0.53520  0.91920  0.10840  Biso   1.000  C
  H179     1.0000 0.50730  0.89340  0.08190  Biso   1.000  H
  H180     1.0000 0.53970  0.84890  0.13320  Biso   1.000  H
  C223     1.0000 0.48910  0.29210  0.11730  Biso   1.000  C
  C224     1.0000 0.51510  0.32800  0.16360  Biso   1.000  C
  C225     1.0000 0.54800  0.22800  0.19160  Biso   1.000  C
  C226     1.0000 0.55540  0.10000  0.17310  Biso   1.000  C
  C227     1.0000 0.52970  0.06520  0.12580  Biso   1.000  C
  C228     1.0000 0.49680  0.16300  0.09740  Biso   1.000  C
  C229     1.0000 0.50680  0.46940  0.18370  Biso   1.000  C
  H181     1.0000 0.48800  0.45360  0.20250  Biso   1.000  H
  H182     1.0000 0.53620  0.51020  0.20310  Biso   1.000  H
  H183     1.0000 0.49100  0.53430  0.15850  Biso   1.000  H
  C230     1.0000 0.59190  0.99430  0.20350  Biso   1.000  C
  H184     1.0000 0.60110  0.93100  0.18350  Biso   1.000  H
  H185     1.0000 0.61860  0.04630  0.22370  Biso   1.000  H
  H186     1.0000 0.57890  0.93900  0.22240  Biso   1.000  H
  C231     1.0000 0.46970  0.12880  0.04600  Biso   1.000  C
  H187     1.0000 0.48630  0.05790  0.03530  Biso   1.000  H
  H188     1.0000 0.43950  0.09230  0.04270  Biso   1.000  H
  H189     1.0000 0.46620  0.21450  0.02750  Biso   1.000  H
  O55      1.0000 0.30150  0.87830  0.00950  Biso   1.000  O
  O56      1.0000 0.30090  0.65630  0.03440  Biso   1.000  O
  O57      1.0000 0.67910  0.37370  0.41310  Biso   1.000  O
  O58      1.0000 0.70630  0.18900  0.45900  Biso   1.000  O
  O59      1.0000 0.70100  0.58680  0.02590  Biso   1.000  O
  O60      1.0000 0.70890  0.81350  0.05080  Biso   1.000  O
  O61      1.0000 0.46740  0.48990  0.06460  Biso   1.000  O
  O62      1.0000 0.55350  0.15850  0.26750  Biso   1.000  O
  O63      1.0000 0.57490  0.92050  0.09410  Biso   1.000  O
  Tb8      1.0000 0.74487  0.54529  0.97780  Biso   1.000  Tb
  C232     1.0000 0.81810  0.25640  0.02020  Biso   1.000  C
  C233     1.0000 0.86530  0.23010  0.01750  Biso   1.000  C
  C234     1.0000 0.88130  0.32050  0.98980  Biso   1.000  C
  H190     1.0000 0.86360  0.39940  0.97480  Biso   1.000  H
  C235     1.0000 0.92300  0.29260  0.98490  Biso   1.000  C
  H191     1.0000 0.93220  0.34760  0.96420  Biso   1.000  H
  C236     1.0000 0.95230  0.18110  0.01090  Biso   1.000  C
  H192     1.0000 0.98140  0.16440  0.00900  Biso   1.000  H
  C237     1.0000 0.93600  0.09780  0.03940  Biso   1.000  C
  C238     1.0000 0.89300  0.11650  0.04170  Biso   1.000  C
  H193     1.0000 0.88230  0.05390  0.05940  Biso   1.000  H
  C239     1.0000 0.17630  0.74830  0.42210  Biso   1.000  C
  C240     1.0000 0.13640  0.65940  0.39050  Biso   1.000  C
  C241     1.0000 0.11440  0.70570  0.34360  Biso   1.000  C
  H194     1.0000 0.12440  0.78840  0.33300  Biso   1.000  H
  C242     1.0000 0.07710  0.62540  0.31330  Biso   1.000  C
  C243     1.0000 0.06240  0.50290  0.33010  Biso   1.000  C
  H195     1.0000 0.03840  0.44780  0.30950  Biso   1.000  H
  C244     1.0000 0.08210  0.46200  0.37560  Biso   1.000  C
  H196     1.0000 0.07040  0.38400  0.38690  Biso   1.000  H
  C245     1.0000 0.12050  0.53940  0.40560  Biso   1.000  C
  H197     1.0000 0.13560  0.50830  0.43650  Biso   1.000  H
  C246     1.0000 0.19030  0.19570  0.04490  Biso   1.000  C
  C247     1.0000 0.15040  0.17920  0.06240  Biso   1.000  C
  C248     1.0000 0.13330  0.04560  0.06850  Biso   1.000  C
  H198     1.0000 0.14680  0.96260  0.06200  Biso   1.000  H
  C249     1.0000 0.09740  0.03590  0.08360  Biso   1.000  C
  H199     1.0000 0.08700  0.94530  0.08820  Biso   1.000  H
  C250     1.0000 0.07500  0.15880  0.09280  Biso   1.000  C
  H200     1.0000 0.04980  0.15120  0.10270  Biso   1.000  H
  C251     1.0000 0.09270  0.29330  0.08620  Biso   1.000  C
  C252     1.0000 0.12970  0.30200  0.07180  Biso   1.000  C
  H201     1.0000 0.14120  0.39180  0.06820  Biso   1.000  H
  C253     1.0000 0.94950  0.88800  0.08830  Biso   1.000  C
  H202     1.0000 0.93620  0.93680  0.10860  Biso   1.000  H
  H203     1.0000 0.92530  0.83110  0.06560  Biso   1.000  H
  C254     1.0000 0.07440  0.75740  0.24430  Biso   1.000  C
  H204     1.0000 0.07010  0.85610  0.25220  Biso   1.000  H
  H205     1.0000 0.10750  0.73870  0.25310  Biso   1.000  H
  C255     1.0000 0.03520  0.41920  0.10840  Biso   1.000  C
  H206     1.0000 0.00730  0.39340  0.08190  Biso   1.000  H
  H207     1.0000 0.03970  0.34890  0.13320  Biso   1.000  H
  C256     1.0000 0.98910  0.79210  0.11730  Biso   1.000  C
  C257     1.0000 0.01510  0.82800  0.16360  Biso   1.000  C
  C258     1.0000 0.04800  0.72800  0.19160  Biso   1.000  C
  C259     1.0000 0.05540  0.60000  0.17310  Biso   1.000  C
  C260     1.0000 0.02970  0.56520  0.12580  Biso   1.000  C
  C261     1.0000 0.99680  0.66300  0.09740  Biso   1.000  C
  C262     1.0000 0.00680  0.96940  0.18370  Biso   1.000  C
  H208     1.0000 0.98800  0.95360  0.20250  Biso   1.000  H
  H209     1.0000 0.03620  0.01020  0.20310  Biso   1.000  H
  H210     1.0000 0.99100  0.03430  0.15850  Biso   1.000  H
  C263     1.0000 0.09190  0.49430  0.20350  Biso   1.000  C
  H211     1.0000 0.10110  0.43100  0.18350  Biso   1.000  H
  H212     1.0000 0.11860  0.54630  0.22370  Biso   1.000  H
  H213     1.0000 0.07890  0.43900  0.22240  Biso   1.000  H
  C264     1.0000 0.96970  0.62880  0.04600  Biso   1.000  C
  H214     1.0000 0.98630  0.55790  0.03530  Biso   1.000  H
  H215     1.0000 0.93950  0.59230  0.04270  Biso   1.000  H
  H216     1.0000 0.96620  0.71450  0.02750  Biso   1.000  H
  O64      1.0000 0.80150  0.37830  0.00950  Biso   1.000  O
  O65      1.0000 0.80090  0.15630  0.03440  Biso   1.000  O
  O66      1.0000 0.17910  0.87370  0.41310  Biso   1.000  O
  O67      1.0000 0.20630  0.68900  0.45900  Biso   1.000  O
  O68      1.0000 0.20100  0.08680  0.02590  Biso   1.000  O
  O69      1.0000 0.20890  0.31350  0.05080  Biso   1.000  O
  O70      1.0000 0.96740  0.98990  0.06460  Biso   1.000  O
  O71      1.0000 0.05350  0.65850  0.26750  Biso   1.000  O
  O72      1.0000 0.07490  0.42050  0.09410  Biso   1.000  O
