data_image0
_cell_length_a       11.4221
_cell_length_b       21.2742
_cell_length_c       19.0647
_cell_angle_alpha    90
_cell_angle_beta     95.4192
_cell_angle_gamma    90

_symmetry_space_group_name_H-M    "P 1"
_symmetry_int_tables_number       1

loop_
  _symmetry_equiv_pos_as_xyz
  'x, y, z'

loop_
  _atom_site_label
  _atom_site_occupancy
  _atom_site_fract_x
  _atom_site_fract_y
  _atom_site_fract_z
  _atom_site_thermal_displace_type
  _atom_site_B_iso_or_equiv
  _atom_site_type_symbol
  Zn1      1.0000 0.61566  0.98653  0.08484  Biso   1.000  Zn
  O1       1.0000 0.77440  0.96465  0.06814  Biso   1.000  O
  O2       1.0000 0.76340  0.90544  0.16174  Biso   1.000  O
  O3       1.0000 0.39720  0.57302  0.45043  Biso   1.000  O
  O4       1.0000 0.51070  0.58012  0.54851  Biso   1.000  O
  O5       1.0000 0.35480  0.95399  0.52815  Biso   1.000  O
  O6       1.0000 0.22830  0.85707  0.58366  Biso   1.000  O
  O7       1.0000 0.01050  0.79453  0.59160  Biso   1.000  O
  O8       1.0000 0.22170  0.15763  0.45755  Biso   1.000  O
  N1       1.0000 0.09520  0.92197  0.33609  Biso   1.000  N
  N2       1.0000 0.18370  0.87298  0.43087  Biso   1.000  N
  H1       1.0000 0.20087  0.86283  0.47540  Biso   1.000  H
  N3       1.0000 0.53940  0.00149  0.17452  Biso   1.000  N
  C1       1.0000 0.82000  0.92830  0.11630  Biso   1.000  C
  C2       1.0000 0.95040  0.91727  0.11600  Biso   1.000  C
  C3       1.0000 0.01360  0.89488  0.17787  Biso   1.000  C
  H2       1.0000 0.97286  0.88489  0.21764  Biso   1.000  H
  C4       1.0000 0.13500  0.88717  0.18150  Biso   1.000  C
  C5       1.0000 0.19300  0.90300  0.12320  Biso   1.000  C
  H3       1.0000 0.27615  0.89926  0.12539  Biso   1.000  H
  C6       1.0000 0.13080  0.92420  0.06180  Biso   1.000  C
  H4       1.0000 0.17118  0.93367  0.02172  Biso   1.000  H
  C7       1.0000 0.01020  0.93170  0.05870  Biso   1.000  C
  H5       1.0000 0.96832  0.94696  0.01676  Biso   1.000  H
  C8       1.0000 0.19950  0.86064  0.24622  Biso   1.000  C
  C9       1.0000 0.17330  0.87653  0.31432  Biso   1.000  C
  C10      1.0000 0.23030  0.84654  0.37367  Biso   1.000  C
  C11      1.0000 0.31610  0.80002  0.36915  Biso   1.000  C
  C12      1.0000 0.34330  0.78652  0.30180  Biso   1.000  C
  H6       1.0000 0.40240  0.75616  0.29554  Biso   1.000  H
  C13      1.0000 0.28710  0.81586  0.24270  Biso   1.000  C
  H7       1.0000 0.30974  0.80468  0.19770  Biso   1.000  H
  C14      1.0000 0.37650  0.76873  0.43277  Biso   1.000  C
  C15      1.0000 0.43120  0.80325  0.48770  Biso   1.000  C
  H8       1.0000 0.42881  0.84785  0.48552  Biso   1.000  H
  C16      1.0000 0.48980  0.77399  0.54620  Biso   1.000  C
  H9       1.0000 0.52474  0.79859  0.58413  Biso   1.000  H
  C17      1.0000 0.49710  0.70959  0.54900  Biso   1.000  C
  H10      1.0000 0.54026  0.68960  0.58783  Biso   1.000  H
  C18      1.0000 0.44130  0.67389  0.49493  Biso   1.000  C
  C19      1.0000 0.38160  0.70335  0.43736  Biso   1.000  C
  H11      1.0000 0.34347  0.67862  0.40048  Biso   1.000  H
  C20      1.0000 0.45160  0.60357  0.49780  Biso   1.000  C
  C21      1.0000 0.10610  0.91767  0.40543  Biso   1.000  C
  C22      1.0000 0.04780  0.95917  0.45294  Biso   1.000  C
  C23      1.0000 0.03040  0.02203  0.43580  Biso   1.000  C
  H12      1.0000 0.05090  0.03726  0.39171  Biso   1.000  H
  C24      1.0000 0.01660  0.93733  0.51780  Biso   1.000  C
  H13      1.0000 0.02769  0.89431  0.53004  Biso   1.000  H
  C25      1.0000 0.28060  0.10450  0.44060  Biso   1.000  C
  C26      1.0000 0.32270  0.09360  0.37650  Biso   1.000  C
  H14      1.0000 0.31562  0.12477  0.34064  Biso   1.000  H
  C27      1.0000 0.37690  0.03520  0.36470  Biso   1.000  C
  C28      1.0000 0.38650  0.99040  0.41660  Biso   1.000  C
  H15      1.0000 0.42257  0.95124  0.40835  Biso   1.000  H
  C29      1.0000 0.34360  0.00210  0.48140  Biso   1.000  C
  C30      1.0000 0.29320  0.05930  0.49430  Biso   1.000  C
  H16      1.0000 0.26721  0.06801  0.53922  Biso   1.000  H
  C31      1.0000 0.30550  0.96020  0.59340  Biso   1.000  C
  H17      1.0000 0.22389  0.97608  0.58567  Biso   1.000  H
  H18      1.0000 0.35244  0.98990  0.62451  Biso   1.000  H
  C32      1.0000 0.30720  0.89640  0.62580  Biso   1.000  C
  H19      1.0000 0.38770  0.87871  0.62841  Biso   1.000  H
  H20      1.0000 0.28295  0.89900  0.67421  Biso   1.000  H
  C33      1.0000 0.21630  0.79710  0.61430  Biso   1.000  C
  H21      1.0000 0.20311  0.80185  0.66460  Biso   1.000  H
  H22      1.0000 0.28948  0.77263  0.61152  Biso   1.000  H
  C34      1.0000 0.11580  0.76330  0.57650  Biso   1.000  C
  H23      1.0000 0.12281  0.76362  0.52518  Biso   1.000  H
  H24      1.0000 0.11454  0.71902  0.59254  Biso   1.000  H
  C35      1.0000 0.90770  0.75880  0.57580  Biso   1.000  C
  H25      1.0000 0.91317  0.71880  0.60243  Biso   1.000  H
  H26      1.0000 0.89735  0.74900  0.52488  Biso   1.000  H
  C36      1.0000 0.19360  0.20340  0.40390  Biso   1.000  C
  H27      1.0000 0.17273  0.18241  0.35810  Biso   1.000  H
  H28      1.0000 0.26217  0.23106  0.39928  Biso   1.000  H
  C37      1.0000 0.42750  0.02388  0.29740  Biso   1.000  C
  C38      1.0000 0.46160  0.07250  0.25520  Biso   1.000  C
  H29      1.0000 0.44627  0.11478  0.26745  Biso   1.000  H
  C39      1.0000 0.51670  0.06020  0.19650  Biso   1.000  C
  H30      1.0000 0.54048  0.09472  0.16962  Biso   1.000  H
  C40      1.0000 0.50420  0.95450  0.21350  Biso   1.000  C
  H31      1.0000 0.51874  0.91269  0.19895  Biso   1.000  H
  C41      1.0000 0.44850  0.96270  0.27300  Biso   1.000  C
  H32      1.0000 0.42380  0.92726  0.29800  Biso   1.000  H
  Zn2      1.0000 0.38434  0.48653  0.41516  Biso   1.000  Zn
  O9       1.0000 0.22560  0.46465  0.43186  Biso   1.000  O
  O10      1.0000 0.23660  0.40544  0.33826  Biso   1.000  O
  O11      1.0000 0.60280  0.07302  0.04957  Biso   1.000  O
  O12      1.0000 0.48930  0.08012  0.95149  Biso   1.000  O
  O13      1.0000 0.64520  0.45399  0.97185  Biso   1.000  O
  O14      1.0000 0.77170  0.35707  0.91634  Biso   1.000  O
  O15      1.0000 0.98950  0.29453  0.90840  Biso   1.000  O
  O16      1.0000 0.77830  0.65763  0.04245  Biso   1.000  O
  N4       1.0000 0.90480  0.42197  0.16391  Biso   1.000  N
  N5       1.0000 0.81630  0.37298  0.06913  Biso   1.000  N
  H33      1.0000 0.79913  0.36283  0.02460  Biso   1.000  H
  N6       1.0000 0.46060  0.50149  0.32548  Biso   1.000  N
  C42      1.0000 0.18000  0.42830  0.38370  Biso   1.000  C
  C43      1.0000 0.04960  0.41727  0.38400  Biso   1.000  C
  C44      1.0000 0.98640  0.39488  0.32213  Biso   1.000  C
  H34      1.0000 0.02714  0.38489  0.28236  Biso   1.000  H
  C45      1.0000 0.86500  0.38717  0.31850  Biso   1.000  C
  C46      1.0000 0.80700  0.40300  0.37680  Biso   1.000  C
  H35      1.0000 0.72385  0.39926  0.37461  Biso   1.000  H
  C47      1.0000 0.86920  0.42420  0.43820  Biso   1.000  C
  H36      1.0000 0.82882  0.43367  0.47828  Biso   1.000  H
  C48      1.0000 0.98980  0.43170  0.44130  Biso   1.000  C
  H37      1.0000 0.03168  0.44696  0.48324  Biso   1.000  H
  C49      1.0000 0.80050  0.36064  0.25378  Biso   1.000  C
  C50      1.0000 0.82670  0.37653  0.18568  Biso   1.000  C
  C51      1.0000 0.76970  0.34654  0.12633  Biso   1.000  C
  C52      1.0000 0.68390  0.30002  0.13085  Biso   1.000  C
  C53      1.0000 0.65670  0.28652  0.19820  Biso   1.000  C
  H38      1.0000 0.59760  0.25616  0.20446  Biso   1.000  H
  C54      1.0000 0.71290  0.31586  0.25730  Biso   1.000  C
  H39      1.0000 0.69026  0.30468  0.30230  Biso   1.000  H
  C55      1.0000 0.62350  0.26873  0.06723  Biso   1.000  C
  C56      1.0000 0.56880  0.30325  0.01230  Biso   1.000  C
  H40      1.0000 0.57119  0.34785  0.01448  Biso   1.000  H
  C57      1.0000 0.51020  0.27399  0.95380  Biso   1.000  C
  H41      1.0000 0.47526  0.29859  0.91587  Biso   1.000  H
  C58      1.0000 0.50290  0.20959  0.95100  Biso   1.000  C
  H42      1.0000 0.45974  0.18960  0.91217  Biso   1.000  H
  C59      1.0000 0.55870  0.17389  0.00507  Biso   1.000  C
  C60      1.0000 0.61840  0.20335  0.06264  Biso   1.000  C
  H43      1.0000 0.65653  0.17862  0.09952  Biso   1.000  H
  C61      1.0000 0.54840  0.10357  0.00220  Biso   1.000  C
  C62      1.0000 0.89390  0.41767  0.09457  Biso   1.000  C
  C63      1.0000 0.95220  0.45917  0.04706  Biso   1.000  C
  C64      1.0000 0.96960  0.52203  0.06420  Biso   1.000  C
  H44      1.0000 0.94910  0.53726  0.10829  Biso   1.000  H
  C65      1.0000 0.98340  0.43733  0.98220  Biso   1.000  C
  H45      1.0000 0.97231  0.39431  0.96996  Biso   1.000  H
  C66      1.0000 0.71940  0.60450  0.05940  Biso   1.000  C
  C67      1.0000 0.67730  0.59360  0.12350  Biso   1.000  C
  H46      1.0000 0.68438  0.62477  0.15936  Biso   1.000  H
  C68      1.0000 0.62310  0.53520  0.13530  Biso   1.000  C
  C69      1.0000 0.61350  0.49040  0.08340  Biso   1.000  C
  H47      1.0000 0.57743  0.45124  0.09165  Biso   1.000  H
  C70      1.0000 0.65640  0.50210  0.01860  Biso   1.000  C
  C71      1.0000 0.70680  0.55930  0.00570  Biso   1.000  C
  H48      1.0000 0.73279  0.56801  0.96078  Biso   1.000  H
  C72      1.0000 0.69450  0.46020  0.90660  Biso   1.000  C
  H49      1.0000 0.77611  0.47608  0.91433  Biso   1.000  H
  H50      1.0000 0.64756  0.48990  0.87549  Biso   1.000  H
  C73      1.0000 0.69280  0.39640  0.87420  Biso   1.000  C
  H51      1.0000 0.61230  0.37871  0.87159  Biso   1.000  H
  H52      1.0000 0.71705  0.39900  0.82579  Biso   1.000  H
  C74      1.0000 0.78370  0.29710  0.88570  Biso   1.000  C
  H53      1.0000 0.79689  0.30185  0.83540  Biso   1.000  H
  H54      1.0000 0.71052  0.27263  0.88848  Biso   1.000  H
  C75      1.0000 0.88420  0.26330  0.92350  Biso   1.000  C
  H55      1.0000 0.87719  0.26362  0.97482  Biso   1.000  H
  H56      1.0000 0.88546  0.21902  0.90746  Biso   1.000  H
  C76      1.0000 0.09230  0.25880  0.92420  Biso   1.000  C
  H57      1.0000 0.08683  0.21880  0.89757  Biso   1.000  H
  H58      1.0000 0.10265  0.24900  0.97512  Biso   1.000  H
  C77      1.0000 0.80640  0.70340  0.09610  Biso   1.000  C
  H59      1.0000 0.82727  0.68241  0.14190  Biso   1.000  H
  H60      1.0000 0.73783  0.73106  0.10072  Biso   1.000  H
  C78      1.0000 0.57250  0.52388  0.20260  Biso   1.000  C
  C79      1.0000 0.53840  0.57250  0.24480  Biso   1.000  C
  H61      1.0000 0.55373  0.61478  0.23255  Biso   1.000  H
  C80      1.0000 0.48330  0.56020  0.30350  Biso   1.000  C
  H62      1.0000 0.45952  0.59472  0.33038  Biso   1.000  H
  C81      1.0000 0.49580  0.45450  0.28650  Biso   1.000  C
  H63      1.0000 0.48126  0.41269  0.30105  Biso   1.000  H
  C82      1.0000 0.55150  0.46270  0.22700  Biso   1.000  C
  H64      1.0000 0.57620  0.42726  0.20200  Biso   1.000  H
  Zn3      1.0000 0.38434  0.01347  0.91516  Biso   1.000  Zn
  O17      1.0000 0.22560  0.03535  0.93186  Biso   1.000  O
  O18      1.0000 0.23660  0.09456  0.83826  Biso   1.000  O
  O19      1.0000 0.60280  0.42698  0.54957  Biso   1.000  O
  O20      1.0000 0.48930  0.41988  0.45149  Biso   1.000  O
  O21      1.0000 0.64520  0.04601  0.47185  Biso   1.000  O
  O22      1.0000 0.77170  0.14293  0.41634  Biso   1.000  O
  O23      1.0000 0.98950  0.20547  0.40840  Biso   1.000  O
  O24      1.0000 0.77830  0.84237  0.54245  Biso   1.000  O
  N7       1.0000 0.90480  0.07803  0.66391  Biso   1.000  N
  N8       1.0000 0.81630  0.12702  0.56913  Biso   1.000  N
  H65      1.0000 0.79913  0.13717  0.52460  Biso   1.000  H
  N9       1.0000 0.46060  0.99851  0.82548  Biso   1.000  N
  C83      1.0000 0.18000  0.07170  0.88370  Biso   1.000  C
  C84      1.0000 0.04960  0.08273  0.88400  Biso   1.000  C
  C85      1.0000 0.98640  0.10512  0.82213  Biso   1.000  C
  H66      1.0000 0.02714  0.11511  0.78236  Biso   1.000  H
  C86      1.0000 0.86500  0.11283  0.81850  Biso   1.000  C
  C87      1.0000 0.80700  0.09700  0.87680  Biso   1.000  C
  H67      1.0000 0.72385  0.10074  0.87461  Biso   1.000  H
  C88      1.0000 0.86920  0.07580  0.93820  Biso   1.000  C
  H68      1.0000 0.82882  0.06633  0.97828  Biso   1.000  H
  C89      1.0000 0.98980  0.06830  0.94130  Biso   1.000  C
  H69      1.0000 0.03168  0.05304  0.98324  Biso   1.000  H
  C90      1.0000 0.80050  0.13936  0.75378  Biso   1.000  C
  C91      1.0000 0.82670  0.12347  0.68568  Biso   1.000  C
  C92      1.0000 0.76970  0.15346  0.62633  Biso   1.000  C
  C93      1.0000 0.68390  0.19998  0.63085  Biso   1.000  C
  C94      1.0000 0.65670  0.21348  0.69820  Biso   1.000  C
  H70      1.0000 0.59760  0.24384  0.70446  Biso   1.000  H
  C95      1.0000 0.71290  0.18414  0.75730  Biso   1.000  C
  H71      1.0000 0.69026  0.19532  0.80230  Biso   1.000  H
  C96      1.0000 0.62350  0.23127  0.56723  Biso   1.000  C
  C97      1.0000 0.56880  0.19675  0.51230  Biso   1.000  C
  H72      1.0000 0.57119  0.15215  0.51448  Biso   1.000  H
  C98      1.0000 0.51020  0.22601  0.45380  Biso   1.000  C
  H73      1.0000 0.47526  0.20141  0.41587  Biso   1.000  H
  C99      1.0000 0.50290  0.29041  0.45100  Biso   1.000  C
  H74      1.0000 0.45974  0.31040  0.41217  Biso   1.000  H
  C100     1.0000 0.55870  0.32611  0.50507  Biso   1.000  C
  C101     1.0000 0.61840  0.29665  0.56264  Biso   1.000  C
  H75      1.0000 0.65653  0.32138  0.59952  Biso   1.000  H
  C102     1.0000 0.54840  0.39643  0.50220  Biso   1.000  C
  C103     1.0000 0.89390  0.08233  0.59457  Biso   1.000  C
  C104     1.0000 0.95220  0.04083  0.54706  Biso   1.000  C
  C105     1.0000 0.96960  0.97797  0.56420  Biso   1.000  C
  H76      1.0000 0.94910  0.96274  0.60829  Biso   1.000  H
  C106     1.0000 0.98340  0.06267  0.48220  Biso   1.000  C
  H77      1.0000 0.97231  0.10569  0.46996  Biso   1.000  H
  C107     1.0000 0.71940  0.89550  0.55940  Biso   1.000  C
  C108     1.0000 0.67730  0.90640  0.62350  Biso   1.000  C
  H78      1.0000 0.68438  0.87523  0.65936  Biso   1.000  H
  C109     1.0000 0.62310  0.96480  0.63530  Biso   1.000  C
  C110     1.0000 0.61350  0.00960  0.58340  Biso   1.000  C
  H79      1.0000 0.57743  0.04876  0.59165  Biso   1.000  H
  C111     1.0000 0.65640  0.99790  0.51860  Biso   1.000  C
  C112     1.0000 0.70680  0.94070  0.50570  Biso   1.000  C
  H80      1.0000 0.73279  0.93199  0.46078  Biso   1.000  H
  C113     1.0000 0.69450  0.03980  0.40660  Biso   1.000  C
  H81      1.0000 0.77611  0.02392  0.41433  Biso   1.000  H
  H82      1.0000 0.64756  0.01010  0.37549  Biso   1.000  H
  C114     1.0000 0.69280  0.10360  0.37420  Biso   1.000  C
  H83      1.0000 0.61230  0.12129  0.37159  Biso   1.000  H
  H84      1.0000 0.71705  0.10100  0.32579  Biso   1.000  H
  C115     1.0000 0.78370  0.20290  0.38570  Biso   1.000  C
  H85      1.0000 0.79689  0.19815  0.33540  Biso   1.000  H
  H86      1.0000 0.71052  0.22737  0.38848  Biso   1.000  H
  C116     1.0000 0.88420  0.23670  0.42350  Biso   1.000  C
  H87      1.0000 0.87719  0.23638  0.47482  Biso   1.000  H
  H88      1.0000 0.88546  0.28098  0.40746  Biso   1.000  H
  C117     1.0000 0.09230  0.24120  0.42420  Biso   1.000  C
  H89      1.0000 0.08683  0.28120  0.39757  Biso   1.000  H
  H90      1.0000 0.10265  0.25100  0.47512  Biso   1.000  H
  C118     1.0000 0.80640  0.79660  0.59610  Biso   1.000  C
  H91      1.0000 0.82727  0.81759  0.64190  Biso   1.000  H
  H92      1.0000 0.73783  0.76894  0.60072  Biso   1.000  H
  C119     1.0000 0.57250  0.97612  0.70260  Biso   1.000  C
  C120     1.0000 0.53840  0.92750  0.74480  Biso   1.000  C
  H93      1.0000 0.55373  0.88522  0.73255  Biso   1.000  H
  C121     1.0000 0.48330  0.93980  0.80350  Biso   1.000  C
  H94      1.0000 0.45952  0.90528  0.83038  Biso   1.000  H
  C122     1.0000 0.49580  0.04550  0.78650  Biso   1.000  C
  H95      1.0000 0.48126  0.08731  0.80105  Biso   1.000  H
  C123     1.0000 0.55150  0.03730  0.72700  Biso   1.000  C
  H96      1.0000 0.57620  0.07274  0.70200  Biso   1.000  H
  Zn4      1.0000 0.61566  0.51347  0.58484  Biso   1.000  Zn
  O25      1.0000 0.77440  0.53535  0.56814  Biso   1.000  O
  O26      1.0000 0.76340  0.59456  0.66174  Biso   1.000  O
  O27      1.0000 0.39720  0.92698  0.95043  Biso   1.000  O
  O28      1.0000 0.51070  0.91988  0.04851  Biso   1.000  O
  O29      1.0000 0.35480  0.54601  0.02815  Biso   1.000  O
  O30      1.0000 0.22830  0.64293  0.08366  Biso   1.000  O
  O31      1.0000 0.01050  0.70547  0.09160  Biso   1.000  O
  O32      1.0000 0.22170  0.34237  0.95755  Biso   1.000  O
  N10      1.0000 0.09520  0.57803  0.83609  Biso   1.000  N
  N11      1.0000 0.18370  0.62702  0.93087  Biso   1.000  N
  H97      1.0000 0.20087  0.63717  0.97540  Biso   1.000  H
  N12      1.0000 0.53940  0.49851  0.67452  Biso   1.000  N
  C124     1.0000 0.82000  0.57170  0.61630  Biso   1.000  C
  C125     1.0000 0.95040  0.58273  0.61600  Biso   1.000  C
  C126     1.0000 0.01360  0.60512  0.67787  Biso   1.000  C
  H98      1.0000 0.97286  0.61511  0.71764  Biso   1.000  H
  C127     1.0000 0.13500  0.61283  0.68150  Biso   1.000  C
  C128     1.0000 0.19300  0.59700  0.62320  Biso   1.000  C
  H99      1.0000 0.27615  0.60074  0.62539  Biso   1.000  H
  C129     1.0000 0.13080  0.57580  0.56180  Biso   1.000  C
  H100     1.0000 0.17118  0.56633  0.52172  Biso   1.000  H
  C130     1.0000 0.01020  0.56830  0.55870  Biso   1.000  C
  H101     1.0000 0.96832  0.55304  0.51676  Biso   1.000  H
  C131     1.0000 0.19950  0.63936  0.74622  Biso   1.000  C
  C132     1.0000 0.17330  0.62347  0.81432  Biso   1.000  C
  C133     1.0000 0.23030  0.65346  0.87367  Biso   1.000  C
  C134     1.0000 0.31610  0.69998  0.86915  Biso   1.000  C
  C135     1.0000 0.34330  0.71348  0.80180  Biso   1.000  C
  H102     1.0000 0.40240  0.74384  0.79554  Biso   1.000  H
  C136     1.0000 0.28710  0.68414  0.74270  Biso   1.000  C
  H103     1.0000 0.30974  0.69532  0.69770  Biso   1.000  H
  C137     1.0000 0.37650  0.73127  0.93277  Biso   1.000  C
  C138     1.0000 0.43120  0.69675  0.98770  Biso   1.000  C
  H104     1.0000 0.42881  0.65215  0.98552  Biso   1.000  H
  C139     1.0000 0.48980  0.72601  0.04620  Biso   1.000  C
  H105     1.0000 0.52474  0.70141  0.08413  Biso   1.000  H
  C140     1.0000 0.49710  0.79041  0.04900  Biso   1.000  C
  H106     1.0000 0.54026  0.81040  0.08783  Biso   1.000  H
  C141     1.0000 0.44130  0.82611  0.99493  Biso   1.000  C
  C142     1.0000 0.38160  0.79665  0.93736  Biso   1.000  C
  H107     1.0000 0.34347  0.82138  0.90048  Biso   1.000  H
  C143     1.0000 0.45160  0.89643  0.99780  Biso   1.000  C
  C144     1.0000 0.10610  0.58233  0.90543  Biso   1.000  C
  C145     1.0000 0.04780  0.54083  0.95294  Biso   1.000  C
  C146     1.0000 0.03040  0.47797  0.93580  Biso   1.000  C
  H108     1.0000 0.05090  0.46274  0.89171  Biso   1.000  H
  C147     1.0000 0.01660  0.56267  0.01780  Biso   1.000  C
  H109     1.0000 0.02769  0.60569  0.03004  Biso   1.000  H
  C148     1.0000 0.28060  0.39550  0.94060  Biso   1.000  C
  C149     1.0000 0.32270  0.40640  0.87650  Biso   1.000  C
  H110     1.0000 0.31562  0.37523  0.84064  Biso   1.000  H
  C150     1.0000 0.37690  0.46480  0.86470  Biso   1.000  C
  C151     1.0000 0.38650  0.50960  0.91660  Biso   1.000  C
  H111     1.0000 0.42257  0.54876  0.90835  Biso   1.000  H
  C152     1.0000 0.34360  0.49790  0.98140  Biso   1.000  C
  C153     1.0000 0.29320  0.44070  0.99430  Biso   1.000  C
  H112     1.0000 0.26721  0.43199  0.03922  Biso   1.000  H
  C154     1.0000 0.30550  0.53980  0.09340  Biso   1.000  C
  H113     1.0000 0.22389  0.52392  0.08567  Biso   1.000  H
  H114     1.0000 0.35244  0.51010  0.12451  Biso   1.000  H
  C155     1.0000 0.30720  0.60360  0.12580  Biso   1.000  C
  H115     1.0000 0.38770  0.62129  0.12841  Biso   1.000  H
  H116     1.0000 0.28295  0.60100  0.17421  Biso   1.000  H
  C156     1.0000 0.21630  0.70290  0.11430  Biso   1.000  C
  H117     1.0000 0.20311  0.69815  0.16460  Biso   1.000  H
  H118     1.0000 0.28948  0.72737  0.11152  Biso   1.000  H
  C157     1.0000 0.11580  0.73670  0.07650  Biso   1.000  C
  H119     1.0000 0.12281  0.73638  0.02518  Biso   1.000  H
  H120     1.0000 0.11454  0.78098  0.09254  Biso   1.000  H
  C158     1.0000 0.90770  0.74120  0.07580  Biso   1.000  C
  H121     1.0000 0.91317  0.78120  0.10243  Biso   1.000  H
  H122     1.0000 0.89735  0.75100  0.02488  Biso   1.000  H
  C159     1.0000 0.19360  0.29660  0.90390  Biso   1.000  C
  H123     1.0000 0.17273  0.31759  0.85810  Biso   1.000  H
  H124     1.0000 0.26217  0.26894  0.89928  Biso   1.000  H
  C160     1.0000 0.42750  0.47612  0.79740  Biso   1.000  C
  C161     1.0000 0.46160  0.42750  0.75520  Biso   1.000  C
  H125     1.0000 0.44627  0.38522  0.76745  Biso   1.000  H
  C162     1.0000 0.51670  0.43980  0.69650  Biso   1.000  C
  H126     1.0000 0.54048  0.40528  0.66962  Biso   1.000  H
  C163     1.0000 0.50420  0.54550  0.71350  Biso   1.000  C
  H127     1.0000 0.51874  0.58731  0.69895  Biso   1.000  H
  C164     1.0000 0.44850  0.53730  0.77300  Biso   1.000  C
  H128     1.0000 0.42380  0.57274  0.79800  Biso   1.000  H
