data_image0
_cell_length_a       19.9853
_cell_length_b       19.9853
_cell_length_c       19.9853
_cell_angle_alpha    90
_cell_angle_beta     90
_cell_angle_gamma    90

_symmetry_space_group_name_H-M    "P 1"
_symmetry_int_tables_number       1

loop_
  _symmetry_equiv_pos_as_xyz
  'x, y, z'

loop_
  _atom_site_label
  _atom_site_occupancy
  _atom_site_fract_x
  _atom_site_fract_y
  _atom_site_fract_z
  _atom_site_thermal_displace_type
  _atom_site_B_iso_or_equiv
  _atom_site_type_symbol
  Pr1      1.0000 0.51204  0.74408  0.34638  Biso   1.000  Pr
  O1       1.0000 0.55063  0.64175  0.29195  Biso   1.000  O
  O2       1.0000 0.58086  0.57990  0.20462  Biso   1.000  O
  O3       1.0000 0.40902  0.88459  0.19987  Biso   1.000  O
  O4       1.0000 0.46156  0.83834  0.28616  Biso   1.000  O
  N1       1.0000 0.50060  0.73581  0.21688  Biso   1.000  N
  C1       1.0000 0.44563  0.84130  0.22543  Biso   1.000  C
  C2       1.0000 0.55497  0.63062  0.22963  Biso   1.000  C
  C3       1.0000 0.47291  0.78560  0.18191  Biso   1.000  C
  C4       1.0000 0.52595  0.68365  0.18435  Biso   1.000  C
  C5       1.0000 0.47010  0.78560  0.11316  Biso   1.000  C
  H1       1.0000 0.45040  0.82070  0.08980  Biso   1.000  H
  C6       1.0000 0.52530  0.67930  0.11572  Biso   1.000  C
  H2       1.0000 0.54290  0.64210  0.09400  Biso   1.000  H
  C7       1.0000 0.49780  0.73140  0.07989  Biso   1.000  C
  H3       1.0000 0.49790  0.73020  0.03340  Biso   1.000  H
  Pr2      1.0000 0.98796  0.25592  0.84638  Biso   1.000  Pr
  O5       1.0000 0.94937  0.35825  0.79195  Biso   1.000  O
  O6       1.0000 0.91914  0.42010  0.70462  Biso   1.000  O
  O7       1.0000 0.09098  0.11541  0.69987  Biso   1.000  O
  O8       1.0000 0.03844  0.16166  0.78616  Biso   1.000  O
  N2       1.0000 0.99940  0.26419  0.71688  Biso   1.000  N
  C8       1.0000 0.05437  0.15870  0.72543  Biso   1.000  C
  C9       1.0000 0.94503  0.36938  0.72963  Biso   1.000  C
  C10      1.0000 0.02709  0.21440  0.68191  Biso   1.000  C
  C11      1.0000 0.97405  0.31635  0.68435  Biso   1.000  C
  C12      1.0000 0.02990  0.21440  0.61316  Biso   1.000  C
  H4       1.0000 0.04960  0.17930  0.58980  Biso   1.000  H
  C13      1.0000 0.97470  0.32070  0.61572  Biso   1.000  C
  H5       1.0000 0.95710  0.35790  0.59400  Biso   1.000  H
  C14      1.0000 0.00220  0.26860  0.57989  Biso   1.000  C
  H6       1.0000 0.00210  0.26980  0.53340  Biso   1.000  H
  Pr3      1.0000 0.48796  0.24408  0.15362  Biso   1.000  Pr
  O9       1.0000 0.44937  0.14175  0.20805  Biso   1.000  O
  O10      1.0000 0.41914  0.07990  0.29538  Biso   1.000  O
  O11      1.0000 0.59098  0.38459  0.30013  Biso   1.000  O
  O12      1.0000 0.53844  0.33834  0.21384  Biso   1.000  O
  N3       1.0000 0.49940  0.23581  0.28312  Biso   1.000  N
  C15      1.0000 0.55437  0.34130  0.27457  Biso   1.000  C
  C16      1.0000 0.44503  0.13062  0.27037  Biso   1.000  C
  C17      1.0000 0.52709  0.28560  0.31809  Biso   1.000  C
  C18      1.0000 0.47405  0.18365  0.31565  Biso   1.000  C
  C19      1.0000 0.52990  0.28560  0.38684  Biso   1.000  C
  H7       1.0000 0.54960  0.32070  0.41020  Biso   1.000  H
  C20      1.0000 0.47470  0.17930  0.38428  Biso   1.000  C
  H8       1.0000 0.45710  0.14210  0.40600  Biso   1.000  H
  C21      1.0000 0.50220  0.23140  0.42011  Biso   1.000  C
  H9       1.0000 0.50210  0.23020  0.46660  Biso   1.000  H
  Pr4      1.0000 0.01204  0.75592  0.65362  Biso   1.000  Pr
  O13      1.0000 0.05063  0.85825  0.70805  Biso   1.000  O
  O14      1.0000 0.08086  0.92010  0.79538  Biso   1.000  O
  O15      1.0000 0.90902  0.61541  0.80013  Biso   1.000  O
  O16      1.0000 0.96156  0.66166  0.71384  Biso   1.000  O
  N4       1.0000 0.00060  0.76419  0.78312  Biso   1.000  N
  C22      1.0000 0.94563  0.65870  0.77457  Biso   1.000  C
  C23      1.0000 0.05497  0.86938  0.77037  Biso   1.000  C
  C24      1.0000 0.97291  0.71440  0.81809  Biso   1.000  C
  C25      1.0000 0.02595  0.81635  0.81565  Biso   1.000  C
  C26      1.0000 0.97010  0.71440  0.88684  Biso   1.000  C
  H10      1.0000 0.95040  0.67930  0.91020  Biso   1.000  H
  C27      1.0000 0.02530  0.82070  0.88428  Biso   1.000  C
  H11      1.0000 0.04290  0.85790  0.90600  Biso   1.000  H
  C28      1.0000 0.99780  0.76860  0.92011  Biso   1.000  C
  H12      1.0000 0.99790  0.76980  0.96660  Biso   1.000  H
  Pr5      1.0000 0.34638  0.51204  0.74408  Biso   1.000  Pr
  O17      1.0000 0.29195  0.55063  0.64175  Biso   1.000  O
  O18      1.0000 0.20462  0.58086  0.57990  Biso   1.000  O
  O19      1.0000 0.19987  0.40902  0.88459  Biso   1.000  O
  O20      1.0000 0.28616  0.46156  0.83834  Biso   1.000  O
  N5       1.0000 0.21688  0.50060  0.73581  Biso   1.000  N
  C29      1.0000 0.22543  0.44563  0.84130  Biso   1.000  C
  C30      1.0000 0.22963  0.55497  0.63062  Biso   1.000  C
  C31      1.0000 0.18191  0.47291  0.78560  Biso   1.000  C
  C32      1.0000 0.18435  0.52595  0.68365  Biso   1.000  C
  C33      1.0000 0.11316  0.47010  0.78560  Biso   1.000  C
  H13      1.0000 0.08980  0.45040  0.82070  Biso   1.000  H
  C34      1.0000 0.11572  0.52530  0.67930  Biso   1.000  C
  H14      1.0000 0.09400  0.54290  0.64210  Biso   1.000  H
  C35      1.0000 0.07989  0.49780  0.73140  Biso   1.000  C
  H15      1.0000 0.03340  0.49790  0.73020  Biso   1.000  H
  Pr6      1.0000 0.84638  0.98796  0.25592  Biso   1.000  Pr
  O21      1.0000 0.79195  0.94937  0.35825  Biso   1.000  O
  O22      1.0000 0.70462  0.91914  0.42010  Biso   1.000  O
  O23      1.0000 0.69987  0.09098  0.11541  Biso   1.000  O
  O24      1.0000 0.78616  0.03844  0.16166  Biso   1.000  O
  N6       1.0000 0.71688  0.99940  0.26419  Biso   1.000  N
  C36      1.0000 0.72543  0.05437  0.15870  Biso   1.000  C
  C37      1.0000 0.72963  0.94503  0.36938  Biso   1.000  C
  C38      1.0000 0.68191  0.02709  0.21440  Biso   1.000  C
  C39      1.0000 0.68435  0.97405  0.31635  Biso   1.000  C
  C40      1.0000 0.61316  0.02990  0.21440  Biso   1.000  C
  H16      1.0000 0.58980  0.04960  0.17930  Biso   1.000  H
  C41      1.0000 0.61572  0.97470  0.32070  Biso   1.000  C
  H17      1.0000 0.59400  0.95710  0.35790  Biso   1.000  H
  C42      1.0000 0.57989  0.00220  0.26860  Biso   1.000  C
  H18      1.0000 0.53340  0.00210  0.26980  Biso   1.000  H
  Pr7      1.0000 0.15362  0.48796  0.24408  Biso   1.000  Pr
  O25      1.0000 0.20805  0.44937  0.14175  Biso   1.000  O
  O26      1.0000 0.29538  0.41914  0.07990  Biso   1.000  O
  O27      1.0000 0.30013  0.59098  0.38459  Biso   1.000  O
  O28      1.0000 0.21384  0.53844  0.33834  Biso   1.000  O
  N7       1.0000 0.28312  0.49940  0.23581  Biso   1.000  N
  C43      1.0000 0.27457  0.55437  0.34130  Biso   1.000  C
  C44      1.0000 0.27037  0.44503  0.13062  Biso   1.000  C
  C45      1.0000 0.31809  0.52709  0.28560  Biso   1.000  C
  C46      1.0000 0.31565  0.47405  0.18365  Biso   1.000  C
  C47      1.0000 0.38684  0.52990  0.28560  Biso   1.000  C
  H19      1.0000 0.41020  0.54960  0.32070  Biso   1.000  H
  C48      1.0000 0.38428  0.47470  0.17930  Biso   1.000  C
  H20      1.0000 0.40600  0.45710  0.14210  Biso   1.000  H
  C49      1.0000 0.42011  0.50220  0.23140  Biso   1.000  C
  H21      1.0000 0.46660  0.50210  0.23020  Biso   1.000  H
  Pr8      1.0000 0.65362  0.01204  0.75592  Biso   1.000  Pr
  O29      1.0000 0.70805  0.05063  0.85825  Biso   1.000  O
  O30      1.0000 0.79538  0.08086  0.92010  Biso   1.000  O
  O31      1.0000 0.80013  0.90902  0.61541  Biso   1.000  O
  O32      1.0000 0.71384  0.96156  0.66166  Biso   1.000  O
  N8       1.0000 0.78312  0.00060  0.76419  Biso   1.000  N
  C50      1.0000 0.77457  0.94563  0.65870  Biso   1.000  C
  C51      1.0000 0.77037  0.05497  0.86938  Biso   1.000  C
  C52      1.0000 0.81809  0.97291  0.71440  Biso   1.000  C
  C53      1.0000 0.81565  0.02595  0.81635  Biso   1.000  C
  C54      1.0000 0.88684  0.97010  0.71440  Biso   1.000  C
  H22      1.0000 0.91020  0.95040  0.67930  Biso   1.000  H
  C55      1.0000 0.88428  0.02530  0.82070  Biso   1.000  C
  H23      1.0000 0.90600  0.04290  0.85790  Biso   1.000  H
  C56      1.0000 0.92011  0.99780  0.76860  Biso   1.000  C
  H24      1.0000 0.96660  0.99790  0.76980  Biso   1.000  H
  Pr9      1.0000 0.74408  0.34638  0.51204  Biso   1.000  Pr
  O33      1.0000 0.64175  0.29195  0.55063  Biso   1.000  O
  O34      1.0000 0.57990  0.20462  0.58086  Biso   1.000  O
  O35      1.0000 0.88459  0.19987  0.40902  Biso   1.000  O
  O36      1.0000 0.83834  0.28616  0.46156  Biso   1.000  O
  N9       1.0000 0.73581  0.21688  0.50060  Biso   1.000  N
  C57      1.0000 0.84130  0.22543  0.44563  Biso   1.000  C
  C58      1.0000 0.63062  0.22963  0.55497  Biso   1.000  C
  C59      1.0000 0.78560  0.18191  0.47291  Biso   1.000  C
  C60      1.0000 0.68365  0.18435  0.52595  Biso   1.000  C
  C61      1.0000 0.78560  0.11316  0.47010  Biso   1.000  C
  H25      1.0000 0.82070  0.08980  0.45040  Biso   1.000  H
  C62      1.0000 0.67930  0.11572  0.52530  Biso   1.000  C
  H26      1.0000 0.64210  0.09400  0.54290  Biso   1.000  H
  C63      1.0000 0.73140  0.07989  0.49780  Biso   1.000  C
  H27      1.0000 0.73020  0.03340  0.49790  Biso   1.000  H
  Pr10     1.0000 0.25592  0.84638  0.98796  Biso   1.000  Pr
  O37      1.0000 0.35825  0.79195  0.94937  Biso   1.000  O
  O38      1.0000 0.42010  0.70462  0.91914  Biso   1.000  O
  O39      1.0000 0.11541  0.69987  0.09098  Biso   1.000  O
  O40      1.0000 0.16166  0.78616  0.03844  Biso   1.000  O
  N10      1.0000 0.26419  0.71688  0.99940  Biso   1.000  N
  C64      1.0000 0.15870  0.72543  0.05437  Biso   1.000  C
  C65      1.0000 0.36938  0.72963  0.94503  Biso   1.000  C
  C66      1.0000 0.21440  0.68191  0.02709  Biso   1.000  C
  C67      1.0000 0.31635  0.68435  0.97405  Biso   1.000  C
  C68      1.0000 0.21440  0.61316  0.02990  Biso   1.000  C
  H28      1.0000 0.17930  0.58980  0.04960  Biso   1.000  H
  C69      1.0000 0.32070  0.61572  0.97470  Biso   1.000  C
  H29      1.0000 0.35790  0.59400  0.95710  Biso   1.000  H
  C70      1.0000 0.26860  0.57989  0.00220  Biso   1.000  C
  H30      1.0000 0.26980  0.53340  0.00210  Biso   1.000  H
  Pr11     1.0000 0.24408  0.15362  0.48796  Biso   1.000  Pr
  O41      1.0000 0.14175  0.20805  0.44937  Biso   1.000  O
  O42      1.0000 0.07990  0.29538  0.41914  Biso   1.000  O
  O43      1.0000 0.38459  0.30013  0.59098  Biso   1.000  O
  O44      1.0000 0.33834  0.21384  0.53844  Biso   1.000  O
  N11      1.0000 0.23581  0.28312  0.49940  Biso   1.000  N
  C71      1.0000 0.34130  0.27457  0.55437  Biso   1.000  C
  C72      1.0000 0.13062  0.27037  0.44503  Biso   1.000  C
  C73      1.0000 0.28560  0.31809  0.52709  Biso   1.000  C
  C74      1.0000 0.18365  0.31565  0.47405  Biso   1.000  C
  C75      1.0000 0.28560  0.38684  0.52990  Biso   1.000  C
  H31      1.0000 0.32070  0.41020  0.54960  Biso   1.000  H
  C76      1.0000 0.17930  0.38428  0.47470  Biso   1.000  C
  H32      1.0000 0.14210  0.40600  0.45710  Biso   1.000  H
  C77      1.0000 0.23140  0.42011  0.50220  Biso   1.000  C
  H33      1.0000 0.23020  0.46660  0.50210  Biso   1.000  H
  Pr12     1.0000 0.75592  0.65362  0.01204  Biso   1.000  Pr
  O45      1.0000 0.85825  0.70805  0.05063  Biso   1.000  O
  O46      1.0000 0.92010  0.79538  0.08086  Biso   1.000  O
  O47      1.0000 0.61541  0.80013  0.90902  Biso   1.000  O
  O48      1.0000 0.66166  0.71384  0.96156  Biso   1.000  O
  N12      1.0000 0.76419  0.78312  0.00060  Biso   1.000  N
  C78      1.0000 0.65870  0.77457  0.94563  Biso   1.000  C
  C79      1.0000 0.86938  0.77037  0.05497  Biso   1.000  C
  C80      1.0000 0.71440  0.81809  0.97291  Biso   1.000  C
  C81      1.0000 0.81635  0.81565  0.02595  Biso   1.000  C
  C82      1.0000 0.71440  0.88684  0.97010  Biso   1.000  C
  H34      1.0000 0.67930  0.91020  0.95040  Biso   1.000  H
  C83      1.0000 0.82070  0.88428  0.02530  Biso   1.000  C
  H35      1.0000 0.85790  0.90600  0.04290  Biso   1.000  H
  C84      1.0000 0.76860  0.92011  0.99780  Biso   1.000  C
  H36      1.0000 0.76980  0.96660  0.99790  Biso   1.000  H
  Pr13     1.0000 0.48796  0.25592  0.65362  Biso   1.000  Pr
  O49      1.0000 0.44937  0.35825  0.70805  Biso   1.000  O
  O50      1.0000 0.41914  0.42010  0.79538  Biso   1.000  O
  O51      1.0000 0.59098  0.11541  0.80013  Biso   1.000  O
  O52      1.0000 0.53844  0.16166  0.71384  Biso   1.000  O
  N13      1.0000 0.49940  0.26419  0.78312  Biso   1.000  N
  C85      1.0000 0.55437  0.15870  0.77457  Biso   1.000  C
  C86      1.0000 0.44503  0.36938  0.77037  Biso   1.000  C
  C87      1.0000 0.52709  0.21440  0.81809  Biso   1.000  C
  C88      1.0000 0.47405  0.31635  0.81565  Biso   1.000  C
  C89      1.0000 0.52990  0.21440  0.88684  Biso   1.000  C
  H37      1.0000 0.54960  0.17930  0.91020  Biso   1.000  H
  C90      1.0000 0.47470  0.32070  0.88428  Biso   1.000  C
  H38      1.0000 0.45710  0.35790  0.90600  Biso   1.000  H
  C91      1.0000 0.50220  0.26860  0.92011  Biso   1.000  C
  H39      1.0000 0.50210  0.26980  0.96660  Biso   1.000  H
  Pr14     1.0000 0.01204  0.74408  0.15362  Biso   1.000  Pr
  O53      1.0000 0.05063  0.64175  0.20805  Biso   1.000  O
  O54      1.0000 0.08086  0.57990  0.29538  Biso   1.000  O
  O55      1.0000 0.90902  0.88459  0.30013  Biso   1.000  O
  O56      1.0000 0.96156  0.83834  0.21384  Biso   1.000  O
  N14      1.0000 0.00060  0.73581  0.28312  Biso   1.000  N
  C92      1.0000 0.94563  0.84130  0.27457  Biso   1.000  C
  C93      1.0000 0.05497  0.63062  0.27037  Biso   1.000  C
  C94      1.0000 0.97291  0.78560  0.31809  Biso   1.000  C
  C95      1.0000 0.02595  0.68365  0.31565  Biso   1.000  C
  C96      1.0000 0.97010  0.78560  0.38684  Biso   1.000  C
  H40      1.0000 0.95040  0.82070  0.41020  Biso   1.000  H
  C97      1.0000 0.02530  0.67930  0.38428  Biso   1.000  C
  H41      1.0000 0.04290  0.64210  0.40600  Biso   1.000  H
  C98      1.0000 0.99780  0.73140  0.42011  Biso   1.000  C
  H42      1.0000 0.99790  0.73020  0.46660  Biso   1.000  H
  Pr15     1.0000 0.51204  0.75592  0.84638  Biso   1.000  Pr
  O57      1.0000 0.55063  0.85825  0.79195  Biso   1.000  O
  O58      1.0000 0.58086  0.92010  0.70462  Biso   1.000  O
  O59      1.0000 0.40902  0.61541  0.69987  Biso   1.000  O
  O60      1.0000 0.46156  0.66166  0.78616  Biso   1.000  O
  N15      1.0000 0.50060  0.76419  0.71688  Biso   1.000  N
  C99      1.0000 0.44563  0.65870  0.72543  Biso   1.000  C
  C100     1.0000 0.55497  0.86938  0.72963  Biso   1.000  C
  C101     1.0000 0.47291  0.71440  0.68191  Biso   1.000  C
  C102     1.0000 0.52595  0.81635  0.68435  Biso   1.000  C
  C103     1.0000 0.47010  0.71440  0.61316  Biso   1.000  C
  H43      1.0000 0.45040  0.67930  0.58980  Biso   1.000  H
  C104     1.0000 0.52530  0.82070  0.61572  Biso   1.000  C
  H44      1.0000 0.54290  0.85790  0.59400  Biso   1.000  H
  C105     1.0000 0.49780  0.76860  0.57989  Biso   1.000  C
  H45      1.0000 0.49790  0.76980  0.53340  Biso   1.000  H
  Pr16     1.0000 0.98796  0.24408  0.34638  Biso   1.000  Pr
  O61      1.0000 0.94937  0.14175  0.29195  Biso   1.000  O
  O62      1.0000 0.91914  0.07990  0.20462  Biso   1.000  O
  O63      1.0000 0.09098  0.38459  0.19987  Biso   1.000  O
  O64      1.0000 0.03844  0.33834  0.28616  Biso   1.000  O
  N16      1.0000 0.99940  0.23581  0.21688  Biso   1.000  N
  C106     1.0000 0.05437  0.34130  0.22543  Biso   1.000  C
  C107     1.0000 0.94503  0.13062  0.22963  Biso   1.000  C
  C108     1.0000 0.02709  0.28560  0.18191  Biso   1.000  C
  C109     1.0000 0.97405  0.18365  0.18435  Biso   1.000  C
  C110     1.0000 0.02990  0.28560  0.11316  Biso   1.000  C
  H46      1.0000 0.04960  0.32070  0.08980  Biso   1.000  H
  C111     1.0000 0.97470  0.17930  0.11572  Biso   1.000  C
  H47      1.0000 0.95710  0.14210  0.09400  Biso   1.000  H
  C112     1.0000 0.00220  0.23140  0.07989  Biso   1.000  C
  H48      1.0000 0.00210  0.23020  0.03340  Biso   1.000  H
  Pr17     1.0000 0.65362  0.48796  0.25592  Biso   1.000  Pr
  O65      1.0000 0.70805  0.44937  0.35825  Biso   1.000  O
  O66      1.0000 0.79538  0.41914  0.42010  Biso   1.000  O
  O67      1.0000 0.80013  0.59098  0.11541  Biso   1.000  O
  O68      1.0000 0.71384  0.53844  0.16166  Biso   1.000  O
  N17      1.0000 0.78312  0.49940  0.26419  Biso   1.000  N
  C113     1.0000 0.77457  0.55437  0.15870  Biso   1.000  C
  C114     1.0000 0.77037  0.44503  0.36938  Biso   1.000  C
  C115     1.0000 0.81809  0.52709  0.21440  Biso   1.000  C
  C116     1.0000 0.81565  0.47405  0.31635  Biso   1.000  C
  C117     1.0000 0.88684  0.52990  0.21440  Biso   1.000  C
  H49      1.0000 0.91020  0.54960  0.17930  Biso   1.000  H
  C118     1.0000 0.88428  0.47470  0.32070  Biso   1.000  C
  H50      1.0000 0.90600  0.45710  0.35790  Biso   1.000  H
  C119     1.0000 0.92011  0.50220  0.26860  Biso   1.000  C
  H51      1.0000 0.96660  0.50210  0.26980  Biso   1.000  H
  Pr18     1.0000 0.15362  0.01204  0.74408  Biso   1.000  Pr
  O69      1.0000 0.20805  0.05063  0.64175  Biso   1.000  O
  O70      1.0000 0.29538  0.08086  0.57990  Biso   1.000  O
  O71      1.0000 0.30013  0.90902  0.88459  Biso   1.000  O
  O72      1.0000 0.21384  0.96156  0.83834  Biso   1.000  O
  N18      1.0000 0.28312  0.00060  0.73581  Biso   1.000  N
  C120     1.0000 0.27457  0.94563  0.84130  Biso   1.000  C
  C121     1.0000 0.27037  0.05497  0.63062  Biso   1.000  C
  C122     1.0000 0.31809  0.97291  0.78560  Biso   1.000  C
  C123     1.0000 0.31565  0.02595  0.68365  Biso   1.000  C
  C124     1.0000 0.38684  0.97010  0.78560  Biso   1.000  C
  H52      1.0000 0.41020  0.95040  0.82070  Biso   1.000  H
  C125     1.0000 0.38428  0.02530  0.67930  Biso   1.000  C
  H53      1.0000 0.40600  0.04290  0.64210  Biso   1.000  H
  C126     1.0000 0.42011  0.99780  0.73140  Biso   1.000  C
  H54      1.0000 0.46660  0.99790  0.73020  Biso   1.000  H
  Pr19     1.0000 0.84638  0.51204  0.75592  Biso   1.000  Pr
  O73      1.0000 0.79195  0.55063  0.85825  Biso   1.000  O
  O74      1.0000 0.70462  0.58086  0.92010  Biso   1.000  O
  O75      1.0000 0.69987  0.40902  0.61541  Biso   1.000  O
  O76      1.0000 0.78616  0.46156  0.66166  Biso   1.000  O
  N19      1.0000 0.71688  0.50060  0.76419  Biso   1.000  N
  C127     1.0000 0.72543  0.44563  0.65870  Biso   1.000  C
  C128     1.0000 0.72963  0.55497  0.86938  Biso   1.000  C
  C129     1.0000 0.68191  0.47291  0.71440  Biso   1.000  C
  C130     1.0000 0.68435  0.52595  0.81635  Biso   1.000  C
  C131     1.0000 0.61316  0.47010  0.71440  Biso   1.000  C
  H55      1.0000 0.58980  0.45040  0.67930  Biso   1.000  H
  C132     1.0000 0.61572  0.52530  0.82070  Biso   1.000  C
  H56      1.0000 0.59400  0.54290  0.85790  Biso   1.000  H
  C133     1.0000 0.57989  0.49780  0.76860  Biso   1.000  C
  H57      1.0000 0.53340  0.49790  0.76980  Biso   1.000  H
  Pr20     1.0000 0.34638  0.98796  0.24408  Biso   1.000  Pr
  O77      1.0000 0.29195  0.94937  0.14175  Biso   1.000  O
  O78      1.0000 0.20462  0.91914  0.07990  Biso   1.000  O
  O79      1.0000 0.19987  0.09098  0.38459  Biso   1.000  O
  O80      1.0000 0.28616  0.03844  0.33834  Biso   1.000  O
  N20      1.0000 0.21688  0.99940  0.23581  Biso   1.000  N
  C134     1.0000 0.22543  0.05437  0.34130  Biso   1.000  C
  C135     1.0000 0.22963  0.94503  0.13062  Biso   1.000  C
  C136     1.0000 0.18191  0.02709  0.28560  Biso   1.000  C
  C137     1.0000 0.18435  0.97405  0.18365  Biso   1.000  C
  C138     1.0000 0.11316  0.02990  0.28560  Biso   1.000  C
  H58      1.0000 0.08980  0.04960  0.32070  Biso   1.000  H
  C139     1.0000 0.11572  0.97470  0.17930  Biso   1.000  C
  H59      1.0000 0.09400  0.95710  0.14210  Biso   1.000  H
  C140     1.0000 0.07989  0.00220  0.23140  Biso   1.000  C
  H60      1.0000 0.03340  0.00210  0.23020  Biso   1.000  H
  Pr21     1.0000 0.25592  0.65362  0.48796  Biso   1.000  Pr
  O81      1.0000 0.35825  0.70805  0.44937  Biso   1.000  O
  O82      1.0000 0.42010  0.79538  0.41914  Biso   1.000  O
  O83      1.0000 0.11541  0.80013  0.59098  Biso   1.000  O
  O84      1.0000 0.16166  0.71384  0.53844  Biso   1.000  O
  N21      1.0000 0.26419  0.78312  0.49940  Biso   1.000  N
  C141     1.0000 0.15870  0.77457  0.55437  Biso   1.000  C
  C142     1.0000 0.36938  0.77037  0.44503  Biso   1.000  C
  C143     1.0000 0.21440  0.81809  0.52709  Biso   1.000  C
  C144     1.0000 0.31635  0.81565  0.47405  Biso   1.000  C
  C145     1.0000 0.21440  0.88684  0.52990  Biso   1.000  C
  H61      1.0000 0.17930  0.91020  0.54960  Biso   1.000  H
  C146     1.0000 0.32070  0.88428  0.47470  Biso   1.000  C
  H62      1.0000 0.35790  0.90600  0.45710  Biso   1.000  H
  C147     1.0000 0.26860  0.92011  0.50220  Biso   1.000  C
  H63      1.0000 0.26980  0.96660  0.50210  Biso   1.000  H
  Pr22     1.0000 0.74408  0.15362  0.01204  Biso   1.000  Pr
  O85      1.0000 0.64175  0.20805  0.05063  Biso   1.000  O
  O86      1.0000 0.57990  0.29538  0.08086  Biso   1.000  O
  O87      1.0000 0.88459  0.30013  0.90902  Biso   1.000  O
  O88      1.0000 0.83834  0.21384  0.96156  Biso   1.000  O
  N22      1.0000 0.73581  0.28312  0.00060  Biso   1.000  N
  C148     1.0000 0.84130  0.27457  0.94563  Biso   1.000  C
  C149     1.0000 0.63062  0.27037  0.05497  Biso   1.000  C
  C150     1.0000 0.78560  0.31809  0.97291  Biso   1.000  C
  C151     1.0000 0.68365  0.31565  0.02595  Biso   1.000  C
  C152     1.0000 0.78560  0.38684  0.97010  Biso   1.000  C
  H64      1.0000 0.82070  0.41020  0.95040  Biso   1.000  H
  C153     1.0000 0.67930  0.38428  0.02530  Biso   1.000  C
  H65      1.0000 0.64210  0.40600  0.04290  Biso   1.000  H
  C154     1.0000 0.73140  0.42011  0.99780  Biso   1.000  C
  H66      1.0000 0.73020  0.46660  0.99790  Biso   1.000  H
  Pr23     1.0000 0.75592  0.84638  0.51204  Biso   1.000  Pr
  O89      1.0000 0.85825  0.79195  0.55063  Biso   1.000  O
  O90      1.0000 0.92010  0.70462  0.58086  Biso   1.000  O
  O91      1.0000 0.61541  0.69987  0.40902  Biso   1.000  O
  O92      1.0000 0.66166  0.78616  0.46156  Biso   1.000  O
  N23      1.0000 0.76419  0.71688  0.50060  Biso   1.000  N
  C155     1.0000 0.65870  0.72543  0.44563  Biso   1.000  C
  C156     1.0000 0.86938  0.72963  0.55497  Biso   1.000  C
  C157     1.0000 0.71440  0.68191  0.47291  Biso   1.000  C
  C158     1.0000 0.81635  0.68435  0.52595  Biso   1.000  C
  C159     1.0000 0.71440  0.61316  0.47010  Biso   1.000  C
  H67      1.0000 0.67930  0.58980  0.45040  Biso   1.000  H
  C160     1.0000 0.82070  0.61572  0.52530  Biso   1.000  C
  H68      1.0000 0.85790  0.59400  0.54290  Biso   1.000  H
  C161     1.0000 0.76860  0.57989  0.49780  Biso   1.000  C
  H69      1.0000 0.76980  0.53340  0.49790  Biso   1.000  H
  Pr24     1.0000 0.24408  0.34638  0.98796  Biso   1.000  Pr
  O93      1.0000 0.14175  0.29195  0.94937  Biso   1.000  O
  O94      1.0000 0.07990  0.20462  0.91914  Biso   1.000  O
  O95      1.0000 0.38459  0.19987  0.09098  Biso   1.000  O
  O96      1.0000 0.33834  0.28616  0.03844  Biso   1.000  O
  N24      1.0000 0.23581  0.21688  0.99940  Biso   1.000  N
  C162     1.0000 0.34130  0.22543  0.05437  Biso   1.000  C
  C163     1.0000 0.13062  0.22963  0.94503  Biso   1.000  C
  C164     1.0000 0.28560  0.18191  0.02709  Biso   1.000  C
  C165     1.0000 0.18365  0.18435  0.97405  Biso   1.000  C
  C166     1.0000 0.28560  0.11316  0.02990  Biso   1.000  C
  H70      1.0000 0.32070  0.08980  0.04960  Biso   1.000  H
  C167     1.0000 0.17930  0.11572  0.97470  Biso   1.000  C
  H71      1.0000 0.14210  0.09400  0.95710  Biso   1.000  H
  C168     1.0000 0.23140  0.07989  0.00220  Biso   1.000  C
  H72      1.0000 0.23020  0.03340  0.00210  Biso   1.000  H
