data_image0
_cell_length_a       19.9091
_cell_length_b       19.9091
_cell_length_c       19.9091
_cell_angle_alpha    90
_cell_angle_beta     90
_cell_angle_gamma    90

_symmetry_space_group_name_H-M    "P 1"
_symmetry_int_tables_number       1

loop_
  _symmetry_equiv_pos_as_xyz
  'x, y, z'

loop_
  _atom_site_label
  _atom_site_occupancy
  _atom_site_fract_x
  _atom_site_fract_y
  _atom_site_fract_z
  _atom_site_thermal_displace_type
  _atom_site_B_iso_or_equiv
  _atom_site_type_symbol
  Nd1      1.0000 0.49227  0.25293  0.65244  Biso   1.000  Nd
  O1       1.0000 0.45090  0.35402  0.70727  Biso   1.000  O
  O2       1.0000 0.54033  0.15721  0.71111  Biso   1.000  O
  N1       1.0000 0.49961  0.25834  0.78130  Biso   1.000  N
  O3       1.0000 0.58530  0.20469  0.58109  Biso   1.000  O
  O4       1.0000 0.39190  0.29811  0.58914  Biso   1.000  O
  C1       1.0000 0.44555  0.36457  0.76974  Biso   1.000  C
  C2       1.0000 0.55431  0.15278  0.77253  Biso   1.000  C
  C3       1.0000 0.52666  0.20810  0.81633  Biso   1.000  C
  C4       1.0000 0.47410  0.31090  0.81499  Biso   1.000  C
  C5       1.0000 0.52940  0.20800  0.88567  Biso   1.000  C
  C6       1.0000 0.47350  0.31370  0.88400  Biso   1.000  C
  H1       1.0000 0.54950  0.17270  0.90880  Biso   1.000  H
  C7       1.0000 0.50160  0.26170  0.91960  Biso   1.000  C
  H2       1.0000 0.45450  0.35010  0.90610  Biso   1.000  H
  H3       1.0000 0.50180  0.26260  0.96630  Biso   1.000  H
  Nd2      1.0000 0.00773  0.74707  0.15244  Biso   1.000  Nd
  O5       1.0000 0.04910  0.64598  0.20727  Biso   1.000  O
  O6       1.0000 0.95967  0.84279  0.21111  Biso   1.000  O
  N2       1.0000 0.00039  0.74166  0.28130  Biso   1.000  N
  O7       1.0000 0.91470  0.79531  0.08109  Biso   1.000  O
  O8       1.0000 0.10810  0.70189  0.08914  Biso   1.000  O
  C8       1.0000 0.05445  0.63543  0.26974  Biso   1.000  C
  C9       1.0000 0.94569  0.84722  0.27253  Biso   1.000  C
  C10      1.0000 0.97334  0.79190  0.31633  Biso   1.000  C
  C11      1.0000 0.02590  0.68910  0.31499  Biso   1.000  C
  C12      1.0000 0.97060  0.79200  0.38567  Biso   1.000  C
  C13      1.0000 0.02650  0.68630  0.38400  Biso   1.000  C
  H4       1.0000 0.95050  0.82730  0.40880  Biso   1.000  H
  C14      1.0000 0.99840  0.73830  0.41960  Biso   1.000  C
  H5       1.0000 0.04550  0.64990  0.40610  Biso   1.000  H
  H6       1.0000 0.99820  0.73740  0.46630  Biso   1.000  H
  Nd3      1.0000 0.50773  0.75293  0.84756  Biso   1.000  Nd
  O9       1.0000 0.54910  0.85402  0.79273  Biso   1.000  O
  O10      1.0000 0.45967  0.65721  0.78889  Biso   1.000  O
  N3       1.0000 0.50039  0.75834  0.71870  Biso   1.000  N
  O11      1.0000 0.41470  0.70469  0.91891  Biso   1.000  O
  O12      1.0000 0.60810  0.79811  0.91086  Biso   1.000  O
  C15      1.0000 0.55445  0.86457  0.73026  Biso   1.000  C
  C16      1.0000 0.44569  0.65278  0.72747  Biso   1.000  C
  C17      1.0000 0.47334  0.70810  0.68367  Biso   1.000  C
  C18      1.0000 0.52590  0.81090  0.68501  Biso   1.000  C
  C19      1.0000 0.47060  0.70800  0.61433  Biso   1.000  C
  C20      1.0000 0.52650  0.81370  0.61600  Biso   1.000  C
  H7       1.0000 0.45050  0.67270  0.59120  Biso   1.000  H
  C21      1.0000 0.49840  0.76170  0.58040  Biso   1.000  C
  H8       1.0000 0.54550  0.85010  0.59390  Biso   1.000  H
  H9       1.0000 0.49820  0.76260  0.53370  Biso   1.000  H
  Nd4      1.0000 0.99227  0.24707  0.34756  Biso   1.000  Nd
  O13      1.0000 0.95090  0.14598  0.29273  Biso   1.000  O
  O14      1.0000 0.04033  0.34279  0.28889  Biso   1.000  O
  N4       1.0000 0.99961  0.24166  0.21870  Biso   1.000  N
  O15      1.0000 0.08530  0.29531  0.41891  Biso   1.000  O
  O16      1.0000 0.89190  0.20189  0.41086  Biso   1.000  O
  C22      1.0000 0.94555  0.13543  0.23026  Biso   1.000  C
  C23      1.0000 0.05431  0.34722  0.22747  Biso   1.000  C
  C24      1.0000 0.02666  0.29190  0.18367  Biso   1.000  C
  C25      1.0000 0.97410  0.18910  0.18501  Biso   1.000  C
  C26      1.0000 0.02940  0.29200  0.11433  Biso   1.000  C
  C27      1.0000 0.97350  0.18630  0.11600  Biso   1.000  C
  H10      1.0000 0.04950  0.32730  0.09120  Biso   1.000  H
  C28      1.0000 0.00160  0.23830  0.08040  Biso   1.000  C
  H11      1.0000 0.95450  0.14990  0.09390  Biso   1.000  H
  H12      1.0000 0.00180  0.23740  0.03370  Biso   1.000  H
  Nd5      1.0000 0.65244  0.49227  0.25293  Biso   1.000  Nd
  O17      1.0000 0.70727  0.45090  0.35402  Biso   1.000  O
  O18      1.0000 0.71111  0.54033  0.15721  Biso   1.000  O
  N5       1.0000 0.78130  0.49961  0.25834  Biso   1.000  N
  O19      1.0000 0.58109  0.58530  0.20469  Biso   1.000  O
  O20      1.0000 0.58914  0.39190  0.29811  Biso   1.000  O
  C29      1.0000 0.76974  0.44555  0.36457  Biso   1.000  C
  C30      1.0000 0.77253  0.55431  0.15278  Biso   1.000  C
  C31      1.0000 0.81633  0.52666  0.20810  Biso   1.000  C
  C32      1.0000 0.81499  0.47410  0.31090  Biso   1.000  C
  C33      1.0000 0.88567  0.52940  0.20800  Biso   1.000  C
  C34      1.0000 0.88400  0.47350  0.31370  Biso   1.000  C
  H13      1.0000 0.90880  0.54950  0.17270  Biso   1.000  H
  C35      1.0000 0.91960  0.50160  0.26170  Biso   1.000  C
  H14      1.0000 0.90610  0.45450  0.35010  Biso   1.000  H
  H15      1.0000 0.96630  0.50180  0.26260  Biso   1.000  H
  Nd6      1.0000 0.15244  0.00773  0.74707  Biso   1.000  Nd
  O21      1.0000 0.20727  0.04910  0.64598  Biso   1.000  O
  O22      1.0000 0.21111  0.95967  0.84279  Biso   1.000  O
  N6       1.0000 0.28130  0.00039  0.74166  Biso   1.000  N
  O23      1.0000 0.08109  0.91470  0.79531  Biso   1.000  O
  O24      1.0000 0.08914  0.10810  0.70189  Biso   1.000  O
  C36      1.0000 0.26974  0.05445  0.63543  Biso   1.000  C
  C37      1.0000 0.27253  0.94569  0.84722  Biso   1.000  C
  C38      1.0000 0.31633  0.97334  0.79190  Biso   1.000  C
  C39      1.0000 0.31499  0.02590  0.68910  Biso   1.000  C
  C40      1.0000 0.38567  0.97060  0.79200  Biso   1.000  C
  C41      1.0000 0.38400  0.02650  0.68630  Biso   1.000  C
  H16      1.0000 0.40880  0.95050  0.82730  Biso   1.000  H
  C42      1.0000 0.41960  0.99840  0.73830  Biso   1.000  C
  H17      1.0000 0.40610  0.04550  0.64990  Biso   1.000  H
  H18      1.0000 0.46630  0.99820  0.73740  Biso   1.000  H
  Nd7      1.0000 0.84756  0.50773  0.75293  Biso   1.000  Nd
  O25      1.0000 0.79273  0.54910  0.85402  Biso   1.000  O
  O26      1.0000 0.78889  0.45967  0.65721  Biso   1.000  O
  N7       1.0000 0.71870  0.50039  0.75834  Biso   1.000  N
  O27      1.0000 0.91891  0.41470  0.70469  Biso   1.000  O
  O28      1.0000 0.91086  0.60810  0.79811  Biso   1.000  O
  C43      1.0000 0.73026  0.55445  0.86457  Biso   1.000  C
  C44      1.0000 0.72747  0.44569  0.65278  Biso   1.000  C
  C45      1.0000 0.68367  0.47334  0.70810  Biso   1.000  C
  C46      1.0000 0.68501  0.52590  0.81090  Biso   1.000  C
  C47      1.0000 0.61433  0.47060  0.70800  Biso   1.000  C
  C48      1.0000 0.61600  0.52650  0.81370  Biso   1.000  C
  H19      1.0000 0.59120  0.45050  0.67270  Biso   1.000  H
  C49      1.0000 0.58040  0.49840  0.76170  Biso   1.000  C
  H20      1.0000 0.59390  0.54550  0.85010  Biso   1.000  H
  H21      1.0000 0.53370  0.49820  0.76260  Biso   1.000  H
  Nd8      1.0000 0.34756  0.99227  0.24707  Biso   1.000  Nd
  O29      1.0000 0.29273  0.95090  0.14598  Biso   1.000  O
  O30      1.0000 0.28889  0.04033  0.34279  Biso   1.000  O
  N8       1.0000 0.21870  0.99961  0.24166  Biso   1.000  N
  O31      1.0000 0.41891  0.08530  0.29531  Biso   1.000  O
  O32      1.0000 0.41086  0.89190  0.20189  Biso   1.000  O
  C50      1.0000 0.23026  0.94555  0.13543  Biso   1.000  C
  C51      1.0000 0.22747  0.05431  0.34722  Biso   1.000  C
  C52      1.0000 0.18367  0.02666  0.29190  Biso   1.000  C
  C53      1.0000 0.18501  0.97410  0.18910  Biso   1.000  C
  C54      1.0000 0.11433  0.02940  0.29200  Biso   1.000  C
  C55      1.0000 0.11600  0.97350  0.18630  Biso   1.000  C
  H22      1.0000 0.09120  0.04950  0.32730  Biso   1.000  H
  C56      1.0000 0.08040  0.00160  0.23830  Biso   1.000  C
  H23      1.0000 0.09390  0.95450  0.14990  Biso   1.000  H
  H24      1.0000 0.03370  0.00180  0.23740  Biso   1.000  H
  Nd9      1.0000 0.25293  0.65244  0.49227  Biso   1.000  Nd
  O33      1.0000 0.35402  0.70727  0.45090  Biso   1.000  O
  O34      1.0000 0.15721  0.71111  0.54033  Biso   1.000  O
  N9       1.0000 0.25834  0.78130  0.49961  Biso   1.000  N
  O35      1.0000 0.20469  0.58109  0.58530  Biso   1.000  O
  O36      1.0000 0.29811  0.58914  0.39190  Biso   1.000  O
  C57      1.0000 0.36457  0.76974  0.44555  Biso   1.000  C
  C58      1.0000 0.15278  0.77253  0.55431  Biso   1.000  C
  C59      1.0000 0.20810  0.81633  0.52666  Biso   1.000  C
  C60      1.0000 0.31090  0.81499  0.47410  Biso   1.000  C
  C61      1.0000 0.20800  0.88567  0.52940  Biso   1.000  C
  C62      1.0000 0.31370  0.88400  0.47350  Biso   1.000  C
  H25      1.0000 0.17270  0.90880  0.54950  Biso   1.000  H
  C63      1.0000 0.26170  0.91960  0.50160  Biso   1.000  C
  H26      1.0000 0.35010  0.90610  0.45450  Biso   1.000  H
  H27      1.0000 0.26260  0.96630  0.50180  Biso   1.000  H
  Nd10     1.0000 0.74707  0.15244  0.00773  Biso   1.000  Nd
  O37      1.0000 0.64598  0.20727  0.04910  Biso   1.000  O
  O38      1.0000 0.84279  0.21111  0.95967  Biso   1.000  O
  N10      1.0000 0.74166  0.28130  0.00039  Biso   1.000  N
  O39      1.0000 0.79531  0.08109  0.91470  Biso   1.000  O
  O40      1.0000 0.70189  0.08914  0.10810  Biso   1.000  O
  C64      1.0000 0.63543  0.26974  0.05445  Biso   1.000  C
  C65      1.0000 0.84722  0.27253  0.94569  Biso   1.000  C
  C66      1.0000 0.79190  0.31633  0.97334  Biso   1.000  C
  C67      1.0000 0.68910  0.31499  0.02590  Biso   1.000  C
  C68      1.0000 0.79200  0.38567  0.97060  Biso   1.000  C
  C69      1.0000 0.68630  0.38400  0.02650  Biso   1.000  C
  H28      1.0000 0.82730  0.40880  0.95050  Biso   1.000  H
  C70      1.0000 0.73830  0.41960  0.99840  Biso   1.000  C
  H29      1.0000 0.64990  0.40610  0.04550  Biso   1.000  H
  H30      1.0000 0.73740  0.46630  0.99820  Biso   1.000  H
  Nd11     1.0000 0.75293  0.84756  0.50773  Biso   1.000  Nd
  O41      1.0000 0.85402  0.79273  0.54910  Biso   1.000  O
  O42      1.0000 0.65721  0.78889  0.45967  Biso   1.000  O
  N11      1.0000 0.75834  0.71870  0.50039  Biso   1.000  N
  O43      1.0000 0.70469  0.91891  0.41470  Biso   1.000  O
  O44      1.0000 0.79811  0.91086  0.60810  Biso   1.000  O
  C71      1.0000 0.86457  0.73026  0.55445  Biso   1.000  C
  C72      1.0000 0.65278  0.72747  0.44569  Biso   1.000  C
  C73      1.0000 0.70810  0.68367  0.47334  Biso   1.000  C
  C74      1.0000 0.81090  0.68501  0.52590  Biso   1.000  C
  C75      1.0000 0.70800  0.61433  0.47060  Biso   1.000  C
  C76      1.0000 0.81370  0.61600  0.52650  Biso   1.000  C
  H31      1.0000 0.67270  0.59120  0.45050  Biso   1.000  H
  C77      1.0000 0.76170  0.58040  0.49840  Biso   1.000  C
  H32      1.0000 0.85010  0.59390  0.54550  Biso   1.000  H
  H33      1.0000 0.76260  0.53370  0.49820  Biso   1.000  H
  Nd12     1.0000 0.24707  0.34756  0.99227  Biso   1.000  Nd
  O45      1.0000 0.14598  0.29273  0.95090  Biso   1.000  O
  O46      1.0000 0.34279  0.28889  0.04033  Biso   1.000  O
  N12      1.0000 0.24166  0.21870  0.99961  Biso   1.000  N
  O47      1.0000 0.29531  0.41891  0.08530  Biso   1.000  O
  O48      1.0000 0.20189  0.41086  0.89190  Biso   1.000  O
  C78      1.0000 0.13543  0.23026  0.94555  Biso   1.000  C
  C79      1.0000 0.34722  0.22747  0.05431  Biso   1.000  C
  C80      1.0000 0.29190  0.18367  0.02666  Biso   1.000  C
  C81      1.0000 0.18910  0.18501  0.97410  Biso   1.000  C
  C82      1.0000 0.29200  0.11433  0.02940  Biso   1.000  C
  C83      1.0000 0.18630  0.11600  0.97350  Biso   1.000  C
  H34      1.0000 0.32730  0.09120  0.04950  Biso   1.000  H
  C84      1.0000 0.23830  0.08040  0.00160  Biso   1.000  C
  H35      1.0000 0.14990  0.09390  0.95450  Biso   1.000  H
  H36      1.0000 0.23740  0.03370  0.00180  Biso   1.000  H
  Nd13     1.0000 0.50773  0.74707  0.34756  Biso   1.000  Nd
  O49      1.0000 0.54910  0.64598  0.29273  Biso   1.000  O
  O50      1.0000 0.45967  0.84279  0.28889  Biso   1.000  O
  N13      1.0000 0.50039  0.74166  0.21870  Biso   1.000  N
  O51      1.0000 0.41470  0.79531  0.41891  Biso   1.000  O
  O52      1.0000 0.60810  0.70189  0.41086  Biso   1.000  O
  C85      1.0000 0.55445  0.63543  0.23026  Biso   1.000  C
  C86      1.0000 0.44569  0.84722  0.22747  Biso   1.000  C
  C87      1.0000 0.47334  0.79190  0.18367  Biso   1.000  C
  C88      1.0000 0.52590  0.68910  0.18501  Biso   1.000  C
  C89      1.0000 0.47060  0.79200  0.11433  Biso   1.000  C
  C90      1.0000 0.52650  0.68630  0.11600  Biso   1.000  C
  H37      1.0000 0.45050  0.82730  0.09120  Biso   1.000  H
  C91      1.0000 0.49840  0.73830  0.08040  Biso   1.000  C
  H38      1.0000 0.54550  0.64990  0.09390  Biso   1.000  H
  H39      1.0000 0.49820  0.73740  0.03370  Biso   1.000  H
  Nd14     1.0000 0.99227  0.25293  0.84756  Biso   1.000  Nd
  O53      1.0000 0.95090  0.35402  0.79273  Biso   1.000  O
  O54      1.0000 0.04033  0.15721  0.78889  Biso   1.000  O
  N14      1.0000 0.99961  0.25834  0.71870  Biso   1.000  N
  O55      1.0000 0.08530  0.20469  0.91891  Biso   1.000  O
  O56      1.0000 0.89190  0.29811  0.91086  Biso   1.000  O
  C92      1.0000 0.94555  0.36457  0.73026  Biso   1.000  C
  C93      1.0000 0.05431  0.15278  0.72747  Biso   1.000  C
  C94      1.0000 0.02666  0.20810  0.68367  Biso   1.000  C
  C95      1.0000 0.97410  0.31090  0.68501  Biso   1.000  C
  C96      1.0000 0.02940  0.20800  0.61433  Biso   1.000  C
  C97      1.0000 0.97350  0.31370  0.61600  Biso   1.000  C
  H40      1.0000 0.04950  0.17270  0.59120  Biso   1.000  H
  C98      1.0000 0.00160  0.26170  0.58040  Biso   1.000  C
  H41      1.0000 0.95450  0.35010  0.59390  Biso   1.000  H
  H42      1.0000 0.00180  0.26260  0.53370  Biso   1.000  H
  Nd15     1.0000 0.49227  0.24707  0.15244  Biso   1.000  Nd
  O57      1.0000 0.45090  0.14598  0.20727  Biso   1.000  O
  O58      1.0000 0.54033  0.34279  0.21111  Biso   1.000  O
  N15      1.0000 0.49961  0.24166  0.28130  Biso   1.000  N
  O59      1.0000 0.58530  0.29531  0.08109  Biso   1.000  O
  O60      1.0000 0.39190  0.20189  0.08914  Biso   1.000  O
  C99      1.0000 0.44555  0.13543  0.26974  Biso   1.000  C
  C100     1.0000 0.55431  0.34722  0.27253  Biso   1.000  C
  C101     1.0000 0.52666  0.29190  0.31633  Biso   1.000  C
  C102     1.0000 0.47410  0.18910  0.31499  Biso   1.000  C
  C103     1.0000 0.52940  0.29200  0.38567  Biso   1.000  C
  C104     1.0000 0.47350  0.18630  0.38400  Biso   1.000  C
  H43      1.0000 0.54950  0.32730  0.40880  Biso   1.000  H
  C105     1.0000 0.50160  0.23830  0.41960  Biso   1.000  C
  H44      1.0000 0.45450  0.14990  0.40610  Biso   1.000  H
  H45      1.0000 0.50180  0.23740  0.46630  Biso   1.000  H
  Nd16     1.0000 0.00773  0.75293  0.65244  Biso   1.000  Nd
  O61      1.0000 0.04910  0.85402  0.70727  Biso   1.000  O
  O62      1.0000 0.95967  0.65721  0.71111  Biso   1.000  O
  N16      1.0000 0.00039  0.75834  0.78130  Biso   1.000  N
  O63      1.0000 0.91470  0.70469  0.58109  Biso   1.000  O
  O64      1.0000 0.10810  0.79811  0.58914  Biso   1.000  O
  C106     1.0000 0.05445  0.86457  0.76974  Biso   1.000  C
  C107     1.0000 0.94569  0.65278  0.77253  Biso   1.000  C
  C108     1.0000 0.97334  0.70810  0.81633  Biso   1.000  C
  C109     1.0000 0.02590  0.81090  0.81499  Biso   1.000  C
  C110     1.0000 0.97060  0.70800  0.88567  Biso   1.000  C
  C111     1.0000 0.02650  0.81370  0.88400  Biso   1.000  C
  H46      1.0000 0.95050  0.67270  0.90880  Biso   1.000  H
  C112     1.0000 0.99840  0.76170  0.91960  Biso   1.000  C
  H47      1.0000 0.04550  0.85010  0.90610  Biso   1.000  H
  H48      1.0000 0.99820  0.76260  0.96630  Biso   1.000  H
  Nd17     1.0000 0.34756  0.50773  0.74707  Biso   1.000  Nd
  O65      1.0000 0.29273  0.54910  0.64598  Biso   1.000  O
  O66      1.0000 0.28889  0.45967  0.84279  Biso   1.000  O
  N17      1.0000 0.21870  0.50039  0.74166  Biso   1.000  N
  O67      1.0000 0.41891  0.41470  0.79531  Biso   1.000  O
  O68      1.0000 0.41086  0.60810  0.70189  Biso   1.000  O
  C113     1.0000 0.23026  0.55445  0.63543  Biso   1.000  C
  C114     1.0000 0.22747  0.44569  0.84722  Biso   1.000  C
  C115     1.0000 0.18367  0.47334  0.79190  Biso   1.000  C
  C116     1.0000 0.18501  0.52590  0.68910  Biso   1.000  C
  C117     1.0000 0.11433  0.47060  0.79200  Biso   1.000  C
  C118     1.0000 0.11600  0.52650  0.68630  Biso   1.000  C
  H49      1.0000 0.09120  0.45050  0.82730  Biso   1.000  H
  C119     1.0000 0.08040  0.49840  0.73830  Biso   1.000  C
  H50      1.0000 0.09390  0.54550  0.64990  Biso   1.000  H
  H51      1.0000 0.03370  0.49820  0.73740  Biso   1.000  H
  Nd18     1.0000 0.84756  0.99227  0.25293  Biso   1.000  Nd
  O69      1.0000 0.79273  0.95090  0.35402  Biso   1.000  O
  O70      1.0000 0.78889  0.04033  0.15721  Biso   1.000  O
  N18      1.0000 0.71870  0.99961  0.25834  Biso   1.000  N
  O71      1.0000 0.91891  0.08530  0.20469  Biso   1.000  O
  O72      1.0000 0.91086  0.89190  0.29811  Biso   1.000  O
  C120     1.0000 0.73026  0.94555  0.36457  Biso   1.000  C
  C121     1.0000 0.72747  0.05431  0.15278  Biso   1.000  C
  C122     1.0000 0.68367  0.02666  0.20810  Biso   1.000  C
  C123     1.0000 0.68501  0.97410  0.31090  Biso   1.000  C
  C124     1.0000 0.61433  0.02940  0.20800  Biso   1.000  C
  C125     1.0000 0.61600  0.97350  0.31370  Biso   1.000  C
  H52      1.0000 0.59120  0.04950  0.17270  Biso   1.000  H
  C126     1.0000 0.58040  0.00160  0.26170  Biso   1.000  C
  H53      1.0000 0.59390  0.95450  0.35010  Biso   1.000  H
  H54      1.0000 0.53370  0.00180  0.26260  Biso   1.000  H
  Nd19     1.0000 0.15244  0.49227  0.24707  Biso   1.000  Nd
  O73      1.0000 0.20727  0.45090  0.14598  Biso   1.000  O
  O74      1.0000 0.21111  0.54033  0.34279  Biso   1.000  O
  N19      1.0000 0.28130  0.49961  0.24166  Biso   1.000  N
  O75      1.0000 0.08109  0.58530  0.29531  Biso   1.000  O
  O76      1.0000 0.08914  0.39190  0.20189  Biso   1.000  O
  C127     1.0000 0.26974  0.44555  0.13543  Biso   1.000  C
  C128     1.0000 0.27253  0.55431  0.34722  Biso   1.000  C
  C129     1.0000 0.31633  0.52666  0.29190  Biso   1.000  C
  C130     1.0000 0.31499  0.47410  0.18910  Biso   1.000  C
  C131     1.0000 0.38567  0.52940  0.29200  Biso   1.000  C
  C132     1.0000 0.38400  0.47350  0.18630  Biso   1.000  C
  H55      1.0000 0.40880  0.54950  0.32730  Biso   1.000  H
  C133     1.0000 0.41960  0.50160  0.23830  Biso   1.000  C
  H56      1.0000 0.40610  0.45450  0.14990  Biso   1.000  H
  H57      1.0000 0.46630  0.50180  0.23740  Biso   1.000  H
  Nd20     1.0000 0.65244  0.00773  0.75293  Biso   1.000  Nd
  O77      1.0000 0.70727  0.04910  0.85402  Biso   1.000  O
  O78      1.0000 0.71111  0.95967  0.65721  Biso   1.000  O
  N20      1.0000 0.78130  0.00039  0.75834  Biso   1.000  N
  O79      1.0000 0.58109  0.91470  0.70469  Biso   1.000  O
  O80      1.0000 0.58914  0.10810  0.79811  Biso   1.000  O
  C134     1.0000 0.76974  0.05445  0.86457  Biso   1.000  C
  C135     1.0000 0.77253  0.94569  0.65278  Biso   1.000  C
  C136     1.0000 0.81633  0.97334  0.70810  Biso   1.000  C
  C137     1.0000 0.81499  0.02590  0.81090  Biso   1.000  C
  C138     1.0000 0.88567  0.97060  0.70800  Biso   1.000  C
  C139     1.0000 0.88400  0.02650  0.81370  Biso   1.000  C
  H58      1.0000 0.90880  0.95050  0.67270  Biso   1.000  H
  C140     1.0000 0.91960  0.99840  0.76170  Biso   1.000  C
  H59      1.0000 0.90610  0.04550  0.85010  Biso   1.000  H
  H60      1.0000 0.96630  0.99820  0.76260  Biso   1.000  H
  Nd21     1.0000 0.74707  0.34756  0.50773  Biso   1.000  Nd
  O81      1.0000 0.64598  0.29273  0.54910  Biso   1.000  O
  O82      1.0000 0.84279  0.28889  0.45967  Biso   1.000  O
  N21      1.0000 0.74166  0.21870  0.50039  Biso   1.000  N
  O83      1.0000 0.79531  0.41891  0.41470  Biso   1.000  O
  O84      1.0000 0.70189  0.41086  0.60810  Biso   1.000  O
  C141     1.0000 0.63543  0.23026  0.55445  Biso   1.000  C
  C142     1.0000 0.84722  0.22747  0.44569  Biso   1.000  C
  C143     1.0000 0.79190  0.18367  0.47334  Biso   1.000  C
  C144     1.0000 0.68910  0.18501  0.52590  Biso   1.000  C
  C145     1.0000 0.79200  0.11433  0.47060  Biso   1.000  C
  C146     1.0000 0.68630  0.11600  0.52650  Biso   1.000  C
  H61      1.0000 0.82730  0.09120  0.45050  Biso   1.000  H
  C147     1.0000 0.73830  0.08040  0.49840  Biso   1.000  C
  H62      1.0000 0.64990  0.09390  0.54550  Biso   1.000  H
  H63      1.0000 0.73740  0.03370  0.49820  Biso   1.000  H
  Nd22     1.0000 0.25293  0.84756  0.99227  Biso   1.000  Nd
  O85      1.0000 0.35402  0.79273  0.95090  Biso   1.000  O
  O86      1.0000 0.15721  0.78889  0.04033  Biso   1.000  O
  N22      1.0000 0.25834  0.71870  0.99961  Biso   1.000  N
  O87      1.0000 0.20469  0.91891  0.08530  Biso   1.000  O
  O88      1.0000 0.29811  0.91086  0.89190  Biso   1.000  O
  C148     1.0000 0.36457  0.73026  0.94555  Biso   1.000  C
  C149     1.0000 0.15278  0.72747  0.05431  Biso   1.000  C
  C150     1.0000 0.20810  0.68367  0.02666  Biso   1.000  C
  C151     1.0000 0.31090  0.68501  0.97410  Biso   1.000  C
  C152     1.0000 0.20800  0.61433  0.02940  Biso   1.000  C
  C153     1.0000 0.31370  0.61600  0.97350  Biso   1.000  C
  H64      1.0000 0.17270  0.59120  0.04950  Biso   1.000  H
  C154     1.0000 0.26170  0.58040  0.00160  Biso   1.000  C
  H65      1.0000 0.35010  0.59390  0.95450  Biso   1.000  H
  H66      1.0000 0.26260  0.53370  0.00180  Biso   1.000  H
  Nd23     1.0000 0.24707  0.15244  0.49227  Biso   1.000  Nd
  O89      1.0000 0.14598  0.20727  0.45090  Biso   1.000  O
  O90      1.0000 0.34279  0.21111  0.54033  Biso   1.000  O
  N23      1.0000 0.24166  0.28130  0.49961  Biso   1.000  N
  O91      1.0000 0.29531  0.08109  0.58530  Biso   1.000  O
  O92      1.0000 0.20189  0.08914  0.39190  Biso   1.000  O
  C155     1.0000 0.13543  0.26974  0.44555  Biso   1.000  C
  C156     1.0000 0.34722  0.27253  0.55431  Biso   1.000  C
  C157     1.0000 0.29190  0.31633  0.52666  Biso   1.000  C
  C158     1.0000 0.18910  0.31499  0.47410  Biso   1.000  C
  C159     1.0000 0.29200  0.38567  0.52940  Biso   1.000  C
  C160     1.0000 0.18630  0.38400  0.47350  Biso   1.000  C
  H67      1.0000 0.32730  0.40880  0.54950  Biso   1.000  H
  C161     1.0000 0.23830  0.41960  0.50160  Biso   1.000  C
  H68      1.0000 0.14990  0.40610  0.45450  Biso   1.000  H
  H69      1.0000 0.23740  0.46630  0.50180  Biso   1.000  H
  Nd24     1.0000 0.75293  0.65244  0.00773  Biso   1.000  Nd
  O93      1.0000 0.85402  0.70727  0.04910  Biso   1.000  O
  O94      1.0000 0.65721  0.71111  0.95967  Biso   1.000  O
  N24      1.0000 0.75834  0.78130  0.00039  Biso   1.000  N
  O95      1.0000 0.70469  0.58109  0.91470  Biso   1.000  O
  O96      1.0000 0.79811  0.58914  0.10810  Biso   1.000  O
  C162     1.0000 0.86457  0.76974  0.05445  Biso   1.000  C
  C163     1.0000 0.65278  0.77253  0.94569  Biso   1.000  C
  C164     1.0000 0.70810  0.81633  0.97334  Biso   1.000  C
  C165     1.0000 0.81090  0.81499  0.02590  Biso   1.000  C
  C166     1.0000 0.70800  0.88567  0.97060  Biso   1.000  C
  C167     1.0000 0.81370  0.88400  0.02650  Biso   1.000  C
  H70      1.0000 0.67270  0.90880  0.95050  Biso   1.000  H
  C168     1.0000 0.76170  0.91960  0.99840  Biso   1.000  C
  H71      1.0000 0.85010  0.90610  0.04550  Biso   1.000  H
  H72      1.0000 0.76260  0.96630  0.99820  Biso   1.000  H
