data_image0
_cell_length_a       19.833
_cell_length_b       19.833
_cell_length_c       19.833
_cell_angle_alpha    90
_cell_angle_beta     90
_cell_angle_gamma    90

_symmetry_space_group_name_H-M    "P 1"
_symmetry_int_tables_number       1

loop_
  _symmetry_equiv_pos_as_xyz
  'x, y, z'

loop_
  _atom_site_label
  _atom_site_occupancy
  _atom_site_fract_x
  _atom_site_fract_y
  _atom_site_fract_z
  _atom_site_thermal_displace_type
  _atom_site_B_iso_or_equiv
  _atom_site_type_symbol
  Sm1      1.0000 0.50657  0.74734  0.34724  Biso   1.000  Sm
  O1       1.0000 0.54910  0.64697  0.29367  Biso   1.000  O
  O2       1.0000 0.45881  0.84316  0.29060  Biso   1.000  O
  O3       1.0000 0.41150  0.89418  0.20290  Biso   1.000  O
  O4       1.0000 0.58215  0.58639  0.20539  Biso   1.000  O
  N1       1.0000 0.50039  0.74283  0.21944  Biso   1.000  N
  C1       1.0000 0.55490  0.63650  0.23070  Biso   1.000  C
  C2       1.0000 0.44580  0.84850  0.22840  Biso   1.000  C
  C3       1.0000 0.47320  0.79330  0.18410  Biso   1.000  C
  C4       1.0000 0.52620  0.69030  0.18580  Biso   1.000  C
  C5       1.0000 0.47080  0.79360  0.11490  Biso   1.000  C
  H1       1.0000 0.45130  0.82930  0.09160  Biso   1.000  H
  C6       1.0000 0.52680  0.68750  0.11600  Biso   1.000  C
  H2       1.0000 0.54620  0.65120  0.09360  Biso   1.000  H
  C7       1.0000 0.49830  0.73950  0.08100  Biso   1.000  C
  H3       1.0000 0.49730  0.73840  0.03410  Biso   1.000  H
  Sm2      1.0000 0.99343  0.25266  0.84724  Biso   1.000  Sm
  O5       1.0000 0.95090  0.35303  0.79367  Biso   1.000  O
  O6       1.0000 0.04119  0.15684  0.79060  Biso   1.000  O
  O7       1.0000 0.08850  0.10582  0.70290  Biso   1.000  O
  O8       1.0000 0.91785  0.41361  0.70539  Biso   1.000  O
  N2       1.0000 0.99961  0.25717  0.71944  Biso   1.000  N
  C8       1.0000 0.94510  0.36350  0.73070  Biso   1.000  C
  C9       1.0000 0.05420  0.15150  0.72840  Biso   1.000  C
  C10      1.0000 0.02680  0.20670  0.68410  Biso   1.000  C
  C11      1.0000 0.97380  0.30970  0.68580  Biso   1.000  C
  C12      1.0000 0.02920  0.20640  0.61490  Biso   1.000  C
  H4       1.0000 0.04870  0.17070  0.59160  Biso   1.000  H
  C13      1.0000 0.97320  0.31250  0.61600  Biso   1.000  C
  H5       1.0000 0.95380  0.34880  0.59360  Biso   1.000  H
  C14      1.0000 0.00170  0.26050  0.58100  Biso   1.000  C
  H6       1.0000 0.00270  0.26160  0.53410  Biso   1.000  H
  Sm3      1.0000 0.49343  0.24734  0.15276  Biso   1.000  Sm
  O9       1.0000 0.45090  0.14697  0.20633  Biso   1.000  O
  O10      1.0000 0.54119  0.34316  0.20940  Biso   1.000  O
  O11      1.0000 0.58850  0.39418  0.29710  Biso   1.000  O
  O12      1.0000 0.41785  0.08639  0.29461  Biso   1.000  O
  N3       1.0000 0.49961  0.24283  0.28056  Biso   1.000  N
  C15      1.0000 0.44510  0.13650  0.26930  Biso   1.000  C
  C16      1.0000 0.55420  0.34850  0.27160  Biso   1.000  C
  C17      1.0000 0.52680  0.29330  0.31590  Biso   1.000  C
  C18      1.0000 0.47380  0.19030  0.31420  Biso   1.000  C
  C19      1.0000 0.52920  0.29360  0.38510  Biso   1.000  C
  H7       1.0000 0.54870  0.32930  0.40840  Biso   1.000  H
  C20      1.0000 0.47320  0.18750  0.38400  Biso   1.000  C
  H8       1.0000 0.45380  0.15120  0.40640  Biso   1.000  H
  C21      1.0000 0.50170  0.23950  0.41900  Biso   1.000  C
  H9       1.0000 0.50270  0.23840  0.46590  Biso   1.000  H
  Sm4      1.0000 0.00657  0.75266  0.65276  Biso   1.000  Sm
  O13      1.0000 0.04910  0.85303  0.70633  Biso   1.000  O
  O14      1.0000 0.95881  0.65684  0.70940  Biso   1.000  O
  O15      1.0000 0.91150  0.60582  0.79710  Biso   1.000  O
  O16      1.0000 0.08215  0.91361  0.79461  Biso   1.000  O
  N4       1.0000 0.00039  0.75717  0.78056  Biso   1.000  N
  C22      1.0000 0.05490  0.86350  0.76930  Biso   1.000  C
  C23      1.0000 0.94580  0.65150  0.77160  Biso   1.000  C
  C24      1.0000 0.97320  0.70670  0.81590  Biso   1.000  C
  C25      1.0000 0.02620  0.80970  0.81420  Biso   1.000  C
  C26      1.0000 0.97080  0.70640  0.88510  Biso   1.000  C
  H10      1.0000 0.95130  0.67070  0.90840  Biso   1.000  H
  C27      1.0000 0.02680  0.81250  0.88400  Biso   1.000  C
  H11      1.0000 0.04620  0.84880  0.90640  Biso   1.000  H
  C28      1.0000 0.99830  0.76050  0.91900  Biso   1.000  C
  H12      1.0000 0.99730  0.76160  0.96590  Biso   1.000  H
  Sm5      1.0000 0.34724  0.50657  0.74734  Biso   1.000  Sm
  O17      1.0000 0.29367  0.54910  0.64697  Biso   1.000  O
  O18      1.0000 0.29060  0.45881  0.84316  Biso   1.000  O
  O19      1.0000 0.20290  0.41150  0.89418  Biso   1.000  O
  O20      1.0000 0.20539  0.58215  0.58639  Biso   1.000  O
  N5       1.0000 0.21944  0.50039  0.74283  Biso   1.000  N
  C29      1.0000 0.23070  0.55490  0.63650  Biso   1.000  C
  C30      1.0000 0.22840  0.44580  0.84850  Biso   1.000  C
  C31      1.0000 0.18410  0.47320  0.79330  Biso   1.000  C
  C32      1.0000 0.18580  0.52620  0.69030  Biso   1.000  C
  C33      1.0000 0.11490  0.47080  0.79360  Biso   1.000  C
  H13      1.0000 0.09160  0.45130  0.82930  Biso   1.000  H
  C34      1.0000 0.11600  0.52680  0.68750  Biso   1.000  C
  H14      1.0000 0.09360  0.54620  0.65120  Biso   1.000  H
  C35      1.0000 0.08100  0.49830  0.73950  Biso   1.000  C
  H15      1.0000 0.03410  0.49730  0.73840  Biso   1.000  H
  Sm6      1.0000 0.84724  0.99343  0.25266  Biso   1.000  Sm
  O21      1.0000 0.79367  0.95090  0.35303  Biso   1.000  O
  O22      1.0000 0.79060  0.04119  0.15684  Biso   1.000  O
  O23      1.0000 0.70290  0.08850  0.10582  Biso   1.000  O
  O24      1.0000 0.70539  0.91785  0.41361  Biso   1.000  O
  N6       1.0000 0.71944  0.99961  0.25717  Biso   1.000  N
  C36      1.0000 0.73070  0.94510  0.36350  Biso   1.000  C
  C37      1.0000 0.72840  0.05420  0.15150  Biso   1.000  C
  C38      1.0000 0.68410  0.02680  0.20670  Biso   1.000  C
  C39      1.0000 0.68580  0.97380  0.30970  Biso   1.000  C
  C40      1.0000 0.61490  0.02920  0.20640  Biso   1.000  C
  H16      1.0000 0.59160  0.04870  0.17070  Biso   1.000  H
  C41      1.0000 0.61600  0.97320  0.31250  Biso   1.000  C
  H17      1.0000 0.59360  0.95380  0.34880  Biso   1.000  H
  C42      1.0000 0.58100  0.00170  0.26050  Biso   1.000  C
  H18      1.0000 0.53410  0.00270  0.26160  Biso   1.000  H
  Sm7      1.0000 0.15276  0.49343  0.24734  Biso   1.000  Sm
  O25      1.0000 0.20633  0.45090  0.14697  Biso   1.000  O
  O26      1.0000 0.20940  0.54119  0.34316  Biso   1.000  O
  O27      1.0000 0.29710  0.58850  0.39418  Biso   1.000  O
  O28      1.0000 0.29461  0.41785  0.08639  Biso   1.000  O
  N7       1.0000 0.28056  0.49961  0.24283  Biso   1.000  N
  C43      1.0000 0.26930  0.44510  0.13650  Biso   1.000  C
  C44      1.0000 0.27160  0.55420  0.34850  Biso   1.000  C
  C45      1.0000 0.31590  0.52680  0.29330  Biso   1.000  C
  C46      1.0000 0.31420  0.47380  0.19030  Biso   1.000  C
  C47      1.0000 0.38510  0.52920  0.29360  Biso   1.000  C
  H19      1.0000 0.40840  0.54870  0.32930  Biso   1.000  H
  C48      1.0000 0.38400  0.47320  0.18750  Biso   1.000  C
  H20      1.0000 0.40640  0.45380  0.15120  Biso   1.000  H
  C49      1.0000 0.41900  0.50170  0.23950  Biso   1.000  C
  H21      1.0000 0.46590  0.50270  0.23840  Biso   1.000  H
  Sm8      1.0000 0.65276  0.00657  0.75266  Biso   1.000  Sm
  O29      1.0000 0.70633  0.04910  0.85303  Biso   1.000  O
  O30      1.0000 0.70940  0.95881  0.65684  Biso   1.000  O
  O31      1.0000 0.79710  0.91150  0.60582  Biso   1.000  O
  O32      1.0000 0.79461  0.08215  0.91361  Biso   1.000  O
  N8       1.0000 0.78056  0.00039  0.75717  Biso   1.000  N
  C50      1.0000 0.76930  0.05490  0.86350  Biso   1.000  C
  C51      1.0000 0.77160  0.94580  0.65150  Biso   1.000  C
  C52      1.0000 0.81590  0.97320  0.70670  Biso   1.000  C
  C53      1.0000 0.81420  0.02620  0.80970  Biso   1.000  C
  C54      1.0000 0.88510  0.97080  0.70640  Biso   1.000  C
  H22      1.0000 0.90840  0.95130  0.67070  Biso   1.000  H
  C55      1.0000 0.88400  0.02680  0.81250  Biso   1.000  C
  H23      1.0000 0.90640  0.04620  0.84880  Biso   1.000  H
  C56      1.0000 0.91900  0.99830  0.76050  Biso   1.000  C
  H24      1.0000 0.96590  0.99730  0.76160  Biso   1.000  H
  Sm9      1.0000 0.74734  0.34724  0.50657  Biso   1.000  Sm
  O33      1.0000 0.64697  0.29367  0.54910  Biso   1.000  O
  O34      1.0000 0.84316  0.29060  0.45881  Biso   1.000  O
  O35      1.0000 0.89418  0.20290  0.41150  Biso   1.000  O
  O36      1.0000 0.58639  0.20539  0.58215  Biso   1.000  O
  N9       1.0000 0.74283  0.21944  0.50039  Biso   1.000  N
  C57      1.0000 0.63650  0.23070  0.55490  Biso   1.000  C
  C58      1.0000 0.84850  0.22840  0.44580  Biso   1.000  C
  C59      1.0000 0.79330  0.18410  0.47320  Biso   1.000  C
  C60      1.0000 0.69030  0.18580  0.52620  Biso   1.000  C
  C61      1.0000 0.79360  0.11490  0.47080  Biso   1.000  C
  H25      1.0000 0.82930  0.09160  0.45130  Biso   1.000  H
  C62      1.0000 0.68750  0.11600  0.52680  Biso   1.000  C
  H26      1.0000 0.65120  0.09360  0.54620  Biso   1.000  H
  C63      1.0000 0.73950  0.08100  0.49830  Biso   1.000  C
  H27      1.0000 0.73840  0.03410  0.49730  Biso   1.000  H
  Sm10     1.0000 0.25266  0.84724  0.99343  Biso   1.000  Sm
  O37      1.0000 0.35303  0.79367  0.95090  Biso   1.000  O
  O38      1.0000 0.15684  0.79060  0.04119  Biso   1.000  O
  O39      1.0000 0.10582  0.70290  0.08850  Biso   1.000  O
  O40      1.0000 0.41361  0.70539  0.91785  Biso   1.000  O
  N10      1.0000 0.25717  0.71944  0.99961  Biso   1.000  N
  C64      1.0000 0.36350  0.73070  0.94510  Biso   1.000  C
  C65      1.0000 0.15150  0.72840  0.05420  Biso   1.000  C
  C66      1.0000 0.20670  0.68410  0.02680  Biso   1.000  C
  C67      1.0000 0.30970  0.68580  0.97380  Biso   1.000  C
  C68      1.0000 0.20640  0.61490  0.02920  Biso   1.000  C
  H28      1.0000 0.17070  0.59160  0.04870  Biso   1.000  H
  C69      1.0000 0.31250  0.61600  0.97320  Biso   1.000  C
  H29      1.0000 0.34880  0.59360  0.95380  Biso   1.000  H
  C70      1.0000 0.26050  0.58100  0.00170  Biso   1.000  C
  H30      1.0000 0.26160  0.53410  0.00270  Biso   1.000  H
  Sm11     1.0000 0.24734  0.15276  0.49343  Biso   1.000  Sm
  O41      1.0000 0.14697  0.20633  0.45090  Biso   1.000  O
  O42      1.0000 0.34316  0.20940  0.54119  Biso   1.000  O
  O43      1.0000 0.39418  0.29710  0.58850  Biso   1.000  O
  O44      1.0000 0.08639  0.29461  0.41785  Biso   1.000  O
  N11      1.0000 0.24283  0.28056  0.49961  Biso   1.000  N
  C71      1.0000 0.13650  0.26930  0.44510  Biso   1.000  C
  C72      1.0000 0.34850  0.27160  0.55420  Biso   1.000  C
  C73      1.0000 0.29330  0.31590  0.52680  Biso   1.000  C
  C74      1.0000 0.19030  0.31420  0.47380  Biso   1.000  C
  C75      1.0000 0.29360  0.38510  0.52920  Biso   1.000  C
  H31      1.0000 0.32930  0.40840  0.54870  Biso   1.000  H
  C76      1.0000 0.18750  0.38400  0.47320  Biso   1.000  C
  H32      1.0000 0.15120  0.40640  0.45380  Biso   1.000  H
  C77      1.0000 0.23950  0.41900  0.50170  Biso   1.000  C
  H33      1.0000 0.23840  0.46590  0.50270  Biso   1.000  H
  Sm12     1.0000 0.75266  0.65276  0.00657  Biso   1.000  Sm
  O45      1.0000 0.85303  0.70633  0.04910  Biso   1.000  O
  O46      1.0000 0.65684  0.70940  0.95881  Biso   1.000  O
  O47      1.0000 0.60582  0.79710  0.91150  Biso   1.000  O
  O48      1.0000 0.91361  0.79461  0.08215  Biso   1.000  O
  N12      1.0000 0.75717  0.78056  0.00039  Biso   1.000  N
  C78      1.0000 0.86350  0.76930  0.05490  Biso   1.000  C
  C79      1.0000 0.65150  0.77160  0.94580  Biso   1.000  C
  C80      1.0000 0.70670  0.81590  0.97320  Biso   1.000  C
  C81      1.0000 0.80970  0.81420  0.02620  Biso   1.000  C
  C82      1.0000 0.70640  0.88510  0.97080  Biso   1.000  C
  H34      1.0000 0.67070  0.90840  0.95130  Biso   1.000  H
  C83      1.0000 0.81250  0.88400  0.02680  Biso   1.000  C
  H35      1.0000 0.84880  0.90640  0.04620  Biso   1.000  H
  C84      1.0000 0.76050  0.91900  0.99830  Biso   1.000  C
  H36      1.0000 0.76160  0.96590  0.99730  Biso   1.000  H
  Sm13     1.0000 0.49343  0.25266  0.65276  Biso   1.000  Sm
  O49      1.0000 0.45090  0.35303  0.70633  Biso   1.000  O
  O50      1.0000 0.54119  0.15684  0.70940  Biso   1.000  O
  O51      1.0000 0.58850  0.10582  0.79710  Biso   1.000  O
  O52      1.0000 0.41785  0.41361  0.79461  Biso   1.000  O
  N13      1.0000 0.49961  0.25717  0.78056  Biso   1.000  N
  C85      1.0000 0.44510  0.36350  0.76930  Biso   1.000  C
  C86      1.0000 0.55420  0.15150  0.77160  Biso   1.000  C
  C87      1.0000 0.52680  0.20670  0.81590  Biso   1.000  C
  C88      1.0000 0.47380  0.30970  0.81420  Biso   1.000  C
  C89      1.0000 0.52920  0.20640  0.88510  Biso   1.000  C
  H37      1.0000 0.54870  0.17070  0.90840  Biso   1.000  H
  C90      1.0000 0.47320  0.31250  0.88400  Biso   1.000  C
  H38      1.0000 0.45380  0.34880  0.90640  Biso   1.000  H
  C91      1.0000 0.50170  0.26050  0.91900  Biso   1.000  C
  H39      1.0000 0.50270  0.26160  0.96590  Biso   1.000  H
  Sm14     1.0000 0.00657  0.74734  0.15276  Biso   1.000  Sm
  O53      1.0000 0.04910  0.64697  0.20633  Biso   1.000  O
  O54      1.0000 0.95881  0.84316  0.20940  Biso   1.000  O
  O55      1.0000 0.91150  0.89418  0.29710  Biso   1.000  O
  O56      1.0000 0.08215  0.58639  0.29461  Biso   1.000  O
  N14      1.0000 0.00039  0.74283  0.28056  Biso   1.000  N
  C92      1.0000 0.05490  0.63650  0.26930  Biso   1.000  C
  C93      1.0000 0.94580  0.84850  0.27160  Biso   1.000  C
  C94      1.0000 0.97320  0.79330  0.31590  Biso   1.000  C
  C95      1.0000 0.02620  0.69030  0.31420  Biso   1.000  C
  C96      1.0000 0.97080  0.79360  0.38510  Biso   1.000  C
  H40      1.0000 0.95130  0.82930  0.40840  Biso   1.000  H
  C97      1.0000 0.02680  0.68750  0.38400  Biso   1.000  C
  H41      1.0000 0.04620  0.65120  0.40640  Biso   1.000  H
  C98      1.0000 0.99830  0.73950  0.41900  Biso   1.000  C
  H42      1.0000 0.99730  0.73840  0.46590  Biso   1.000  H
  Sm15     1.0000 0.50657  0.75266  0.84724  Biso   1.000  Sm
  O57      1.0000 0.54910  0.85303  0.79367  Biso   1.000  O
  O58      1.0000 0.45881  0.65684  0.79060  Biso   1.000  O
  O59      1.0000 0.41150  0.60582  0.70290  Biso   1.000  O
  O60      1.0000 0.58215  0.91361  0.70539  Biso   1.000  O
  N15      1.0000 0.50039  0.75717  0.71944  Biso   1.000  N
  C99      1.0000 0.55490  0.86350  0.73070  Biso   1.000  C
  C100     1.0000 0.44580  0.65150  0.72840  Biso   1.000  C
  C101     1.0000 0.47320  0.70670  0.68410  Biso   1.000  C
  C102     1.0000 0.52620  0.80970  0.68580  Biso   1.000  C
  C103     1.0000 0.47080  0.70640  0.61490  Biso   1.000  C
  H43      1.0000 0.45130  0.67070  0.59160  Biso   1.000  H
  C104     1.0000 0.52680  0.81250  0.61600  Biso   1.000  C
  H44      1.0000 0.54620  0.84880  0.59360  Biso   1.000  H
  C105     1.0000 0.49830  0.76050  0.58100  Biso   1.000  C
  H45      1.0000 0.49730  0.76160  0.53410  Biso   1.000  H
  Sm16     1.0000 0.99343  0.24734  0.34724  Biso   1.000  Sm
  O61      1.0000 0.95090  0.14697  0.29367  Biso   1.000  O
  O62      1.0000 0.04119  0.34316  0.29060  Biso   1.000  O
  O63      1.0000 0.08850  0.39418  0.20290  Biso   1.000  O
  O64      1.0000 0.91785  0.08639  0.20539  Biso   1.000  O
  N16      1.0000 0.99961  0.24283  0.21944  Biso   1.000  N
  C106     1.0000 0.94510  0.13650  0.23070  Biso   1.000  C
  C107     1.0000 0.05420  0.34850  0.22840  Biso   1.000  C
  C108     1.0000 0.02680  0.29330  0.18410  Biso   1.000  C
  C109     1.0000 0.97380  0.19030  0.18580  Biso   1.000  C
  C110     1.0000 0.02920  0.29360  0.11490  Biso   1.000  C
  H46      1.0000 0.04870  0.32930  0.09160  Biso   1.000  H
  C111     1.0000 0.97320  0.18750  0.11600  Biso   1.000  C
  H47      1.0000 0.95380  0.15120  0.09360  Biso   1.000  H
  C112     1.0000 0.00170  0.23950  0.08100  Biso   1.000  C
  H48      1.0000 0.00270  0.23840  0.03410  Biso   1.000  H
  Sm17     1.0000 0.65276  0.49343  0.25266  Biso   1.000  Sm
  O65      1.0000 0.70633  0.45090  0.35303  Biso   1.000  O
  O66      1.0000 0.70940  0.54119  0.15684  Biso   1.000  O
  O67      1.0000 0.79710  0.58850  0.10582  Biso   1.000  O
  O68      1.0000 0.79461  0.41785  0.41361  Biso   1.000  O
  N17      1.0000 0.78056  0.49961  0.25717  Biso   1.000  N
  C113     1.0000 0.76930  0.44510  0.36350  Biso   1.000  C
  C114     1.0000 0.77160  0.55420  0.15150  Biso   1.000  C
  C115     1.0000 0.81590  0.52680  0.20670  Biso   1.000  C
  C116     1.0000 0.81420  0.47380  0.30970  Biso   1.000  C
  C117     1.0000 0.88510  0.52920  0.20640  Biso   1.000  C
  H49      1.0000 0.90840  0.54870  0.17070  Biso   1.000  H
  C118     1.0000 0.88400  0.47320  0.31250  Biso   1.000  C
  H50      1.0000 0.90640  0.45380  0.34880  Biso   1.000  H
  C119     1.0000 0.91900  0.50170  0.26050  Biso   1.000  C
  H51      1.0000 0.96590  0.50270  0.26160  Biso   1.000  H
  Sm18     1.0000 0.15276  0.00657  0.74734  Biso   1.000  Sm
  O69      1.0000 0.20633  0.04910  0.64697  Biso   1.000  O
  O70      1.0000 0.20940  0.95881  0.84316  Biso   1.000  O
  O71      1.0000 0.29710  0.91150  0.89418  Biso   1.000  O
  O72      1.0000 0.29461  0.08215  0.58639  Biso   1.000  O
  N18      1.0000 0.28056  0.00039  0.74283  Biso   1.000  N
  C120     1.0000 0.26930  0.05490  0.63650  Biso   1.000  C
  C121     1.0000 0.27160  0.94580  0.84850  Biso   1.000  C
  C122     1.0000 0.31590  0.97320  0.79330  Biso   1.000  C
  C123     1.0000 0.31420  0.02620  0.69030  Biso   1.000  C
  C124     1.0000 0.38510  0.97080  0.79360  Biso   1.000  C
  H52      1.0000 0.40840  0.95130  0.82930  Biso   1.000  H
  C125     1.0000 0.38400  0.02680  0.68750  Biso   1.000  C
  H53      1.0000 0.40640  0.04620  0.65120  Biso   1.000  H
  C126     1.0000 0.41900  0.99830  0.73950  Biso   1.000  C
  H54      1.0000 0.46590  0.99730  0.73840  Biso   1.000  H
  Sm19     1.0000 0.84724  0.50657  0.75266  Biso   1.000  Sm
  O73      1.0000 0.79367  0.54910  0.85303  Biso   1.000  O
  O74      1.0000 0.79060  0.45881  0.65684  Biso   1.000  O
  O75      1.0000 0.70290  0.41150  0.60582  Biso   1.000  O
  O76      1.0000 0.70539  0.58215  0.91361  Biso   1.000  O
  N19      1.0000 0.71944  0.50039  0.75717  Biso   1.000  N
  C127     1.0000 0.73070  0.55490  0.86350  Biso   1.000  C
  C128     1.0000 0.72840  0.44580  0.65150  Biso   1.000  C
  C129     1.0000 0.68410  0.47320  0.70670  Biso   1.000  C
  C130     1.0000 0.68580  0.52620  0.80970  Biso   1.000  C
  C131     1.0000 0.61490  0.47080  0.70640  Biso   1.000  C
  H55      1.0000 0.59160  0.45130  0.67070  Biso   1.000  H
  C132     1.0000 0.61600  0.52680  0.81250  Biso   1.000  C
  H56      1.0000 0.59360  0.54620  0.84880  Biso   1.000  H
  C133     1.0000 0.58100  0.49830  0.76050  Biso   1.000  C
  H57      1.0000 0.53410  0.49730  0.76160  Biso   1.000  H
  Sm20     1.0000 0.34724  0.99343  0.24734  Biso   1.000  Sm
  O77      1.0000 0.29367  0.95090  0.14697  Biso   1.000  O
  O78      1.0000 0.29060  0.04119  0.34316  Biso   1.000  O
  O79      1.0000 0.20290  0.08850  0.39418  Biso   1.000  O
  O80      1.0000 0.20539  0.91785  0.08639  Biso   1.000  O
  N20      1.0000 0.21944  0.99961  0.24283  Biso   1.000  N
  C134     1.0000 0.23070  0.94510  0.13650  Biso   1.000  C
  C135     1.0000 0.22840  0.05420  0.34850  Biso   1.000  C
  C136     1.0000 0.18410  0.02680  0.29330  Biso   1.000  C
  C137     1.0000 0.18580  0.97380  0.19030  Biso   1.000  C
  C138     1.0000 0.11490  0.02920  0.29360  Biso   1.000  C
  H58      1.0000 0.09160  0.04870  0.32930  Biso   1.000  H
  C139     1.0000 0.11600  0.97320  0.18750  Biso   1.000  C
  H59      1.0000 0.09360  0.95380  0.15120  Biso   1.000  H
  C140     1.0000 0.08100  0.00170  0.23950  Biso   1.000  C
  H60      1.0000 0.03410  0.00270  0.23840  Biso   1.000  H
  Sm21     1.0000 0.25266  0.65276  0.49343  Biso   1.000  Sm
  O81      1.0000 0.35303  0.70633  0.45090  Biso   1.000  O
  O82      1.0000 0.15684  0.70940  0.54119  Biso   1.000  O
  O83      1.0000 0.10582  0.79710  0.58850  Biso   1.000  O
  O84      1.0000 0.41361  0.79461  0.41785  Biso   1.000  O
  N21      1.0000 0.25717  0.78056  0.49961  Biso   1.000  N
  C141     1.0000 0.36350  0.76930  0.44510  Biso   1.000  C
  C142     1.0000 0.15150  0.77160  0.55420  Biso   1.000  C
  C143     1.0000 0.20670  0.81590  0.52680  Biso   1.000  C
  C144     1.0000 0.30970  0.81420  0.47380  Biso   1.000  C
  C145     1.0000 0.20640  0.88510  0.52920  Biso   1.000  C
  H61      1.0000 0.17070  0.90840  0.54870  Biso   1.000  H
  C146     1.0000 0.31250  0.88400  0.47320  Biso   1.000  C
  H62      1.0000 0.34880  0.90640  0.45380  Biso   1.000  H
  C147     1.0000 0.26050  0.91900  0.50170  Biso   1.000  C
  H63      1.0000 0.26160  0.96590  0.50270  Biso   1.000  H
  Sm22     1.0000 0.74734  0.15276  0.00657  Biso   1.000  Sm
  O85      1.0000 0.64697  0.20633  0.04910  Biso   1.000  O
  O86      1.0000 0.84316  0.20940  0.95881  Biso   1.000  O
  O87      1.0000 0.89418  0.29710  0.91150  Biso   1.000  O
  O88      1.0000 0.58639  0.29461  0.08215  Biso   1.000  O
  N22      1.0000 0.74283  0.28056  0.00039  Biso   1.000  N
  C148     1.0000 0.63650  0.26930  0.05490  Biso   1.000  C
  C149     1.0000 0.84850  0.27160  0.94580  Biso   1.000  C
  C150     1.0000 0.79330  0.31590  0.97320  Biso   1.000  C
  C151     1.0000 0.69030  0.31420  0.02620  Biso   1.000  C
  C152     1.0000 0.79360  0.38510  0.97080  Biso   1.000  C
  H64      1.0000 0.82930  0.40840  0.95130  Biso   1.000  H
  C153     1.0000 0.68750  0.38400  0.02680  Biso   1.000  C
  H65      1.0000 0.65120  0.40640  0.04620  Biso   1.000  H
  C154     1.0000 0.73950  0.41900  0.99830  Biso   1.000  C
  H66      1.0000 0.73840  0.46590  0.99730  Biso   1.000  H
  Sm23     1.0000 0.75266  0.84724  0.50657  Biso   1.000  Sm
  O89      1.0000 0.85303  0.79367  0.54910  Biso   1.000  O
  O90      1.0000 0.65684  0.79060  0.45881  Biso   1.000  O
  O91      1.0000 0.60582  0.70290  0.41150  Biso   1.000  O
  O92      1.0000 0.91361  0.70539  0.58215  Biso   1.000  O
  N23      1.0000 0.75717  0.71944  0.50039  Biso   1.000  N
  C155     1.0000 0.86350  0.73070  0.55490  Biso   1.000  C
  C156     1.0000 0.65150  0.72840  0.44580  Biso   1.000  C
  C157     1.0000 0.70670  0.68410  0.47320  Biso   1.000  C
  C158     1.0000 0.80970  0.68580  0.52620  Biso   1.000  C
  C159     1.0000 0.70640  0.61490  0.47080  Biso   1.000  C
  H67      1.0000 0.67070  0.59160  0.45130  Biso   1.000  H
  C160     1.0000 0.81250  0.61600  0.52680  Biso   1.000  C
  H68      1.0000 0.84880  0.59360  0.54620  Biso   1.000  H
  C161     1.0000 0.76050  0.58100  0.49830  Biso   1.000  C
  H69      1.0000 0.76160  0.53410  0.49730  Biso   1.000  H
  Sm24     1.0000 0.24734  0.34724  0.99343  Biso   1.000  Sm
  O93      1.0000 0.14697  0.29367  0.95090  Biso   1.000  O
  O94      1.0000 0.34316  0.29060  0.04119  Biso   1.000  O
  O95      1.0000 0.39418  0.20290  0.08850  Biso   1.000  O
  O96      1.0000 0.08639  0.20539  0.91785  Biso   1.000  O
  N24      1.0000 0.24283  0.21944  0.99961  Biso   1.000  N
  C162     1.0000 0.13650  0.23070  0.94510  Biso   1.000  C
  C163     1.0000 0.34850  0.22840  0.05420  Biso   1.000  C
  C164     1.0000 0.29330  0.18410  0.02680  Biso   1.000  C
  C165     1.0000 0.19030  0.18580  0.97380  Biso   1.000  C
  C166     1.0000 0.29360  0.11490  0.02920  Biso   1.000  C
  H70      1.0000 0.32930  0.09160  0.04870  Biso   1.000  H
  C167     1.0000 0.18750  0.11600  0.97320  Biso   1.000  C
  H71      1.0000 0.15120  0.09360  0.95380  Biso   1.000  H
  C168     1.0000 0.23950  0.08100  0.00170  Biso   1.000  C
  H72      1.0000 0.23840  0.03410  0.00270  Biso   1.000  H
