data_image0
_cell_length_a       18.698
_cell_length_b       19.292
_cell_length_c       19.383
_cell_angle_alpha    90
_cell_angle_beta     91.045
_cell_angle_gamma    90

_symmetry_space_group_name_H-M    "P 1"
_symmetry_int_tables_number       1

loop_
  _symmetry_equiv_pos_as_xyz
  'x, y, z'

loop_
  _atom_site_label
  _atom_site_occupancy
  _atom_site_fract_x
  _atom_site_fract_y
  _atom_site_fract_z
  _atom_site_thermal_displace_type
  _atom_site_B_iso_or_equiv
  _atom_site_type_symbol
  O1       1.0000 0.18070  0.03820  0.58200  Biso   1.000  O
  O2       1.0000 0.27630  0.00190  0.64210  Biso   1.000  O
  C1       1.0000 0.21240  0.01620  0.64080  Biso   1.000  C
  C2       1.0000 0.16740  0.00600  0.70210  Biso   1.000  C
  C3       1.0000 0.09280  0.00420  0.69170  Biso   1.000  C
  H1       1.0000 0.07290  0.01150  0.64800  Biso   1.000  H
  Fe1      1.0000 0.72948  0.98591  0.47907  Biso   1.000  Fe
  Fe2      1.0000 0.22984  0.52276  0.51696  Biso   1.000  Fe
  Fe3      1.0000 0.86962  0.86663  0.45568  Biso   1.000  Fe
  Fe4      1.0000 0.36756  0.55582  0.63798  Biso   1.000  Fe
  O3       1.0000 0.77860  0.97240  0.57140  Biso   1.000  O
  O4       1.0000 0.73100  0.02690  0.81970  Biso   1.000  O
  O5       1.0000 0.82430  0.02300  0.89400  Biso   1.000  O
  O6       1.0000 0.32010  0.58460  0.53810  Biso   1.000  O
  O7       1.0000 0.22440  0.64230  0.50210  Biso   1.000  O
  O8       1.0000 0.77040  0.82100  0.47950  Biso   1.000  O
  O9       1.0000 0.14520  0.99100  0.94540  Biso   1.000  O
  O10      1.0000 0.71850  0.56990  0.46030  Biso   1.000  O
  O11      1.0000 0.25780  0.90300  0.52130  Biso   1.000  O
  O12      1.0000 0.67750  0.89540  0.47950  Biso   1.000  O
  O13      1.0000 0.25220  0.97740  0.90280  Biso   1.000  O
  O14      1.0000 0.61710  0.54320  0.40370  Biso   1.000  O
  O15      1.0000 0.88070  0.91410  0.55170  Biso   1.000  O
  O16      1.0000 0.36070  0.94840  0.49030  Biso   1.000  O
  C4       1.0000 0.29060  0.64080  0.51550  Biso   1.000  C
  C5       1.0000 0.45260  0.74750  0.47960  Biso   1.000  C
  C6       1.0000 0.86690  0.97030  0.65940  Biso   1.000  C
  C7       1.0000 0.96770  0.98670  0.73710  Biso   1.000  C
  C8       1.0000 0.84760  0.00520  0.77660  Biso   1.000  C
  C9       1.0000 0.63030  0.65570  0.45030  Biso   1.000  C
  C10      1.0000 0.82120  0.98830  0.71100  Biso   1.000  C
  H2       1.0000 0.77210  0.98920  0.70220  Biso   1.000  H
  C11      1.0000 0.35070  0.82510  0.49560  Biso   1.000  C
  C12      1.0000 0.65410  0.77630  0.47190  Biso   1.000  C
  C13      1.0000 0.07950  0.98820  0.81430  Biso   1.000  C
  H3       1.0000 0.05030  0.98510  0.85250  Biso   1.000  H
  C14      1.0000 0.83960  0.95150  0.58910  Biso   1.000  C
  C15      1.0000 0.70670  0.83670  0.47790  Biso   1.000  C
  C16      1.0000 0.53190  0.73540  0.46940  Biso   1.000  C
  C17      1.0000 0.40630  0.69380  0.49320  Biso   1.000  C
  H4       1.0000 0.42510  0.64920  0.49460  Biso   1.000  H
  C18      1.0000 0.33620  0.70120  0.50450  Biso   1.000  C
  C19      1.0000 0.18570  0.98420  0.89420  Biso   1.000  C
  C20      1.0000 0.58060  0.78830  0.47750  Biso   1.000  C
  H5       1.0000 0.56440  0.83290  0.48680  Biso   1.000  H
  C21      1.0000 0.94160  0.96830  0.67400  Biso   1.000  C
  H6       1.0000 0.97280  0.95430  0.64000  Biso   1.000  H
  C22      1.0000 0.15440  0.98990  0.82440  Biso   1.000  C
  C23      1.0000 0.30780  0.76880  0.50500  Biso   1.000  C
  H7       1.0000 0.25920  0.77520  0.51190  Biso   1.000  H
  C24      1.0000 0.04840  0.99100  0.74870  Biso   1.000  C
  C25      1.0000 0.79610  0.02020  0.83420  Biso   1.000  C
  C26      1.0000 0.67890  0.71000  0.46050  Biso   1.000  C
  H8       1.0000 0.72780  0.70140  0.45950  Biso   1.000  H
  C27      1.0000 0.92090  0.00470  0.78830  Biso   1.000  C
  H9       1.0000 0.93890  0.01680  0.83160  Biso   1.000  H
  C28      1.0000 0.42180  0.81470  0.48220  Biso   1.000  C
  H10      1.0000 0.45080  0.85310  0.47460  Biso   1.000  H
  C29      1.0000 0.55700  0.66860  0.45350  Biso   1.000  C
  H11      1.0000 0.52460  0.63290  0.44520  Biso   1.000  H
  C30      1.0000 0.32170  0.89620  0.50210  Biso   1.000  C
  C31      1.0000 0.65950  0.58400  0.43730  Biso   1.000  C
  C32      1.0000 0.19660  0.99780  0.76550  Biso   1.000  C
  H12      1.0000 0.24610  0.99730  0.77060  Biso   1.000  H
  O17      1.0000 0.81930  0.53820  0.91800  Biso   1.000  O
  O18      1.0000 0.72370  0.50190  0.85790  Biso   1.000  O
  C33      1.0000 0.78760  0.51620  0.85920  Biso   1.000  C
  C34      1.0000 0.83260  0.50600  0.79790  Biso   1.000  C
  C35      1.0000 0.90720  0.50420  0.80830  Biso   1.000  C
  H13      1.0000 0.92710  0.51150  0.85200  Biso   1.000  H
  Fe5      1.0000 0.27052  0.48591  0.02093  Biso   1.000  Fe
  Fe6      1.0000 0.77016  0.02276  0.98304  Biso   1.000  Fe
  Fe7      1.0000 0.13038  0.36663  0.04432  Biso   1.000  Fe
  Fe8      1.0000 0.63244  0.05582  0.86202  Biso   1.000  Fe
  O19      1.0000 0.22140  0.47240  0.92860  Biso   1.000  O
  O20      1.0000 0.26900  0.52690  0.68030  Biso   1.000  O
  O21      1.0000 0.17570  0.52300  0.60600  Biso   1.000  O
  O22      1.0000 0.67990  0.08460  0.96190  Biso   1.000  O
  O23      1.0000 0.77560  0.14230  0.99790  Biso   1.000  O
  O24      1.0000 0.22960  0.32100  0.02050  Biso   1.000  O
  O25      1.0000 0.85480  0.49100  0.55460  Biso   1.000  O
  O26      1.0000 0.28150  0.06990  0.03970  Biso   1.000  O
  O27      1.0000 0.74220  0.40300  0.97870  Biso   1.000  O
  O28      1.0000 0.32250  0.39540  0.02050  Biso   1.000  O
  O29      1.0000 0.74780  0.47740  0.59720  Biso   1.000  O
  O30      1.0000 0.38290  0.04320  0.09630  Biso   1.000  O
  O31      1.0000 0.11930  0.41410  0.94830  Biso   1.000  O
  O32      1.0000 0.63930  0.44840  0.00970  Biso   1.000  O
  C36      1.0000 0.70940  0.14080  0.98450  Biso   1.000  C
  C37      1.0000 0.54740  0.24750  0.02040  Biso   1.000  C
  C38      1.0000 0.13310  0.47030  0.84060  Biso   1.000  C
  C39      1.0000 0.03230  0.48670  0.76290  Biso   1.000  C
  C40      1.0000 0.15240  0.50520  0.72340  Biso   1.000  C
  C41      1.0000 0.36970  0.15570  0.04970  Biso   1.000  C
  C42      1.0000 0.17880  0.48830  0.78900  Biso   1.000  C
  H14      1.0000 0.22790  0.48920  0.79780  Biso   1.000  H
  C43      1.0000 0.64930  0.32510  0.00440  Biso   1.000  C
  C44      1.0000 0.34590  0.27630  0.02810  Biso   1.000  C
  C45      1.0000 0.92050  0.48820  0.68570  Biso   1.000  C
  H15      1.0000 0.94970  0.48510  0.64750  Biso   1.000  H
  C46      1.0000 0.16040  0.45150  0.91090  Biso   1.000  C
  C47      1.0000 0.29330  0.33670  0.02210  Biso   1.000  C
  C48      1.0000 0.46810  0.23540  0.03060  Biso   1.000  C
  C49      1.0000 0.59370  0.19380  0.00680  Biso   1.000  C
  H16      1.0000 0.57490  0.14920  0.00540  Biso   1.000  H
  C50      1.0000 0.66380  0.20120  0.99550  Biso   1.000  C
  C51      1.0000 0.81430  0.48420  0.60580  Biso   1.000  C
  C52      1.0000 0.41940  0.28830  0.02250  Biso   1.000  C
  H17      1.0000 0.43560  0.33290  0.01320  Biso   1.000  H
  C53      1.0000 0.05840  0.46830  0.82600  Biso   1.000  C
  H18      1.0000 0.02720  0.45430  0.86000  Biso   1.000  H
  C54      1.0000 0.84560  0.48990  0.67560  Biso   1.000  C
  C55      1.0000 0.69220  0.26880  0.99500  Biso   1.000  C
  H19      1.0000 0.74080  0.27520  0.98810  Biso   1.000  H
  C56      1.0000 0.95160  0.49100  0.75130  Biso   1.000  C
  C57      1.0000 0.20390  0.52020  0.66580  Biso   1.000  C
  C58      1.0000 0.32110  0.21000  0.03950  Biso   1.000  C
  H20      1.0000 0.27220  0.20140  0.04050  Biso   1.000  H
  C59      1.0000 0.07910  0.50470  0.71170  Biso   1.000  C
  H21      1.0000 0.06110  0.51680  0.66840  Biso   1.000  H
  C60      1.0000 0.57820  0.31470  0.01780  Biso   1.000  C
  H22      1.0000 0.54920  0.35310  0.02540  Biso   1.000  H
  C61      1.0000 0.44300  0.16860  0.04650  Biso   1.000  C
  H23      1.0000 0.47540  0.13290  0.05480  Biso   1.000  H
  C62      1.0000 0.67830  0.39620  0.99790  Biso   1.000  C
  C63      1.0000 0.34050  0.08400  0.06270  Biso   1.000  C
  C64      1.0000 0.80340  0.49780  0.73450  Biso   1.000  C
  H24      1.0000 0.75390  0.49730  0.72940  Biso   1.000  H
  O33      1.0000 0.81930  0.96180  0.41800  Biso   1.000  O
  O34      1.0000 0.72370  0.99810  0.35790  Biso   1.000  O
  C65      1.0000 0.78760  0.98380  0.35920  Biso   1.000  C
  C66      1.0000 0.83260  0.99400  0.29790  Biso   1.000  C
  C67      1.0000 0.90720  0.99580  0.30830  Biso   1.000  C
  H25      1.0000 0.92710  0.98850  0.35200  Biso   1.000  H
  Fe9      1.0000 0.27052  0.01409  0.52093  Biso   1.000  Fe
  Fe10     1.0000 0.77016  0.47724  0.48304  Biso   1.000  Fe
  Fe11     1.0000 0.13038  0.13337  0.54432  Biso   1.000  Fe
  Fe12     1.0000 0.63244  0.44418  0.36202  Biso   1.000  Fe
  O35      1.0000 0.22140  0.02760  0.42860  Biso   1.000  O
  O36      1.0000 0.26900  0.97310  0.18030  Biso   1.000  O
  O37      1.0000 0.17570  0.97700  0.10600  Biso   1.000  O
  O38      1.0000 0.67990  0.41540  0.46190  Biso   1.000  O
  O39      1.0000 0.77560  0.35770  0.49790  Biso   1.000  O
  O40      1.0000 0.22960  0.17900  0.52050  Biso   1.000  O
  O41      1.0000 0.85480  0.00900  0.05460  Biso   1.000  O
  O42      1.0000 0.28150  0.43010  0.53970  Biso   1.000  O
  O43      1.0000 0.74220  0.09700  0.47870  Biso   1.000  O
  O44      1.0000 0.32250  0.10460  0.52050  Biso   1.000  O
  O45      1.0000 0.74780  0.02260  0.09720  Biso   1.000  O
  O46      1.0000 0.38290  0.45680  0.59630  Biso   1.000  O
  O47      1.0000 0.11930  0.08590  0.44830  Biso   1.000  O
  O48      1.0000 0.63930  0.05160  0.50970  Biso   1.000  O
  C68      1.0000 0.70940  0.35920  0.48450  Biso   1.000  C
  C69      1.0000 0.54740  0.25250  0.52040  Biso   1.000  C
  C70      1.0000 0.13310  0.02970  0.34060  Biso   1.000  C
  C71      1.0000 0.03230  0.01330  0.26290  Biso   1.000  C
  C72      1.0000 0.15240  0.99480  0.22340  Biso   1.000  C
  C73      1.0000 0.36970  0.34430  0.54970  Biso   1.000  C
  C74      1.0000 0.17880  0.01170  0.28900  Biso   1.000  C
  H26      1.0000 0.22790  0.01080  0.29780  Biso   1.000  H
  C75      1.0000 0.64930  0.17490  0.50440  Biso   1.000  C
  C76      1.0000 0.34590  0.22370  0.52810  Biso   1.000  C
  C77      1.0000 0.92050  0.01180  0.18570  Biso   1.000  C
  H27      1.0000 0.94970  0.01490  0.14750  Biso   1.000  H
  C78      1.0000 0.16040  0.04850  0.41090  Biso   1.000  C
  C79      1.0000 0.29330  0.16330  0.52210  Biso   1.000  C
  C80      1.0000 0.46810  0.26460  0.53060  Biso   1.000  C
  C81      1.0000 0.59370  0.30620  0.50680  Biso   1.000  C
  H28      1.0000 0.57490  0.35080  0.50540  Biso   1.000  H
  C82      1.0000 0.66380  0.29880  0.49550  Biso   1.000  C
  C83      1.0000 0.81430  0.01580  0.10580  Biso   1.000  C
  C84      1.0000 0.41940  0.21170  0.52250  Biso   1.000  C
  H29      1.0000 0.43560  0.16710  0.51320  Biso   1.000  H
  C85      1.0000 0.05840  0.03170  0.32600  Biso   1.000  C
  H30      1.0000 0.02720  0.04570  0.36000  Biso   1.000  H
  C86      1.0000 0.84560  0.01010  0.17560  Biso   1.000  C
  C87      1.0000 0.69220  0.23120  0.49500  Biso   1.000  C
  H31      1.0000 0.74080  0.22480  0.48810  Biso   1.000  H
  C88      1.0000 0.95160  0.00900  0.25130  Biso   1.000  C
  C89      1.0000 0.20390  0.97980  0.16580  Biso   1.000  C
  C90      1.0000 0.32110  0.29000  0.53950  Biso   1.000  C
  H32      1.0000 0.27220  0.29860  0.54050  Biso   1.000  H
  C91      1.0000 0.07910  0.99530  0.21170  Biso   1.000  C
  H33      1.0000 0.06110  0.98320  0.16840  Biso   1.000  H
  C92      1.0000 0.57820  0.18530  0.51780  Biso   1.000  C
  H34      1.0000 0.54920  0.14690  0.52540  Biso   1.000  H
  C93      1.0000 0.44300  0.33140  0.54650  Biso   1.000  C
  H35      1.0000 0.47540  0.36710  0.55480  Biso   1.000  H
  C94      1.0000 0.67830  0.10380  0.49790  Biso   1.000  C
  C95      1.0000 0.34050  0.41600  0.56270  Biso   1.000  C
  C96      1.0000 0.80340  0.00220  0.23450  Biso   1.000  C
  H36      1.0000 0.75390  0.00270  0.22940  Biso   1.000  H
  O49      1.0000 0.18070  0.46180  0.08200  Biso   1.000  O
  O50      1.0000 0.27630  0.49810  0.14210  Biso   1.000  O
  C97      1.0000 0.21240  0.48380  0.14080  Biso   1.000  C
  C98      1.0000 0.16740  0.49400  0.20210  Biso   1.000  C
  C99      1.0000 0.09280  0.49580  0.19170  Biso   1.000  C
  H37      1.0000 0.07290  0.48850  0.14800  Biso   1.000  H
  Fe13     1.0000 0.72948  0.51409  0.97907  Biso   1.000  Fe
  Fe14     1.0000 0.22984  0.97724  0.01696  Biso   1.000  Fe
  Fe15     1.0000 0.86962  0.63337  0.95568  Biso   1.000  Fe
  Fe16     1.0000 0.36756  0.94418  0.13798  Biso   1.000  Fe
  O51      1.0000 0.77860  0.52760  0.07140  Biso   1.000  O
  O52      1.0000 0.73100  0.47310  0.31970  Biso   1.000  O
  O53      1.0000 0.82430  0.47700  0.39400  Biso   1.000  O
  O54      1.0000 0.32010  0.91540  0.03810  Biso   1.000  O
  O55      1.0000 0.22440  0.85770  0.00210  Biso   1.000  O
  O56      1.0000 0.77040  0.67900  0.97950  Biso   1.000  O
  O57      1.0000 0.14520  0.50900  0.44540  Biso   1.000  O
  O58      1.0000 0.71850  0.93010  0.96030  Biso   1.000  O
  O59      1.0000 0.25780  0.59700  0.02130  Biso   1.000  O
  O60      1.0000 0.67750  0.60460  0.97950  Biso   1.000  O
  O61      1.0000 0.25220  0.52260  0.40280  Biso   1.000  O
  O62      1.0000 0.61710  0.95680  0.90370  Biso   1.000  O
  O63      1.0000 0.88070  0.58590  0.05170  Biso   1.000  O
  O64      1.0000 0.36070  0.55160  0.99030  Biso   1.000  O
  C100     1.0000 0.29060  0.85920  0.01550  Biso   1.000  C
  C101     1.0000 0.45260  0.75250  0.97960  Biso   1.000  C
  C102     1.0000 0.86690  0.52970  0.15940  Biso   1.000  C
  C103     1.0000 0.96770  0.51330  0.23710  Biso   1.000  C
  C104     1.0000 0.84760  0.49480  0.27660  Biso   1.000  C
  C105     1.0000 0.63030  0.84430  0.95030  Biso   1.000  C
  C106     1.0000 0.82120  0.51170  0.21100  Biso   1.000  C
  H38      1.0000 0.77210  0.51080  0.20220  Biso   1.000  H
  C107     1.0000 0.35070  0.67490  0.99560  Biso   1.000  C
  C108     1.0000 0.65410  0.72370  0.97190  Biso   1.000  C
  C109     1.0000 0.07950  0.51180  0.31430  Biso   1.000  C
  H39      1.0000 0.05030  0.51490  0.35250  Biso   1.000  H
  C110     1.0000 0.83960  0.54850  0.08910  Biso   1.000  C
  C111     1.0000 0.70670  0.66330  0.97790  Biso   1.000  C
  C112     1.0000 0.53190  0.76460  0.96940  Biso   1.000  C
  C113     1.0000 0.40630  0.80620  0.99320  Biso   1.000  C
  H40      1.0000 0.42510  0.85080  0.99460  Biso   1.000  H
  C114     1.0000 0.33620  0.79880  0.00450  Biso   1.000  C
  C115     1.0000 0.18570  0.51580  0.39420  Biso   1.000  C
  C116     1.0000 0.58060  0.71170  0.97750  Biso   1.000  C
  H41      1.0000 0.56440  0.66710  0.98680  Biso   1.000  H
  C117     1.0000 0.94160  0.53170  0.17400  Biso   1.000  C
  H42      1.0000 0.97280  0.54570  0.14000  Biso   1.000  H
  C118     1.0000 0.15440  0.51010  0.32440  Biso   1.000  C
  C119     1.0000 0.30780  0.73120  0.00500  Biso   1.000  C
  H43      1.0000 0.25920  0.72480  0.01190  Biso   1.000  H
  C120     1.0000 0.04840  0.50900  0.24870  Biso   1.000  C
  C121     1.0000 0.79610  0.47980  0.33420  Biso   1.000  C
  C122     1.0000 0.67890  0.79000  0.96050  Biso   1.000  C
  H44      1.0000 0.72780  0.79860  0.95950  Biso   1.000  H
  C123     1.0000 0.92090  0.49530  0.28830  Biso   1.000  C
  H45      1.0000 0.93890  0.48320  0.33160  Biso   1.000  H
  C124     1.0000 0.42180  0.68530  0.98220  Biso   1.000  C
  H46      1.0000 0.45080  0.64690  0.97460  Biso   1.000  H
  C125     1.0000 0.55700  0.83140  0.95350  Biso   1.000  C
  H47      1.0000 0.52460  0.86710  0.94520  Biso   1.000  H
  C126     1.0000 0.32170  0.60380  0.00210  Biso   1.000  C
  C127     1.0000 0.65950  0.91600  0.93730  Biso   1.000  C
  C128     1.0000 0.19660  0.50220  0.26550  Biso   1.000  C
  H48      1.0000 0.24610  0.50270  0.27060  Biso   1.000  H
