data_image0
_cell_length_a       13.543
_cell_length_b       19.3401
_cell_length_c       23.223
_cell_angle_alpha    90
_cell_angle_beta     123.452
_cell_angle_gamma    90

_symmetry_space_group_name_H-M    "P 1"
_symmetry_int_tables_number       1

loop_
  _symmetry_equiv_pos_as_xyz
  'x, y, z'

loop_
  _atom_site_label
  _atom_site_occupancy
  _atom_site_fract_x
  _atom_site_fract_y
  _atom_site_fract_z
  _atom_site_thermal_displace_type
  _atom_site_B_iso_or_equiv
  _atom_site_type_symbol
  Fe1      1.0000 0.60984  0.23067  0.26542  Biso   1.000  Fe
  O1       1.0000 0.93200  0.65090  0.19220  Biso   1.000  O
  O2       1.0000 0.10760  0.60620  0.25360  Biso   1.000  O
  C1       1.0000 0.00200  0.60200  0.22710  Biso   1.000  C
  Fe2      1.0000 0.12897  0.23704  0.28948  Biso   1.000  Fe
  C2       1.0000 0.09500  0.22950  0.14880  Biso   1.000  C
  O3       1.0000 0.24250  0.25100  0.90150  Biso   1.000  O
  O4       1.0000 0.49140  0.25490  0.15330  Biso   1.000  O
  O5       1.0000 0.31780  0.26670  0.84180  Biso   1.000  O
  O6       1.0000 0.97570  0.29510  0.26620  Biso   1.000  O
  O7       1.0000 0.68030  0.25040  0.20510  Biso   1.000  O
  O8       1.0000 0.11510  0.34840  0.26770  Biso   1.000  O
  O9       1.0000 0.51900  0.67190  0.22700  Biso   1.000  O
  C3       1.0000 0.87190  0.26330  0.96340  Biso   1.000  C
  C4       1.0000 0.88060  0.24200  0.08020  Biso   1.000  C
  H1       1.0000 0.88410  0.23340  0.12070  Biso   1.000  H
  C5       1.0000 0.55950  0.43040  0.26770  Biso   1.000  C
  C6       1.0000 0.00470  0.47540  0.24330  Biso   1.000  C
  H2       1.0000 0.07310  0.47310  0.24310  Biso   1.000  H
  O10      1.0000 0.57390  0.31370  0.29810  Biso   1.000  O
  C7       1.0000 0.76880  0.26530  0.96210  Biso   1.000  C
  H3       1.0000 0.69680  0.27380  0.92090  Biso   1.000  H
  C8       1.0000 0.98080  0.24120  0.08290  Biso   1.000  C
  O11      1.0000 0.96300  0.27510  0.90250  Biso   1.000  O
  O12      1.0000 0.41700  0.62170  0.26010  Biso   1.000  O
  O13      1.0000 0.77370  0.28450  0.84490  Biso   1.000  O
  C9       1.0000 0.58050  0.25600  0.15160  Biso   1.000  C
  C10      1.0000 0.33160  0.25780  0.89800  Biso   1.000  C
  C11      1.0000 0.80420  0.48250  0.24570  Biso   1.000  C
  C12      1.0000 0.86090  0.42090  0.25280  Biso   1.000  C
  H4       1.0000 0.83030  0.38050  0.25880  Biso   1.000  H
  C13      1.0000 0.95860  0.41650  0.25140  Biso   1.000  C
  C14      1.0000 0.95220  0.53750  0.23560  Biso   1.000  C
  C15      1.0000 0.70100  0.48660  0.25130  Biso   1.000  C
  C16      1.0000 0.97850  0.25140  0.02390  Biso   1.000  C
  H5       1.0000 0.04800  0.25020  0.02480  Biso   1.000  H
  C17      1.0000 0.46200  0.25820  0.02450  Biso   1.000  C
  H6       1.0000 0.39450  0.25730  0.02580  Biso   1.000  H
  C18      1.0000 0.56950  0.25970  0.08430  Biso   1.000  C
  C19      1.0000 0.64570  0.54750  0.24530  Biso   1.000  C
  H7       1.0000 0.67350  0.58770  0.23690  Biso   1.000  H
  C20      1.0000 0.45000  0.25780  0.96220  Biso   1.000  C
  C21      1.0000 0.65640  0.42860  0.26200  Biso   1.000  C
  H8       1.0000 0.69200  0.38620  0.26570  Biso   1.000  H
  O14      1.0000 0.18780  0.24350  0.15320  Biso   1.000  O
  C22      1.0000 0.02030  0.35130  0.26220  Biso   1.000  C
  C23      1.0000 0.85130  0.54020  0.23600  Biso   1.000  C
  H9       1.0000 0.81390  0.58250  0.22940  Biso   1.000  H
  C24      1.0000 0.49290  0.61920  0.24670  Biso   1.000  C
  C25      1.0000 0.55090  0.55170  0.25120  Biso   1.000  C
  O15      1.0000 0.09270  0.20680  0.19830  Biso   1.000  O
  C26      1.0000 0.66840  0.25940  0.08180  Biso   1.000  C
  H10      1.0000 0.74240  0.26070  0.12310  Biso   1.000  H
  C27      1.0000 0.50660  0.49320  0.26240  Biso   1.000  C
  H11      1.0000 0.44200  0.49580  0.26630  Biso   1.000  H
  O16      1.0000 0.41280  0.36820  0.26870  Biso   1.000  O
  C28      1.0000 0.50990  0.36560  0.27820  Biso   1.000  C
  C29      1.0000 0.77250  0.25470  0.02150  Biso   1.000  C
  C30      1.0000 0.86970  0.27440  0.89980  Biso   1.000  C
  C31      1.0000 0.66290  0.25730  0.02180  Biso   1.000  C
  C32      1.0000 0.55010  0.25610  0.96080  Biso   1.000  C
  H12      1.0000 0.54270  0.25390  0.91860  Biso   1.000  H
  Na1      1.0000 0.87190  0.21381  0.28198  Biso   1.000  Na
  Na2      1.0000 0.35350  0.25600  0.26014  Biso   1.000  Na
  Na3      1.0000 0.84870  0.65999  0.05722  Biso   1.000  Na
  Fe3      1.0000 0.39016  0.73067  0.23458  Biso   1.000  Fe
  O17      1.0000 0.06800  0.15090  0.30780  Biso   1.000  O
  O18      1.0000 0.89240  0.10620  0.24640  Biso   1.000  O
  C33      1.0000 0.99800  0.10200  0.27290  Biso   1.000  C
  Fe4      1.0000 0.87103  0.73704  0.21052  Biso   1.000  Fe
  C34      1.0000 0.90500  0.72950  0.35120  Biso   1.000  C
  O19      1.0000 0.75750  0.75100  0.59850  Biso   1.000  O
  O20      1.0000 0.50860  0.75490  0.34670  Biso   1.000  O
  O21      1.0000 0.68220  0.76670  0.65820  Biso   1.000  O
  O22      1.0000 0.02430  0.79510  0.23380  Biso   1.000  O
  O23      1.0000 0.31970  0.75040  0.29490  Biso   1.000  O
  O24      1.0000 0.88490  0.84840  0.23230  Biso   1.000  O
  O25      1.0000 0.48100  0.17190  0.27300  Biso   1.000  O
  C35      1.0000 0.12810  0.76330  0.53660  Biso   1.000  C
  C36      1.0000 0.11940  0.74200  0.41980  Biso   1.000  C
  H13      1.0000 0.11590  0.73340  0.37930  Biso   1.000  H
  C37      1.0000 0.44050  0.93040  0.23230  Biso   1.000  C
  C38      1.0000 0.99530  0.97540  0.25670  Biso   1.000  C
  H14      1.0000 0.92690  0.97310  0.25690  Biso   1.000  H
  O26      1.0000 0.42610  0.81370  0.20190  Biso   1.000  O
  C39      1.0000 0.23120  0.76530  0.53790  Biso   1.000  C
  H15      1.0000 0.30320  0.77380  0.57910  Biso   1.000  H
  C40      1.0000 0.01920  0.74120  0.41710  Biso   1.000  C
  O27      1.0000 0.03700  0.77510  0.59750  Biso   1.000  O
  O28      1.0000 0.58300  0.12170  0.23990  Biso   1.000  O
  O29      1.0000 0.22630  0.78450  0.65510  Biso   1.000  O
  C41      1.0000 0.41950  0.75600  0.34840  Biso   1.000  C
  C42      1.0000 0.66840  0.75780  0.60200  Biso   1.000  C
  C43      1.0000 0.19580  0.98250  0.25430  Biso   1.000  C
  C44      1.0000 0.13910  0.92090  0.24720  Biso   1.000  C
  H16      1.0000 0.16970  0.88050  0.24120  Biso   1.000  H
  C45      1.0000 0.04140  0.91650  0.24860  Biso   1.000  C
  C46      1.0000 0.04780  0.03750  0.26440  Biso   1.000  C
  C47      1.0000 0.29900  0.98660  0.24870  Biso   1.000  C
  C48      1.0000 0.02150  0.75140  0.47610  Biso   1.000  C
  H17      1.0000 0.95200  0.75020  0.47520  Biso   1.000  H
  C49      1.0000 0.53800  0.75820  0.47550  Biso   1.000  C
  H18      1.0000 0.60550  0.75730  0.47420  Biso   1.000  H
  C50      1.0000 0.43050  0.75970  0.41570  Biso   1.000  C
  C51      1.0000 0.35430  0.04750  0.25470  Biso   1.000  C
  H19      1.0000 0.32650  0.08770  0.26310  Biso   1.000  H
  C52      1.0000 0.55000  0.75780  0.53780  Biso   1.000  C
  C53      1.0000 0.34360  0.92860  0.23800  Biso   1.000  C
  H20      1.0000 0.30800  0.88620  0.23430  Biso   1.000  H
  O30      1.0000 0.81220  0.74350  0.34680  Biso   1.000  O
  C54      1.0000 0.97970  0.85130  0.23780  Biso   1.000  C
  C55      1.0000 0.14870  0.04020  0.26400  Biso   1.000  C
  H21      1.0000 0.18610  0.08250  0.27060  Biso   1.000  H
  C56      1.0000 0.50710  0.11920  0.25330  Biso   1.000  C
  C57      1.0000 0.44910  0.05170  0.24880  Biso   1.000  C
  O31      1.0000 0.90730  0.70680  0.30170  Biso   1.000  O
  C58      1.0000 0.33160  0.75940  0.41820  Biso   1.000  C
  H22      1.0000 0.25760  0.76070  0.37690  Biso   1.000  H
  C59      1.0000 0.49340  0.99320  0.23760  Biso   1.000  C
  H23      1.0000 0.55800  0.99580  0.23370  Biso   1.000  H
  O32      1.0000 0.58720  0.86820  0.23130  Biso   1.000  O
  C60      1.0000 0.49010  0.86560  0.22180  Biso   1.000  C
  C61      1.0000 0.22750  0.75470  0.47850  Biso   1.000  C
  C62      1.0000 0.13030  0.77440  0.60020  Biso   1.000  C
  C63      1.0000 0.33710  0.75730  0.47820  Biso   1.000  C
  C64      1.0000 0.44990  0.75610  0.53920  Biso   1.000  C
  H24      1.0000 0.45730  0.75390  0.58140  Biso   1.000  H
  Na4      1.0000 0.12810  0.71381  0.21802  Biso   1.000  Na
  Na5      1.0000 0.64650  0.75600  0.23986  Biso   1.000  Na
  Na6      1.0000 0.15130  0.15999  0.44278  Biso   1.000  Na
  Fe5      1.0000 0.39016  0.76933  0.73458  Biso   1.000  Fe
  O33      1.0000 0.06800  0.34910  0.80780  Biso   1.000  O
  O34      1.0000 0.89240  0.39380  0.74640  Biso   1.000  O
  C65      1.0000 0.99800  0.39800  0.77290  Biso   1.000  C
  Fe6      1.0000 0.87103  0.76296  0.71052  Biso   1.000  Fe
  C66      1.0000 0.90500  0.77050  0.85120  Biso   1.000  C
  O35      1.0000 0.75750  0.74900  0.09850  Biso   1.000  O
  O36      1.0000 0.50860  0.74510  0.84670  Biso   1.000  O
  O37      1.0000 0.68220  0.73330  0.15820  Biso   1.000  O
  O38      1.0000 0.02430  0.70490  0.73380  Biso   1.000  O
  O39      1.0000 0.31970  0.74960  0.79490  Biso   1.000  O
  O40      1.0000 0.88490  0.65160  0.73230  Biso   1.000  O
  O41      1.0000 0.48100  0.32810  0.77300  Biso   1.000  O
  C67      1.0000 0.12810  0.73670  0.03660  Biso   1.000  C
  C68      1.0000 0.11940  0.75800  0.91980  Biso   1.000  C
  H25      1.0000 0.11590  0.76660  0.87930  Biso   1.000  H
  C69      1.0000 0.44050  0.56960  0.73230  Biso   1.000  C
  C70      1.0000 0.99530  0.52460  0.75670  Biso   1.000  C
  H26      1.0000 0.92690  0.52690  0.75690  Biso   1.000  H
  O42      1.0000 0.42610  0.68630  0.70190  Biso   1.000  O
  C71      1.0000 0.23120  0.73470  0.03790  Biso   1.000  C
  H27      1.0000 0.30320  0.72620  0.07910  Biso   1.000  H
  C72      1.0000 0.01920  0.75880  0.91710  Biso   1.000  C
  O43      1.0000 0.03700  0.72490  0.09750  Biso   1.000  O
  O44      1.0000 0.58300  0.37830  0.73990  Biso   1.000  O
  O45      1.0000 0.22630  0.71550  0.15510  Biso   1.000  O
  C73      1.0000 0.41950  0.74400  0.84840  Biso   1.000  C
  C74      1.0000 0.66840  0.74220  0.10200  Biso   1.000  C
  C75      1.0000 0.19580  0.51750  0.75430  Biso   1.000  C
  C76      1.0000 0.13910  0.57910  0.74720  Biso   1.000  C
  H28      1.0000 0.16970  0.61950  0.74120  Biso   1.000  H
  C77      1.0000 0.04140  0.58350  0.74860  Biso   1.000  C
  C78      1.0000 0.04780  0.46250  0.76440  Biso   1.000  C
  C79      1.0000 0.29900  0.51340  0.74870  Biso   1.000  C
  C80      1.0000 0.02150  0.74860  0.97610  Biso   1.000  C
  H29      1.0000 0.95200  0.74980  0.97520  Biso   1.000  H
  C81      1.0000 0.53800  0.74180  0.97550  Biso   1.000  C
  H30      1.0000 0.60550  0.74270  0.97420  Biso   1.000  H
  C82      1.0000 0.43050  0.74030  0.91570  Biso   1.000  C
  C83      1.0000 0.35430  0.45250  0.75470  Biso   1.000  C
  H31      1.0000 0.32650  0.41230  0.76310  Biso   1.000  H
  C84      1.0000 0.55000  0.74220  0.03780  Biso   1.000  C
  C85      1.0000 0.34360  0.57140  0.73800  Biso   1.000  C
  H32      1.0000 0.30800  0.61380  0.73430  Biso   1.000  H
  O46      1.0000 0.81220  0.75650  0.84680  Biso   1.000  O
  C86      1.0000 0.97970  0.64870  0.73780  Biso   1.000  C
  C87      1.0000 0.14870  0.45980  0.76400  Biso   1.000  C
  H33      1.0000 0.18610  0.41750  0.77060  Biso   1.000  H
  C88      1.0000 0.50710  0.38080  0.75330  Biso   1.000  C
  C89      1.0000 0.44910  0.44830  0.74880  Biso   1.000  C
  O47      1.0000 0.90730  0.79320  0.80170  Biso   1.000  O
  C90      1.0000 0.33160  0.74060  0.91820  Biso   1.000  C
  H34      1.0000 0.25760  0.73930  0.87690  Biso   1.000  H
  C91      1.0000 0.49340  0.50680  0.73760  Biso   1.000  C
  H35      1.0000 0.55800  0.50420  0.73370  Biso   1.000  H
  O48      1.0000 0.58720  0.63180  0.73130  Biso   1.000  O
  C92      1.0000 0.49010  0.63440  0.72180  Biso   1.000  C
  C93      1.0000 0.22750  0.74530  0.97850  Biso   1.000  C
  C94      1.0000 0.13030  0.72560  0.10020  Biso   1.000  C
  C95      1.0000 0.33710  0.74270  0.97820  Biso   1.000  C
  C96      1.0000 0.44990  0.74390  0.03920  Biso   1.000  C
  H36      1.0000 0.45730  0.74610  0.08140  Biso   1.000  H
  Na7      1.0000 0.12810  0.78619  0.71802  Biso   1.000  Na
  Na8      1.0000 0.64650  0.74400  0.73986  Biso   1.000  Na
  Na9      1.0000 0.15130  0.34001  0.94278  Biso   1.000  Na
  Fe7      1.0000 0.60984  0.26933  0.76542  Biso   1.000  Fe
  O49      1.0000 0.93200  0.84910  0.69220  Biso   1.000  O
  O50      1.0000 0.10760  0.89380  0.75360  Biso   1.000  O
  C97      1.0000 0.00200  0.89800  0.72710  Biso   1.000  C
  Fe8      1.0000 0.12897  0.26296  0.78948  Biso   1.000  Fe
  C98      1.0000 0.09500  0.27050  0.64880  Biso   1.000  C
  O51      1.0000 0.24250  0.24900  0.40150  Biso   1.000  O
  O52      1.0000 0.49140  0.24510  0.65330  Biso   1.000  O
  O53      1.0000 0.31780  0.23330  0.34180  Biso   1.000  O
  O54      1.0000 0.97570  0.20490  0.76620  Biso   1.000  O
  O55      1.0000 0.68030  0.24960  0.70510  Biso   1.000  O
  O56      1.0000 0.11510  0.15160  0.76770  Biso   1.000  O
  O57      1.0000 0.51900  0.82810  0.72700  Biso   1.000  O
  C99      1.0000 0.87190  0.23670  0.46340  Biso   1.000  C
  C100     1.0000 0.88060  0.25800  0.58020  Biso   1.000  C
  H37      1.0000 0.88410  0.26660  0.62070  Biso   1.000  H
  C101     1.0000 0.55950  0.06960  0.76770  Biso   1.000  C
  C102     1.0000 0.00470  0.02460  0.74330  Biso   1.000  C
  H38      1.0000 0.07310  0.02690  0.74310  Biso   1.000  H
  O58      1.0000 0.57390  0.18630  0.79810  Biso   1.000  O
  C103     1.0000 0.76880  0.23470  0.46210  Biso   1.000  C
  H39      1.0000 0.69680  0.22620  0.42090  Biso   1.000  H
  C104     1.0000 0.98080  0.25880  0.58290  Biso   1.000  C
  O59      1.0000 0.96300  0.22490  0.40250  Biso   1.000  O
  O60      1.0000 0.41700  0.87830  0.76010  Biso   1.000  O
  O61      1.0000 0.77370  0.21550  0.34490  Biso   1.000  O
  C105     1.0000 0.58050  0.24400  0.65160  Biso   1.000  C
  C106     1.0000 0.33160  0.24220  0.39800  Biso   1.000  C
  C107     1.0000 0.80420  0.01750  0.74570  Biso   1.000  C
  C108     1.0000 0.86090  0.07910  0.75280  Biso   1.000  C
  H40      1.0000 0.83030  0.11950  0.75880  Biso   1.000  H
  C109     1.0000 0.95860  0.08350  0.75140  Biso   1.000  C
  C110     1.0000 0.95220  0.96250  0.73560  Biso   1.000  C
  C111     1.0000 0.70100  0.01340  0.75130  Biso   1.000  C
  C112     1.0000 0.97850  0.24860  0.52390  Biso   1.000  C
  H41      1.0000 0.04800  0.24980  0.52480  Biso   1.000  H
  C113     1.0000 0.46200  0.24180  0.52450  Biso   1.000  C
  H42      1.0000 0.39450  0.24270  0.52580  Biso   1.000  H
  C114     1.0000 0.56950  0.24030  0.58430  Biso   1.000  C
  C115     1.0000 0.64570  0.95250  0.74530  Biso   1.000  C
  H43      1.0000 0.67350  0.91230  0.73690  Biso   1.000  H
  C116     1.0000 0.45000  0.24220  0.46220  Biso   1.000  C
  C117     1.0000 0.65640  0.07140  0.76200  Biso   1.000  C
  H44      1.0000 0.69200  0.11380  0.76570  Biso   1.000  H
  O62      1.0000 0.18780  0.25650  0.65320  Biso   1.000  O
  C118     1.0000 0.02030  0.14870  0.76220  Biso   1.000  C
  C119     1.0000 0.85130  0.95980  0.73600  Biso   1.000  C
  H45      1.0000 0.81390  0.91750  0.72940  Biso   1.000  H
  C120     1.0000 0.49290  0.88080  0.74670  Biso   1.000  C
  C121     1.0000 0.55090  0.94830  0.75120  Biso   1.000  C
  O63      1.0000 0.09270  0.29320  0.69830  Biso   1.000  O
  C122     1.0000 0.66840  0.24060  0.58180  Biso   1.000  C
  H46      1.0000 0.74240  0.23930  0.62310  Biso   1.000  H
  C123     1.0000 0.50660  0.00680  0.76240  Biso   1.000  C
  H47      1.0000 0.44200  0.00420  0.76630  Biso   1.000  H
  O64      1.0000 0.41280  0.13180  0.76870  Biso   1.000  O
  C124     1.0000 0.50990  0.13440  0.77820  Biso   1.000  C
  C125     1.0000 0.77250  0.24530  0.52150  Biso   1.000  C
  C126     1.0000 0.86970  0.22560  0.39980  Biso   1.000  C
  C127     1.0000 0.66290  0.24270  0.52180  Biso   1.000  C
  C128     1.0000 0.55010  0.24390  0.46080  Biso   1.000  C
  H48      1.0000 0.54270  0.24610  0.41860  Biso   1.000  H
  Na10     1.0000 0.87190  0.28619  0.78198  Biso   1.000  Na
  Na11     1.0000 0.35350  0.24400  0.76014  Biso   1.000  Na
  Na12     1.0000 0.84870  0.84001  0.55722  Biso   1.000  Na
