data_SAKDEP_clean
_audit_creation_date              2014-07-02
_audit_creation_method            'Materials Studio'
_symmetry_space_group_name_H-M    'P1'
_symmetry_Int_Tables_number       1
_symmetry_cell_setting            triclinic
loop_
_symmetry_equiv_pos_as_xyz
  x,y,z
_cell_length_a                    19.3307
_cell_length_b                    19.3307
_cell_length_c                    19.4810
_cell_angle_alpha                 119.7450
_cell_angle_beta                  119.7450
_cell_angle_gamma                 90.0001
loop_
_atom_site_label
_atom_site_type_symbol
_atom_site_fract_x
_atom_site_fract_y
_atom_site_fract_z
_atom_site_U_iso_or_equiv
_atom_site_adp_type
_atom_site_occupancy
Fe1    Fe    0.72045   0.72045   0.44090   0.01267  Uiso   1.00
Fe2    Fe    0.27955   0.27955   0.55910   0.01267  Uiso   1.00
Fe3    Fe    0.52955   0.02955   0.05910   0.01267  Uiso   1.00
Fe4    Fe    0.97045   0.47045   0.94090   0.01267  Uiso   1.00
Fe5    Fe    0.92024   0.87500   0.25000   0.01267  Uiso   1.00
Fe6    Fe    0.32976   0.37500   0.25000   0.01267  Uiso   1.00
Fe7    Fe    0.12500   0.67024   0.75000   0.01267  Uiso   1.00
Fe8    Fe    0.62500   0.07976   0.75000   0.01267  Uiso   1.00
H1     H     0.83900   0.88270   0.99500   0.01267  Uiso   1.00
H2     H     0.72500   0.77660   0.84160   0.01267  Uiso   1.00
H3     H     0.62950   0.67960   0.81840   0.01267  Uiso   1.00
H4     H     0.65360   0.68640   0.95020   0.01267  Uiso   1.00
H5     H     0.65960   0.75940   0.08280   0.01267  Uiso   1.00
H6     H     0.59480   0.74010   0.15320   0.01267  Uiso   1.00
H7     H     0.60240   0.71800   0.26320   0.01267  Uiso   1.00
H8     H     0.84030   0.73640   0.37700   0.01267  Uiso   1.00
H9     H     0.84230   0.75850   0.27260   0.01267  Uiso   1.00
H10    H     0.83950   0.51500   0.42960   0.01267  Uiso   1.00
H11    H     0.83170   0.44560   0.49480   0.01267  Uiso   1.00
H12    H     0.78570   0.49860   0.59900   0.01267  Uiso   1.00
H13    H     0.73070   0.60750   0.61440   0.01267  Uiso   1.00
H14    H     0.65440   0.68090   0.58480   0.01267  Uiso   1.00
H15    H     0.54270   0.75900   0.56920   0.01267  Uiso   1.00
H16    H     0.52380   0.88920   0.62100   0.01267  Uiso   1.00
H17    H     0.74710   0.99470   0.70320   0.01267  Uiso   1.00
H18    H     0.77410   0.86880   0.65460   0.01267  Uiso   1.00
H19    H     0.15600   0.11230   0.99500   0.01267  Uiso   1.00
H20    H     0.11660   0.06500   0.84160   0.01267  Uiso   1.00
H21    H     0.18890   0.13880   0.81840   0.01267  Uiso   1.00
H22    H     0.29660   0.26380   0.95020   0.01267  Uiso   1.00
H23    H     0.42320   0.32340   0.08280   0.01267  Uiso   1.00
H24    H     0.55840   0.41310   0.15320   0.01267  Uiso   1.00
H25    H     0.66080   0.54520   0.26320   0.01267  Uiso   1.00
H26    H     0.53670   0.64060   0.37700   0.01267  Uiso   1.00
H27    H     0.43030   0.51410   0.27260   0.01267  Uiso   1.00
H28    H     0.59010   0.91460   0.42960   0.01267  Uiso   1.00
H29    H     0.66310   0.04920   0.49480   0.01267  Uiso   1.00
H30    H     0.81330   0.10040   0.59900   0.01267  Uiso   1.00
H31    H     0.88370   0.00690   0.61440   0.01267  Uiso   1.00
H32    H     0.93040   0.90390   0.58480   0.01267  Uiso   1.00
H33    H     0.02650   0.81020   0.56920   0.01267  Uiso   1.00
H34    H     0.09720   0.73180   0.62100   0.01267  Uiso   1.00
H35    H     0.95610   0.70850   0.70320   0.01267  Uiso   1.00
H36    H     0.88050   0.78580   0.65460   0.01267  Uiso   1.00
H37    H     0.11730   0.84400   0.00500   0.01267  Uiso   1.00
H38    H     0.22340   0.88340   0.15840   0.01267  Uiso   1.00
H39    H     0.32040   0.81110   0.18160   0.01267  Uiso   1.00
H40    H     0.31360   0.70340   0.04980   0.01267  Uiso   1.00
H41    H     0.24060   0.57680   0.91720   0.01267  Uiso   1.00
H42    H     0.25990   0.44160   0.84680   0.01267  Uiso   1.00
H43    H     0.28200   0.33920   0.73680   0.01267  Uiso   1.00
H44    H     0.26360   0.46330   0.62300   0.01267  Uiso   1.00
H45    H     0.24150   0.56970   0.72740   0.01267  Uiso   1.00
H46    H     0.48500   0.40990   0.57040   0.01267  Uiso   1.00
H47    H     0.55440   0.33690   0.50520   0.01267  Uiso   1.00
H48    H     0.50140   0.18670   0.40100   0.01267  Uiso   1.00
H49    H     0.39250   0.11630   0.38560   0.01267  Uiso   1.00
H50    H     0.31910   0.06960   0.41520   0.01267  Uiso   1.00
H51    H     0.24100   0.97350   0.43080   0.01267  Uiso   1.00
H52    H     0.11080   0.90280   0.37900   0.01267  Uiso   1.00
H53    H     0.00530   0.04390   0.29680   0.01267  Uiso   1.00
H54    H     0.13120   0.11950   0.34540   0.01267  Uiso   1.00
H55    H     0.88770   0.16100   0.00500   0.01267  Uiso   1.00
H56    H     0.93500   0.27500   0.15840   0.01267  Uiso   1.00
H57    H     0.86120   0.37050   0.18160   0.01267  Uiso   1.00
H58    H     0.73620   0.34640   0.04980   0.01267  Uiso   1.00
H59    H     0.67660   0.34040   0.91720   0.01267  Uiso   1.00
H60    H     0.58690   0.40520   0.84680   0.01267  Uiso   1.00
H61    H     0.45480   0.39760   0.73680   0.01267  Uiso   1.00
H62    H     0.35940   0.15970   0.62300   0.01267  Uiso   1.00
H63    H     0.48590   0.15770   0.72740   0.01267  Uiso   1.00
H64    H     0.08540   0.16050   0.57040   0.01267  Uiso   1.00
H65    H     0.95080   0.16830   0.50520   0.01267  Uiso   1.00
H66    H     0.89960   0.21430   0.40100   0.01267  Uiso   1.00
H67    H     0.99310   0.26930   0.38560   0.01267  Uiso   1.00
H68    H     0.09610   0.34560   0.41520   0.01267  Uiso   1.00
H69    H     0.18980   0.45730   0.43080   0.01267  Uiso   1.00
H70    H     0.26820   0.47620   0.37900   0.01267  Uiso   1.00
H71    H     0.29150   0.25290   0.29680   0.01267  Uiso   1.00
H72    H     0.21420   0.22590   0.34540   0.01267  Uiso   1.00
H73    H     0.09400   0.86730   0.50500   0.01267  Uiso   1.00
H74    H     0.13340   0.97340   0.65840   0.01267  Uiso   1.00
H75    H     0.06110   0.07040   0.68160   0.01267  Uiso   1.00
H76    H     0.95340   0.06360   0.54980   0.01267  Uiso   1.00
H77    H     0.82680   0.99060   0.41720   0.01267  Uiso   1.00
H78    H     0.69160   0.00990   0.34680   0.01267  Uiso   1.00
H79    H     0.58920   0.03200   0.23680   0.01267  Uiso   1.00
H80    H     0.71330   0.01360   0.12300   0.01267  Uiso   1.00
H81    H     0.81970   0.99150   0.22740   0.01267  Uiso   1.00
H82    H     0.65990   0.23500   0.07040   0.01267  Uiso   1.00
H83    H     0.58690   0.30440   0.00520   0.01267  Uiso   1.00
H84    H     0.43670   0.25140   0.90100   0.01267  Uiso   1.00
H85    H     0.36630   0.14250   0.88560   0.01267  Uiso   1.00
H86    H     0.31960   0.06910   0.91520   0.01267  Uiso   1.00
H87    H     0.22350   0.99100   0.93080   0.01267  Uiso   1.00
H88    H     0.15280   0.86080   0.87900   0.01267  Uiso   1.00
H89    H     0.29390   0.75530   0.79680   0.01267  Uiso   1.00
H90    H     0.36950   0.88120   0.84540   0.01267  Uiso   1.00
H91    H     0.41100   0.63770   0.50500   0.01267  Uiso   1.00
H92    H     0.52500   0.68500   0.65840   0.01267  Uiso   1.00
H93    H     0.62050   0.61120   0.68160   0.01267  Uiso   1.00
H94    H     0.59640   0.48620   0.54980   0.01267  Uiso   1.00
H95    H     0.59040   0.42660   0.41720   0.01267  Uiso   1.00
H96    H     0.65520   0.33690   0.34680   0.01267  Uiso   1.00
H97    H     0.64760   0.20480   0.23680   0.01267  Uiso   1.00
H98    H     0.40970   0.10940   0.12300   0.01267  Uiso   1.00
H99    H     0.40770   0.23590   0.22740   0.01267  Uiso   1.00
H100   H     0.41050   0.83540   0.07040   0.01267  Uiso   1.00
H101   H     0.41830   0.70080   0.00520   0.01267  Uiso   1.00
H102   H     0.46430   0.64960   0.90100   0.01267  Uiso   1.00
H103   H     0.51930   0.74310   0.88560   0.01267  Uiso   1.00
H104   H     0.59560   0.84610   0.91520   0.01267  Uiso   1.00
H105   H     0.70730   0.93980   0.93080   0.01267  Uiso   1.00
H106   H     0.72620   0.01820   0.87900   0.01267  Uiso   1.00
H107   H     0.50290   0.04150   0.79680   0.01267  Uiso   1.00
H108   H     0.47590   0.96420   0.84540   0.01267  Uiso   1.00
H109   H     0.36230   0.90600   0.49500   0.01267  Uiso   1.00
H110   H     0.31500   0.86660   0.34160   0.01267  Uiso   1.00
H111   H     0.38880   0.93890   0.31840   0.01267  Uiso   1.00
H112   H     0.51380   0.04660   0.45020   0.01267  Uiso   1.00
H113   H     0.57340   0.17320   0.58280   0.01267  Uiso   1.00
H114   H     0.66310   0.30840   0.65320   0.01267  Uiso   1.00
H115   H     0.79520   0.41080   0.76320   0.01267  Uiso   1.00
H116   H     0.89060   0.28670   0.87700   0.01267  Uiso   1.00
H117   H     0.76410   0.18030   0.77260   0.01267  Uiso   1.00
H118   H     0.16460   0.34010   0.92960   0.01267  Uiso   1.00
H119   H     0.29920   0.41310   0.99480   0.01267  Uiso   1.00
H120   H     0.35040   0.56330   0.09900   0.01267  Uiso   1.00
H121   H     0.25690   0.63370   0.11440   0.01267  Uiso   1.00
H122   H     0.15390   0.68040   0.08480   0.01267  Uiso   1.00
H123   H     0.06020   0.77650   0.06920   0.01267  Uiso   1.00
H124   H     0.98180   0.84720   0.12100   0.01267  Uiso   1.00
H125   H     0.95850   0.70610   0.20320   0.01267  Uiso   1.00
H126   H     0.03580   0.63050   0.15460   0.01267  Uiso   1.00
H127   H     0.13270   0.58900   0.49500   0.01267  Uiso   1.00
H128   H     0.02660   0.47500   0.34160   0.01267  Uiso   1.00
H129   H     0.92960   0.37950   0.31840   0.01267  Uiso   1.00
H130   H     0.93640   0.40360   0.45020   0.01267  Uiso   1.00
H131   H     0.00940   0.40960   0.58280   0.01267  Uiso   1.00
H132   H     0.99010   0.34480   0.65320   0.01267  Uiso   1.00
H133   H     0.96800   0.35240   0.76320   0.01267  Uiso   1.00
H134   H     0.98640   0.59030   0.87700   0.01267  Uiso   1.00
H135   H     0.00850   0.59230   0.77260   0.01267  Uiso   1.00
H136   H     0.76500   0.58950   0.92960   0.01267  Uiso   1.00
H137   H     0.69560   0.58170   0.99480   0.01267  Uiso   1.00
H138   H     0.74860   0.53570   0.09900   0.01267  Uiso   1.00
H139   H     0.85750   0.48070   0.11440   0.01267  Uiso   1.00
H140   H     0.93090   0.40440   0.08480   0.01267  Uiso   1.00
H141   H     0.00900   0.29270   0.06920   0.01267  Uiso   1.00
H142   H     0.13920   0.27380   0.12100   0.01267  Uiso   1.00
H143   H     0.24470   0.49710   0.20320   0.01267  Uiso   1.00
H144   H     0.11880   0.52410   0.15460   0.01267  Uiso   1.00
C1     C     0.81560   0.85010   0.06880   0.01267  Uiso   1.00
C2     C     0.80140   0.84340   0.98720   0.01267  Uiso   1.00
C3     C     0.73320   0.78010   0.89560   0.01267  Uiso   1.00
C4     C     0.67690   0.72200   0.88140   0.01267  Uiso   1.00
C5     C     0.69090   0.72720   0.95960   0.01267  Uiso   1.00
C6     C     0.75720   0.78930   0.05200   0.01267  Uiso   1.00
C7     C     0.71412   0.76912   0.13324   0.01267  Uiso   1.00
C8     C     0.71990   0.75520   0.20280   0.01267  Uiso   1.00
C9     C     0.64640   0.74020   0.19900   0.01267  Uiso   1.00
C10    C     0.65140   0.72570   0.26400   0.01267  Uiso   1.00
C11    C     0.78980   0.73640   0.33020   0.01267  Uiso   1.00
C12    C     0.79190   0.75110   0.26940   0.01267  Uiso   1.00
C13    C     0.78470   0.60130   0.47620   0.01267  Uiso   1.00
C14    C     0.81600   0.53360   0.46600   0.01267  Uiso   1.00
C15    C     0.81340   0.49350   0.50660   0.01267  Uiso   1.00
C16    C     0.78360   0.52320   0.56640   0.01267  Uiso   1.00
C17    C     0.75190   0.58800   0.57580   0.01267  Uiso   1.00
C18    C     0.74980   0.62660   0.53080   0.01267  Uiso   1.00
C19    C     0.67738   0.71858   0.57796   0.01267  Uiso   1.00
C20    C     0.66217   0.79907   0.60694   0.01267  Uiso   1.00
C21    C     0.58620   0.80670   0.59700   0.01267  Uiso   1.00
C22    C     0.57570   0.88500   0.62840   0.01267  Uiso   1.00
C23    C     0.70510   0.94590   0.67580   0.01267  Uiso   1.00
C24    C     0.72180   0.87100   0.64700   0.01267  Uiso   1.00
C25    C     0.25320   0.21870   0.06880   0.01267  Uiso   1.00
C26    C     0.18580   0.14380   0.98720   0.01267  Uiso   1.00
C27    C     0.16240   0.11550   0.89560   0.01267  Uiso   1.00
C28    C     0.20450   0.15940   0.88140   0.01267  Uiso   1.00
C29    C     0.26870   0.23240   0.95960   0.01267  Uiso   1.00
C30    C     0.29480   0.26270   0.05200   0.01267  Uiso   1.00
C31    C     0.41912   0.36412   0.13324   0.01267  Uiso   1.00
C32    C     0.48290   0.44760   0.20280   0.01267  Uiso   1.00
C33    C     0.55260   0.45880   0.19900   0.01267  Uiso   1.00
C34    C     0.61260   0.53830   0.26400   0.01267  Uiso   1.00
C35    C     0.54040   0.59380   0.33020   0.01267  Uiso   1.00
C36    C     0.47750   0.51830   0.26940   0.01267  Uiso   1.00
C37    C     0.69150   0.87490   0.47620   0.01267  Uiso   1.00
C38    C     0.65000   0.93240   0.46600   0.01267  Uiso   1.00
C39    C     0.69320   0.01310   0.50660   0.01267  Uiso   1.00
C40    C     0.78280   0.04320   0.56640   0.01267  Uiso   1.00
C41    C     0.82390   0.98780   0.57580   0.01267  Uiso   1.00
C42    C     0.78100   0.90420   0.53080   0.01267  Uiso   1.00
C43    C     0.90058   0.85938   0.57796   0.01267  Uiso   1.00
C44    C     0.94477   0.80787   0.60694   0.01267  Uiso   1.00
C45    C     0.01080   0.79030   0.59700   0.01267  Uiso   1.00
C46    C     0.05270   0.74340   0.62840   0.01267  Uiso   1.00
C47    C     0.97070   0.72990   0.67580   0.01267  Uiso   1.00
C48    C     0.92520   0.77600   0.64700   0.01267  Uiso   1.00
C49    C     0.14990   0.74680   0.93120   0.01267  Uiso   1.00
C50    C     0.15660   0.81420   0.01280   0.01267  Uiso   1.00
C51    C     0.21990   0.83760   0.10440   0.01267  Uiso   1.00
C52    C     0.27800   0.79550   0.11860   0.01267  Uiso   1.00
C53    C     0.27280   0.73130   0.04040   0.01267  Uiso   1.00
C54    C     0.21070   0.70520   0.94800   0.01267  Uiso   1.00
C55    C     0.23088   0.58088   0.86676   0.01267  Uiso   1.00
C56    C     0.24480   0.51710   0.79720   0.01267  Uiso   1.00
C57    C     0.25980   0.44740   0.80100   0.01267  Uiso   1.00
C58    C     0.27430   0.38740   0.73600   0.01267  Uiso   1.00
C59    C     0.26360   0.45960   0.66980   0.01267  Uiso   1.00
C60    C     0.24890   0.52250   0.73060   0.01267  Uiso   1.00
C61    C     0.39870   0.30850   0.52380   0.01267  Uiso   1.00
C62    C     0.46640   0.35000   0.53400   0.01267  Uiso   1.00
C63    C     0.50650   0.30680   0.49340   0.01267  Uiso   1.00
C64    C     0.47680   0.21720   0.43360   0.01267  Uiso   1.00
C65    C     0.41200   0.17610   0.42420   0.01267  Uiso   1.00
C66    C     0.37340   0.21900   0.46920   0.01267  Uiso   1.00
C67    C     0.28142   0.09942   0.42204   0.01267  Uiso   1.00
C68    C     0.20093   0.05523   0.39306   0.01267  Uiso   1.00
C69    C     0.19330   0.98920   0.40300   0.01267  Uiso   1.00
C70    C     0.11500   0.94730   0.37160   0.01267  Uiso   1.00
C71    C     0.05410   0.02930   0.32420   0.01267  Uiso   1.00
C72    C     0.12900   0.07480   0.35300   0.01267  Uiso   1.00
C73    C     0.78130   0.18440   0.93120   0.01267  Uiso   1.00
C74    C     0.85620   0.19860   0.01280   0.01267  Uiso   1.00
C75    C     0.88450   0.26680   0.10440   0.01267  Uiso   1.00
C76    C     0.84060   0.32310   0.11860   0.01267  Uiso   1.00
C77    C     0.76760   0.30910   0.04040   0.01267  Uiso   1.00
C78    C     0.73730   0.24280   0.94800   0.01267  Uiso   1.00
C79    C     0.63588   0.28588   0.86676   0.01267  Uiso   1.00
C80    C     0.55240   0.28010   0.79720   0.01267  Uiso   1.00
C81    C     0.54120   0.35360   0.80100   0.01267  Uiso   1.00
C82    C     0.46170   0.34860   0.73600   0.01267  Uiso   1.00
C83    C     0.40620   0.21020   0.66980   0.01267  Uiso   1.00
C84    C     0.48170   0.20810   0.73060   0.01267  Uiso   1.00
C85    C     0.12510   0.21530   0.52380   0.01267  Uiso   1.00
C86    C     0.06760   0.18400   0.53400   0.01267  Uiso   1.00
C87    C     0.98690   0.18660   0.49340   0.01267  Uiso   1.00
C88    C     0.95680   0.21640   0.43360   0.01267  Uiso   1.00
C89    C     0.01220   0.24810   0.42420   0.01267  Uiso   1.00
C90    C     0.09580   0.25020   0.46920   0.01267  Uiso   1.00
C91    C     0.14062   0.32262   0.42204   0.01267  Uiso   1.00
C92    C     0.19213   0.33783   0.39306   0.01267  Uiso   1.00
C93    C     0.20970   0.41380   0.40300   0.01267  Uiso   1.00
C94    C     0.25660   0.42430   0.37160   0.01267  Uiso   1.00
C95    C     0.27010   0.29490   0.32420   0.01267  Uiso   1.00
C96    C     0.22400   0.27820   0.35300   0.01267  Uiso   1.00
C97    C     0.99680   0.89990   0.43120   0.01267  Uiso   1.00
C98    C     0.06420   0.90660   0.51280   0.01267  Uiso   1.00
C99    C     0.08760   0.96990   0.60440   0.01267  Uiso   1.00
C100   C     0.04550   0.02800   0.61860   0.01267  Uiso   1.00
C101   C     0.98130   0.02280   0.54040   0.01267  Uiso   1.00
C102   C     0.95520   0.96070   0.44800   0.01267  Uiso   1.00
C103   C     0.83088   0.98088   0.36676   0.01267  Uiso   1.00
C104   C     0.76710   0.99480   0.29720   0.01267  Uiso   1.00
C105   C     0.69740   0.00980   0.30100   0.01267  Uiso   1.00
C106   C     0.63740   0.02430   0.23600   0.01267  Uiso   1.00
C107   C     0.70960   0.01360   0.16980   0.01267  Uiso   1.00
C108   C     0.77250   0.99890   0.23060   0.01267  Uiso   1.00
C109   C     0.55850   0.14870   0.02380   0.01267  Uiso   1.00
C110   C     0.60000   0.21640   0.03400   0.01267  Uiso   1.00
C111   C     0.55680   0.25650   0.99340   0.01267  Uiso   1.00
C112   C     0.46720   0.22680   0.93360   0.01267  Uiso   1.00
C113   C     0.42610   0.16200   0.92420   0.01267  Uiso   1.00
C114   C     0.46900   0.12340   0.96920   0.01267  Uiso   1.00
C115   C     0.34942   0.03142   0.92204   0.01267  Uiso   1.00
C116   C     0.30523   0.95093   0.89306   0.01267  Uiso   1.00
C117   C     0.23920   0.94330   0.90300   0.01267  Uiso   1.00
C118   C     0.19730   0.86500   0.87160   0.01267  Uiso   1.00
C119   C     0.27930   0.80410   0.82420   0.01267  Uiso   1.00
C120   C     0.32480   0.87900   0.85300   0.01267  Uiso   1.00
C121   C     0.43440   0.53130   0.43120   0.01267  Uiso   1.00
C122   C     0.44860   0.60620   0.51280   0.01267  Uiso   1.00
C123   C     0.51680   0.63450   0.60440   0.01267  Uiso   1.00
C124   C     0.57310   0.59060   0.61860   0.01267  Uiso   1.00
C125   C     0.55910   0.51760   0.54040   0.01267  Uiso   1.00
C126   C     0.49280   0.48730   0.44800   0.01267  Uiso   1.00
C127   C     0.53588   0.38588   0.36676   0.01267  Uiso   1.00
C128   C     0.53010   0.30240   0.29720   0.01267  Uiso   1.00
C129   C     0.60360   0.29120   0.30100   0.01267  Uiso   1.00
C130   C     0.59860   0.21170   0.23600   0.01267  Uiso   1.00
C131   C     0.46020   0.15620   0.16980   0.01267  Uiso   1.00
C132   C     0.45810   0.23170   0.23060   0.01267  Uiso   1.00
C133   C     0.46530   0.87510   0.02380   0.01267  Uiso   1.00
C134   C     0.43400   0.81760   0.03400   0.01267  Uiso   1.00
C135   C     0.43660   0.73690   0.99340   0.01267  Uiso   1.00
C136   C     0.46640   0.70680   0.93360   0.01267  Uiso   1.00
C137   C     0.49810   0.76220   0.92420   0.01267  Uiso   1.00
C138   C     0.50020   0.84580   0.96920   0.01267  Uiso   1.00
C139   C     0.57262   0.89062   0.92204   0.01267  Uiso   1.00
C140   C     0.58783   0.94213   0.89306   0.01267  Uiso   1.00
C141   C     0.66380   0.95970   0.90300   0.01267  Uiso   1.00
C142   C     0.67430   0.00660   0.87160   0.01267  Uiso   1.00
C143   C     0.54490   0.02010   0.82420   0.01267  Uiso   1.00
C144   C     0.52820   0.97400   0.85300   0.01267  Uiso   1.00
C145   C     0.46870   0.00320   0.56880   0.01267  Uiso   1.00
C146   C     0.39380   0.93580   0.48720   0.01267  Uiso   1.00
C147   C     0.36550   0.91240   0.39560   0.01267  Uiso   1.00
C148   C     0.40940   0.95450   0.38140   0.01267  Uiso   1.00
C149   C     0.48240   0.01870   0.45960   0.01267  Uiso   1.00
C150   C     0.51270   0.04480   0.55200   0.01267  Uiso   1.00
C151   C     0.61412   0.16912   0.63324   0.01267  Uiso   1.00
C152   C     0.69760   0.23290   0.70280   0.01267  Uiso   1.00
C153   C     0.70880   0.30260   0.69900   0.01267  Uiso   1.00
C154   C     0.78830   0.36260   0.76400   0.01267  Uiso   1.00
C155   C     0.84380   0.29040   0.83020   0.01267  Uiso   1.00
C156   C     0.76830   0.22750   0.76940   0.01267  Uiso   1.00
C157   C     0.12490   0.44150   0.97620   0.01267  Uiso   1.00
C158   C     0.18240   0.40000   0.96600   0.01267  Uiso   1.00
C159   C     0.26310   0.44320   0.00660   0.01267  Uiso   1.00
C160   C     0.29320   0.53280   0.06640   0.01267  Uiso   1.00
C161   C     0.23780   0.57390   0.07580   0.01267  Uiso   1.00
C162   C     0.15420   0.53100   0.03080   0.01267  Uiso   1.00
C163   C     0.10938   0.65058   0.07796   0.01267  Uiso   1.00
C164   C     0.05787   0.69477   0.10694   0.01267  Uiso   1.00
C165   C     0.04030   0.76080   0.09700   0.01267  Uiso   1.00
C166   C     0.99340   0.80270   0.12840   0.01267  Uiso   1.00
C167   C     0.97990   0.72070   0.17580   0.01267  Uiso   1.00
C168   C     0.02600   0.67520   0.14700   0.01267  Uiso   1.00
C169   C     0.10010   0.56560   0.56880   0.01267  Uiso   1.00
C170   C     0.09340   0.55140   0.48720   0.01267  Uiso   1.00
C171   C     0.03010   0.48320   0.39560   0.01267  Uiso   1.00
C172   C     0.97200   0.42690   0.38140   0.01267  Uiso   1.00
C173   C     0.97720   0.44090   0.45960   0.01267  Uiso   1.00
C174   C     0.03930   0.50720   0.55200   0.01267  Uiso   1.00
C175   C     0.01912   0.46412   0.63324   0.01267  Uiso   1.00
C176   C     0.00520   0.46990   0.70280   0.01267  Uiso   1.00
C177   C     0.99020   0.39640   0.69900   0.01267  Uiso   1.00
C178   C     0.97570   0.40140   0.76400   0.01267  Uiso   1.00
C179   C     0.98640   0.53980   0.83020   0.01267  Uiso   1.00
C180   C     0.00110   0.54190   0.76940   0.01267  Uiso   1.00
C181   C     0.85130   0.53470   0.97620   0.01267  Uiso   1.00
C182   C     0.78360   0.56600   0.96600   0.01267  Uiso   1.00
C183   C     0.74350   0.56340   0.00660   0.01267  Uiso   1.00
C184   C     0.77320   0.53360   0.06640   0.01267  Uiso   1.00
C185   C     0.83800   0.50190   0.07580   0.01267  Uiso   1.00
C186   C     0.87660   0.49980   0.03080   0.01267  Uiso   1.00
C187   C     0.96858   0.42738   0.07796   0.01267  Uiso   1.00
C188   C     0.04907   0.41217   0.10694   0.01267  Uiso   1.00
C189   C     0.05670   0.33620   0.09700   0.01267  Uiso   1.00
C190   C     0.13500   0.32570   0.12840   0.01267  Uiso   1.00
C191   C     0.19590   0.45510   0.17580   0.01267  Uiso   1.00
C192   C     0.12100   0.47180   0.14700   0.01267  Uiso   1.00
N1     N     0.77739   0.79359   0.13498   0.01267  Uiso   1.00
N2     N     0.72016   0.72186   0.32732   0.01267  Uiso   1.00
N3     N     0.72198   0.69748   0.54276   0.01267  Uiso   1.00
N4     N     0.63284   0.95414   0.66768   0.01267  Uiso   1.00
N5     N     0.35759   0.34139   0.13498   0.01267  Uiso   1.00
N6     N     0.60716   0.60546   0.32732   0.01267  Uiso   1.00
N7     N     0.82078   0.84528   0.54276   0.01267  Uiso   1.00
N8     N     0.03484   0.71354   0.66768   0.01267  Uiso   1.00
N9     N     0.20641   0.64241   0.86502   0.01267  Uiso   1.00
N10    N     0.27814   0.39284   0.67268   0.01267  Uiso   1.00
N11    N     0.30252   0.17922   0.45724   0.01267  Uiso   1.00
N12    N     0.04586   0.96516   0.33232   0.01267  Uiso   1.00
N13    N     0.65861   0.22261   0.86502   0.01267  Uiso   1.00
N14    N     0.39454   0.27984   0.67268   0.01267  Uiso   1.00
N15    N     0.15472   0.27802   0.45724   0.01267  Uiso   1.00
N16    N     0.28646   0.36716   0.33232   0.01267  Uiso   1.00
N17    N     0.89241   0.95641   0.36502   0.01267  Uiso   1.00
N18    N     0.64284   0.02814   0.17268   0.01267  Uiso   1.00
N19    N     0.42922   0.05252   0.95724   0.01267  Uiso   1.00
N20    N     0.21516   0.79586   0.83232   0.01267  Uiso   1.00
N21    N     0.47261   0.40861   0.36502   0.01267  Uiso   1.00
N22    N     0.52984   0.14454   0.17268   0.01267  Uiso   1.00
N23    N     0.52802   0.90472   0.95724   0.01267  Uiso   1.00
N24    N     0.61716   0.03646   0.83232   0.01267  Uiso   1.00
N25    N     0.59139   0.10759   0.63498   0.01267  Uiso   1.00
N26    N     0.85546   0.35716   0.82732   0.01267  Uiso   1.00
N27    N     0.09528   0.57078   0.04276   0.01267  Uiso   1.00
N28    N     0.96354   0.78484   0.16768   0.01267  Uiso   1.00
N29    N     0.04359   0.52739   0.63498   0.01267  Uiso   1.00
N30    N     0.97186   0.47016   0.82732   0.01267  Uiso   1.00
N31    N     0.94748   0.47198   0.04276   0.01267  Uiso   1.00
N32    N     0.20414   0.38284   0.16768   0.01267  Uiso   1.00
O1     O     0.87914   0.90984   0.15716   0.01267  Uiso   1.00
O2     O     0.78777   0.64062   0.43864   0.01267  Uiso   1.00
O3     O     0.27802   0.24732   0.15716   0.01267  Uiso   1.00
O4     O     0.65087   0.79802   0.43864   0.01267  Uiso   1.00
O5     O     0.09016   0.72198   0.84284   0.01267  Uiso   1.00
O6     O     0.35938   0.34913   0.56136   0.01267  Uiso   1.00
O7     O     0.75268   0.12086   0.84284   0.01267  Uiso   1.00
O8     O     0.20198   0.21223   0.56136   0.01267  Uiso   1.00
O9     O     0.97198   0.84016   0.34284   0.01267  Uiso   1.00
O10    O     0.59913   0.10938   0.06136   0.01267  Uiso   1.00
O11    O     0.37086   0.50268   0.34284   0.01267  Uiso   1.00
O12    O     0.46223   0.95198   0.06136   0.01267  Uiso   1.00
O13    O     0.49732   0.02802   0.65716   0.01267  Uiso   1.00
O14    O     0.04802   0.40087   0.93864   0.01267  Uiso   1.00
O15    O     0.15984   0.62914   0.65716   0.01267  Uiso   1.00
O16    O     0.89062   0.53777   0.93864   0.01267  Uiso   1.00
