data_image0
_cell_length_a       19.7822
_cell_length_b       19.7822
_cell_length_c       19.7822
_cell_angle_alpha    90
_cell_angle_beta     90
_cell_angle_gamma    90

_symmetry_space_group_name_H-M    "P 1"
_symmetry_int_tables_number       1

loop_
  _symmetry_equiv_pos_as_xyz
  'x, y, z'

loop_
  _atom_site_label
  _atom_site_occupancy
  _atom_site_fract_x
  _atom_site_fract_y
  _atom_site_fract_z
  _atom_site_thermal_displace_type
  _atom_site_B_iso_or_equiv
  _atom_site_type_symbol
  Gd1      1.0000 0.75369  0.84613  0.50883  Biso   1.000  Gd
  O1       1.0000 0.85427  0.79431  0.55046  Biso   1.000  O
  O2       1.0000 0.65885  0.79011  0.46002  Biso   1.000  O
  O3       1.0000 0.91662  0.70601  0.58250  Biso   1.000  O
  O4       1.0000 0.60916  0.70310  0.40927  Biso   1.000  O
  N1       1.0000 0.75981  0.71894  0.50069  Biso   1.000  N
  C1       1.0000 0.86580  0.73100  0.55550  Biso   1.000  C
  C2       1.0000 0.65410  0.72800  0.44530  Biso   1.000  C
  C3       1.0000 0.70920  0.68370  0.47260  Biso   1.000  C
  C4       1.0000 0.81260  0.68560  0.52620  Biso   1.000  C
  C5       1.0000 0.70930  0.61400  0.47000  Biso   1.000  C
  H1       1.0000 0.67380  0.59040  0.45010  Biso   1.000  H
  C6       1.0000 0.81580  0.61580  0.52640  Biso   1.000  C
  H2       1.0000 0.85250  0.59350  0.54560  Biso   1.000  H
  C7       1.0000 0.76400  0.58030  0.49790  Biso   1.000  C
  H3       1.0000 0.76540  0.53330  0.49720  Biso   1.000  H
  Gd2      1.0000 0.74631  0.15387  0.00883  Biso   1.000  Gd
  O5       1.0000 0.64573  0.20569  0.05046  Biso   1.000  O
  O6       1.0000 0.84115  0.20989  0.96002  Biso   1.000  O
  O7       1.0000 0.58338  0.29399  0.08250  Biso   1.000  O
  O8       1.0000 0.89084  0.29690  0.90927  Biso   1.000  O
  N2       1.0000 0.74019  0.28106  0.00069  Biso   1.000  N
  C8       1.0000 0.63420  0.26900  0.05550  Biso   1.000  C
  C9       1.0000 0.84590  0.27200  0.94530  Biso   1.000  C
  C10      1.0000 0.79080  0.31630  0.97260  Biso   1.000  C
  C11      1.0000 0.68740  0.31440  0.02620  Biso   1.000  C
  C12      1.0000 0.79070  0.38600  0.97000  Biso   1.000  C
  H4       1.0000 0.82620  0.40960  0.95010  Biso   1.000  H
  C13      1.0000 0.68420  0.38420  0.02640  Biso   1.000  C
  H5       1.0000 0.64750  0.40650  0.04560  Biso   1.000  H
  C14      1.0000 0.73600  0.41970  0.99790  Biso   1.000  C
  H6       1.0000 0.73460  0.46670  0.99720  Biso   1.000  H
  Gd3      1.0000 0.24631  0.34613  0.99117  Biso   1.000  Gd
  O9       1.0000 0.14573  0.29431  0.94954  Biso   1.000  O
  O10      1.0000 0.34115  0.29011  0.03998  Biso   1.000  O
  O11      1.0000 0.08338  0.20601  0.91750  Biso   1.000  O
  O12      1.0000 0.39084  0.20310  0.09073  Biso   1.000  O
  N3       1.0000 0.24019  0.21894  0.99931  Biso   1.000  N
  C15      1.0000 0.13420  0.23100  0.94450  Biso   1.000  C
  C16      1.0000 0.34590  0.22800  0.05470  Biso   1.000  C
  C17      1.0000 0.29080  0.18370  0.02740  Biso   1.000  C
  C18      1.0000 0.18740  0.18560  0.97380  Biso   1.000  C
  C19      1.0000 0.29070  0.11400  0.03000  Biso   1.000  C
  H7       1.0000 0.32620  0.09040  0.04990  Biso   1.000  H
  C20      1.0000 0.18420  0.11580  0.97360  Biso   1.000  C
  H8       1.0000 0.14750  0.09350  0.95440  Biso   1.000  H
  C21      1.0000 0.23600  0.08030  0.00210  Biso   1.000  C
  H9       1.0000 0.23460  0.03330  0.00280  Biso   1.000  H
  Gd4      1.0000 0.25369  0.65387  0.49117  Biso   1.000  Gd
  O13      1.0000 0.35427  0.70569  0.44954  Biso   1.000  O
  O14      1.0000 0.15885  0.70989  0.53998  Biso   1.000  O
  O15      1.0000 0.41662  0.79399  0.41750  Biso   1.000  O
  O16      1.0000 0.10916  0.79690  0.59073  Biso   1.000  O
  N4       1.0000 0.25981  0.78106  0.49931  Biso   1.000  N
  C22      1.0000 0.36580  0.76900  0.44450  Biso   1.000  C
  C23      1.0000 0.15410  0.77200  0.55470  Biso   1.000  C
  C24      1.0000 0.20920  0.81630  0.52740  Biso   1.000  C
  C25      1.0000 0.31260  0.81440  0.47380  Biso   1.000  C
  C26      1.0000 0.20930  0.88600  0.53000  Biso   1.000  C
  H10      1.0000 0.17380  0.90960  0.54990  Biso   1.000  H
  C27      1.0000 0.31580  0.88420  0.47360  Biso   1.000  C
  H11      1.0000 0.35250  0.90650  0.45440  Biso   1.000  H
  C28      1.0000 0.26400  0.91970  0.50210  Biso   1.000  C
  H12      1.0000 0.26540  0.96670  0.50280  Biso   1.000  H
  Gd5      1.0000 0.50883  0.75369  0.84613  Biso   1.000  Gd
  O17      1.0000 0.55046  0.85427  0.79431  Biso   1.000  O
  O18      1.0000 0.46002  0.65885  0.79011  Biso   1.000  O
  O19      1.0000 0.58250  0.91662  0.70601  Biso   1.000  O
  O20      1.0000 0.40927  0.60916  0.70310  Biso   1.000  O
  N5       1.0000 0.50069  0.75981  0.71894  Biso   1.000  N
  C29      1.0000 0.55550  0.86580  0.73100  Biso   1.000  C
  C30      1.0000 0.44530  0.65410  0.72800  Biso   1.000  C
  C31      1.0000 0.47260  0.70920  0.68370  Biso   1.000  C
  C32      1.0000 0.52620  0.81260  0.68560  Biso   1.000  C
  C33      1.0000 0.47000  0.70930  0.61400  Biso   1.000  C
  H13      1.0000 0.45010  0.67380  0.59040  Biso   1.000  H
  C34      1.0000 0.52640  0.81580  0.61580  Biso   1.000  C
  H14      1.0000 0.54560  0.85250  0.59350  Biso   1.000  H
  C35      1.0000 0.49790  0.76400  0.58030  Biso   1.000  C
  H15      1.0000 0.49720  0.76540  0.53330  Biso   1.000  H
  Gd6      1.0000 0.00883  0.74631  0.15387  Biso   1.000  Gd
  O21      1.0000 0.05046  0.64573  0.20569  Biso   1.000  O
  O22      1.0000 0.96002  0.84115  0.20989  Biso   1.000  O
  O23      1.0000 0.08250  0.58338  0.29399  Biso   1.000  O
  O24      1.0000 0.90927  0.89084  0.29690  Biso   1.000  O
  N6       1.0000 0.00069  0.74019  0.28106  Biso   1.000  N
  C36      1.0000 0.05550  0.63420  0.26900  Biso   1.000  C
  C37      1.0000 0.94530  0.84590  0.27200  Biso   1.000  C
  C38      1.0000 0.97260  0.79080  0.31630  Biso   1.000  C
  C39      1.0000 0.02620  0.68740  0.31440  Biso   1.000  C
  C40      1.0000 0.97000  0.79070  0.38600  Biso   1.000  C
  H16      1.0000 0.95010  0.82620  0.40960  Biso   1.000  H
  C41      1.0000 0.02640  0.68420  0.38420  Biso   1.000  C
  H17      1.0000 0.04560  0.64750  0.40650  Biso   1.000  H
  C42      1.0000 0.99790  0.73600  0.41970  Biso   1.000  C
  H18      1.0000 0.99720  0.73460  0.46670  Biso   1.000  H
  Gd7      1.0000 0.99117  0.24631  0.34613  Biso   1.000  Gd
  O25      1.0000 0.94954  0.14573  0.29431  Biso   1.000  O
  O26      1.0000 0.03998  0.34115  0.29011  Biso   1.000  O
  O27      1.0000 0.91750  0.08338  0.20601  Biso   1.000  O
  O28      1.0000 0.09073  0.39084  0.20310  Biso   1.000  O
  N7       1.0000 0.99931  0.24019  0.21894  Biso   1.000  N
  C43      1.0000 0.94450  0.13420  0.23100  Biso   1.000  C
  C44      1.0000 0.05470  0.34590  0.22800  Biso   1.000  C
  C45      1.0000 0.02740  0.29080  0.18370  Biso   1.000  C
  C46      1.0000 0.97380  0.18740  0.18560  Biso   1.000  C
  C47      1.0000 0.03000  0.29070  0.11400  Biso   1.000  C
  H19      1.0000 0.04990  0.32620  0.09040  Biso   1.000  H
  C48      1.0000 0.97360  0.18420  0.11580  Biso   1.000  C
  H20      1.0000 0.95440  0.14750  0.09350  Biso   1.000  H
  C49      1.0000 0.00210  0.23600  0.08030  Biso   1.000  C
  H21      1.0000 0.00280  0.23460  0.03330  Biso   1.000  H
  Gd8      1.0000 0.49117  0.25369  0.65387  Biso   1.000  Gd
  O29      1.0000 0.44954  0.35427  0.70569  Biso   1.000  O
  O30      1.0000 0.53998  0.15885  0.70989  Biso   1.000  O
  O31      1.0000 0.41750  0.41662  0.79399  Biso   1.000  O
  O32      1.0000 0.59073  0.10916  0.79690  Biso   1.000  O
  N8       1.0000 0.49931  0.25981  0.78106  Biso   1.000  N
  C50      1.0000 0.44450  0.36580  0.76900  Biso   1.000  C
  C51      1.0000 0.55470  0.15410  0.77200  Biso   1.000  C
  C52      1.0000 0.52740  0.20920  0.81630  Biso   1.000  C
  C53      1.0000 0.47380  0.31260  0.81440  Biso   1.000  C
  C54      1.0000 0.53000  0.20930  0.88600  Biso   1.000  C
  H22      1.0000 0.54990  0.17380  0.90960  Biso   1.000  H
  C55      1.0000 0.47360  0.31580  0.88420  Biso   1.000  C
  H23      1.0000 0.45440  0.35250  0.90650  Biso   1.000  H
  C56      1.0000 0.50210  0.26400  0.91970  Biso   1.000  C
  H24      1.0000 0.50280  0.26540  0.96670  Biso   1.000  H
  Gd9      1.0000 0.84613  0.50883  0.75369  Biso   1.000  Gd
  O33      1.0000 0.79431  0.55046  0.85427  Biso   1.000  O
  O34      1.0000 0.79011  0.46002  0.65885  Biso   1.000  O
  O35      1.0000 0.70601  0.58250  0.91662  Biso   1.000  O
  O36      1.0000 0.70310  0.40927  0.60916  Biso   1.000  O
  N9       1.0000 0.71894  0.50069  0.75981  Biso   1.000  N
  C57      1.0000 0.73100  0.55550  0.86580  Biso   1.000  C
  C58      1.0000 0.72800  0.44530  0.65410  Biso   1.000  C
  C59      1.0000 0.68370  0.47260  0.70920  Biso   1.000  C
  C60      1.0000 0.68560  0.52620  0.81260  Biso   1.000  C
  C61      1.0000 0.61400  0.47000  0.70930  Biso   1.000  C
  H25      1.0000 0.59040  0.45010  0.67380  Biso   1.000  H
  C62      1.0000 0.61580  0.52640  0.81580  Biso   1.000  C
  H26      1.0000 0.59350  0.54560  0.85250  Biso   1.000  H
  C63      1.0000 0.58030  0.49790  0.76400  Biso   1.000  C
  H27      1.0000 0.53330  0.49720  0.76540  Biso   1.000  H
  Gd10     1.0000 0.15387  0.00883  0.74631  Biso   1.000  Gd
  O37      1.0000 0.20569  0.05046  0.64573  Biso   1.000  O
  O38      1.0000 0.20989  0.96002  0.84115  Biso   1.000  O
  O39      1.0000 0.29399  0.08250  0.58338  Biso   1.000  O
  O40      1.0000 0.29690  0.90927  0.89084  Biso   1.000  O
  N10      1.0000 0.28106  0.00069  0.74019  Biso   1.000  N
  C64      1.0000 0.26900  0.05550  0.63420  Biso   1.000  C
  C65      1.0000 0.27200  0.94530  0.84590  Biso   1.000  C
  C66      1.0000 0.31630  0.97260  0.79080  Biso   1.000  C
  C67      1.0000 0.31440  0.02620  0.68740  Biso   1.000  C
  C68      1.0000 0.38600  0.97000  0.79070  Biso   1.000  C
  H28      1.0000 0.40960  0.95010  0.82620  Biso   1.000  H
  C69      1.0000 0.38420  0.02640  0.68420  Biso   1.000  C
  H29      1.0000 0.40650  0.04560  0.64750  Biso   1.000  H
  C70      1.0000 0.41970  0.99790  0.73600  Biso   1.000  C
  H30      1.0000 0.46670  0.99720  0.73460  Biso   1.000  H
  Gd11     1.0000 0.34613  0.99117  0.24631  Biso   1.000  Gd
  O41      1.0000 0.29431  0.94954  0.14573  Biso   1.000  O
  O42      1.0000 0.29011  0.03998  0.34115  Biso   1.000  O
  O43      1.0000 0.20601  0.91750  0.08338  Biso   1.000  O
  O44      1.0000 0.20310  0.09073  0.39084  Biso   1.000  O
  N11      1.0000 0.21894  0.99931  0.24019  Biso   1.000  N
  C71      1.0000 0.23100  0.94450  0.13420  Biso   1.000  C
  C72      1.0000 0.22800  0.05470  0.34590  Biso   1.000  C
  C73      1.0000 0.18370  0.02740  0.29080  Biso   1.000  C
  C74      1.0000 0.18560  0.97380  0.18740  Biso   1.000  C
  C75      1.0000 0.11400  0.03000  0.29070  Biso   1.000  C
  H31      1.0000 0.09040  0.04990  0.32620  Biso   1.000  H
  C76      1.0000 0.11580  0.97360  0.18420  Biso   1.000  C
  H32      1.0000 0.09350  0.95440  0.14750  Biso   1.000  H
  C77      1.0000 0.08030  0.00210  0.23600  Biso   1.000  C
  H33      1.0000 0.03330  0.00280  0.23460  Biso   1.000  H
  Gd12     1.0000 0.65387  0.49117  0.25369  Biso   1.000  Gd
  O45      1.0000 0.70569  0.44954  0.35427  Biso   1.000  O
  O46      1.0000 0.70989  0.53998  0.15885  Biso   1.000  O
  O47      1.0000 0.79399  0.41750  0.41662  Biso   1.000  O
  O48      1.0000 0.79690  0.59073  0.10916  Biso   1.000  O
  N12      1.0000 0.78106  0.49931  0.25981  Biso   1.000  N
  C78      1.0000 0.76900  0.44450  0.36580  Biso   1.000  C
  C79      1.0000 0.77200  0.55470  0.15410  Biso   1.000  C
  C80      1.0000 0.81630  0.52740  0.20920  Biso   1.000  C
  C81      1.0000 0.81440  0.47380  0.31260  Biso   1.000  C
  C82      1.0000 0.88600  0.53000  0.20930  Biso   1.000  C
  H34      1.0000 0.90960  0.54990  0.17380  Biso   1.000  H
  C83      1.0000 0.88420  0.47360  0.31580  Biso   1.000  C
  H35      1.0000 0.90650  0.45440  0.35250  Biso   1.000  H
  C84      1.0000 0.91970  0.50210  0.26400  Biso   1.000  C
  H36      1.0000 0.96670  0.50280  0.26540  Biso   1.000  H
  Gd13     1.0000 0.24631  0.15387  0.49117  Biso   1.000  Gd
  O49      1.0000 0.14573  0.20569  0.44954  Biso   1.000  O
  O50      1.0000 0.34115  0.20989  0.53998  Biso   1.000  O
  O51      1.0000 0.08338  0.29399  0.41750  Biso   1.000  O
  O52      1.0000 0.39084  0.29690  0.59073  Biso   1.000  O
  N13      1.0000 0.24019  0.28106  0.49931  Biso   1.000  N
  C85      1.0000 0.13420  0.26900  0.44450  Biso   1.000  C
  C86      1.0000 0.34590  0.27200  0.55470  Biso   1.000  C
  C87      1.0000 0.29080  0.31630  0.52740  Biso   1.000  C
  C88      1.0000 0.18740  0.31440  0.47380  Biso   1.000  C
  C89      1.0000 0.29070  0.38600  0.53000  Biso   1.000  C
  H37      1.0000 0.32620  0.40960  0.54990  Biso   1.000  H
  C90      1.0000 0.18420  0.38420  0.47360  Biso   1.000  C
  H38      1.0000 0.14750  0.40650  0.45440  Biso   1.000  H
  C91      1.0000 0.23600  0.41970  0.50210  Biso   1.000  C
  H39      1.0000 0.23460  0.46670  0.50280  Biso   1.000  H
  Gd14     1.0000 0.25369  0.84613  0.99117  Biso   1.000  Gd
  O53      1.0000 0.35427  0.79431  0.94954  Biso   1.000  O
  O54      1.0000 0.15885  0.79011  0.03998  Biso   1.000  O
  O55      1.0000 0.41662  0.70601  0.91750  Biso   1.000  O
  O56      1.0000 0.10916  0.70310  0.09073  Biso   1.000  O
  N14      1.0000 0.25981  0.71894  0.99931  Biso   1.000  N
  C92      1.0000 0.36580  0.73100  0.94450  Biso   1.000  C
  C93      1.0000 0.15410  0.72800  0.05470  Biso   1.000  C
  C94      1.0000 0.20920  0.68370  0.02740  Biso   1.000  C
  C95      1.0000 0.31260  0.68560  0.97380  Biso   1.000  C
  C96      1.0000 0.20930  0.61400  0.03000  Biso   1.000  C
  H40      1.0000 0.17380  0.59040  0.04990  Biso   1.000  H
  C97      1.0000 0.31580  0.61580  0.97360  Biso   1.000  C
  H41      1.0000 0.35250  0.59350  0.95440  Biso   1.000  H
  C98      1.0000 0.26400  0.58030  0.00210  Biso   1.000  C
  H42      1.0000 0.26540  0.53330  0.00280  Biso   1.000  H
  Gd15     1.0000 0.75369  0.65387  0.00883  Biso   1.000  Gd
  O57      1.0000 0.85427  0.70569  0.05046  Biso   1.000  O
  O58      1.0000 0.65885  0.70989  0.96002  Biso   1.000  O
  O59      1.0000 0.91662  0.79399  0.08250  Biso   1.000  O
  O60      1.0000 0.60916  0.79690  0.90927  Biso   1.000  O
  N15      1.0000 0.75981  0.78106  0.00069  Biso   1.000  N
  C99      1.0000 0.86580  0.76900  0.05550  Biso   1.000  C
  C100     1.0000 0.65410  0.77200  0.94530  Biso   1.000  C
  C101     1.0000 0.70920  0.81630  0.97260  Biso   1.000  C
  C102     1.0000 0.81260  0.81440  0.02620  Biso   1.000  C
  C103     1.0000 0.70930  0.88600  0.97000  Biso   1.000  C
  H43      1.0000 0.67380  0.90960  0.95010  Biso   1.000  H
  C104     1.0000 0.81580  0.88420  0.02640  Biso   1.000  C
  H44      1.0000 0.85250  0.90650  0.04560  Biso   1.000  H
  C105     1.0000 0.76400  0.91970  0.99790  Biso   1.000  C
  H45      1.0000 0.76540  0.96670  0.99720  Biso   1.000  H
  Gd16     1.0000 0.74631  0.34613  0.50883  Biso   1.000  Gd
  O61      1.0000 0.64573  0.29431  0.55046  Biso   1.000  O
  O62      1.0000 0.84115  0.29011  0.46002  Biso   1.000  O
  O63      1.0000 0.58338  0.20601  0.58250  Biso   1.000  O
  O64      1.0000 0.89084  0.20310  0.40927  Biso   1.000  O
  N16      1.0000 0.74019  0.21894  0.50069  Biso   1.000  N
  C106     1.0000 0.63420  0.23100  0.55550  Biso   1.000  C
  C107     1.0000 0.84590  0.22800  0.44530  Biso   1.000  C
  C108     1.0000 0.79080  0.18370  0.47260  Biso   1.000  C
  C109     1.0000 0.68740  0.18560  0.52620  Biso   1.000  C
  C110     1.0000 0.79070  0.11400  0.47000  Biso   1.000  C
  H46      1.0000 0.82620  0.09040  0.45010  Biso   1.000  H
  C111     1.0000 0.68420  0.11580  0.52640  Biso   1.000  C
  H47      1.0000 0.64750  0.09350  0.54560  Biso   1.000  H
  C112     1.0000 0.73600  0.08030  0.49790  Biso   1.000  C
  H48      1.0000 0.73460  0.03330  0.49720  Biso   1.000  H
  Gd17     1.0000 0.49117  0.24631  0.15387  Biso   1.000  Gd
  O65      1.0000 0.44954  0.14573  0.20569  Biso   1.000  O
  O66      1.0000 0.53998  0.34115  0.20989  Biso   1.000  O
  O67      1.0000 0.41750  0.08338  0.29399  Biso   1.000  O
  O68      1.0000 0.59073  0.39084  0.29690  Biso   1.000  O
  N17      1.0000 0.49931  0.24019  0.28106  Biso   1.000  N
  C113     1.0000 0.44450  0.13420  0.26900  Biso   1.000  C
  C114     1.0000 0.55470  0.34590  0.27200  Biso   1.000  C
  C115     1.0000 0.52740  0.29080  0.31630  Biso   1.000  C
  C116     1.0000 0.47380  0.18740  0.31440  Biso   1.000  C
  C117     1.0000 0.53000  0.29070  0.38600  Biso   1.000  C
  H49      1.0000 0.54990  0.32620  0.40960  Biso   1.000  H
  C118     1.0000 0.47360  0.18420  0.38420  Biso   1.000  C
  H50      1.0000 0.45440  0.14750  0.40650  Biso   1.000  H
  C119     1.0000 0.50210  0.23600  0.41970  Biso   1.000  C
  H51      1.0000 0.50280  0.23460  0.46670  Biso   1.000  H
  Gd18     1.0000 0.99117  0.25369  0.84613  Biso   1.000  Gd
  O69      1.0000 0.94954  0.35427  0.79431  Biso   1.000  O
  O70      1.0000 0.03998  0.15885  0.79011  Biso   1.000  O
  O71      1.0000 0.91750  0.41662  0.70601  Biso   1.000  O
  O72      1.0000 0.09073  0.10916  0.70310  Biso   1.000  O
  N18      1.0000 0.99931  0.25981  0.71894  Biso   1.000  N
  C120     1.0000 0.94450  0.36580  0.73100  Biso   1.000  C
  C121     1.0000 0.05470  0.15410  0.72800  Biso   1.000  C
  C122     1.0000 0.02740  0.20920  0.68370  Biso   1.000  C
  C123     1.0000 0.97380  0.31260  0.68560  Biso   1.000  C
  C124     1.0000 0.03000  0.20930  0.61400  Biso   1.000  C
  H52      1.0000 0.04990  0.17380  0.59040  Biso   1.000  H
  C125     1.0000 0.97360  0.31580  0.61580  Biso   1.000  C
  H53      1.0000 0.95440  0.35250  0.59350  Biso   1.000  H
  C126     1.0000 0.00210  0.26400  0.58030  Biso   1.000  C
  H54      1.0000 0.00280  0.26540  0.53330  Biso   1.000  H
  Gd19     1.0000 0.00883  0.75369  0.65387  Biso   1.000  Gd
  O73      1.0000 0.05046  0.85427  0.70569  Biso   1.000  O
  O74      1.0000 0.96002  0.65885  0.70989  Biso   1.000  O
  O75      1.0000 0.08250  0.91662  0.79399  Biso   1.000  O
  O76      1.0000 0.90927  0.60916  0.79690  Biso   1.000  O
  N19      1.0000 0.00069  0.75981  0.78106  Biso   1.000  N
  C127     1.0000 0.05550  0.86580  0.76900  Biso   1.000  C
  C128     1.0000 0.94530  0.65410  0.77200  Biso   1.000  C
  C129     1.0000 0.97260  0.70920  0.81630  Biso   1.000  C
  C130     1.0000 0.02620  0.81260  0.81440  Biso   1.000  C
  C131     1.0000 0.97000  0.70930  0.88600  Biso   1.000  C
  H55      1.0000 0.95010  0.67380  0.90960  Biso   1.000  H
  C132     1.0000 0.02640  0.81580  0.88420  Biso   1.000  C
  H56      1.0000 0.04560  0.85250  0.90650  Biso   1.000  H
  C133     1.0000 0.99790  0.76400  0.91970  Biso   1.000  C
  H57      1.0000 0.99720  0.76540  0.96670  Biso   1.000  H
  Gd20     1.0000 0.50883  0.74631  0.34613  Biso   1.000  Gd
  O77      1.0000 0.55046  0.64573  0.29431  Biso   1.000  O
  O78      1.0000 0.46002  0.84115  0.29011  Biso   1.000  O
  O79      1.0000 0.58250  0.58338  0.20601  Biso   1.000  O
  O80      1.0000 0.40927  0.89084  0.20310  Biso   1.000  O
  N20      1.0000 0.50069  0.74019  0.21894  Biso   1.000  N
  C134     1.0000 0.55550  0.63420  0.23100  Biso   1.000  C
  C135     1.0000 0.44530  0.84590  0.22800  Biso   1.000  C
  C136     1.0000 0.47260  0.79080  0.18370  Biso   1.000  C
  C137     1.0000 0.52620  0.68740  0.18560  Biso   1.000  C
  C138     1.0000 0.47000  0.79070  0.11400  Biso   1.000  C
  H58      1.0000 0.45010  0.82620  0.09040  Biso   1.000  H
  C139     1.0000 0.52640  0.68420  0.11580  Biso   1.000  C
  H59      1.0000 0.54560  0.64750  0.09350  Biso   1.000  H
  C140     1.0000 0.49790  0.73600  0.08030  Biso   1.000  C
  H60      1.0000 0.49720  0.73460  0.03330  Biso   1.000  H
  Gd21     1.0000 0.15387  0.49117  0.24631  Biso   1.000  Gd
  O81      1.0000 0.20569  0.44954  0.14573  Biso   1.000  O
  O82      1.0000 0.20989  0.53998  0.34115  Biso   1.000  O
  O83      1.0000 0.29399  0.41750  0.08338  Biso   1.000  O
  O84      1.0000 0.29690  0.59073  0.39084  Biso   1.000  O
  N21      1.0000 0.28106  0.49931  0.24019  Biso   1.000  N
  C141     1.0000 0.26900  0.44450  0.13420  Biso   1.000  C
  C142     1.0000 0.27200  0.55470  0.34590  Biso   1.000  C
  C143     1.0000 0.31630  0.52740  0.29080  Biso   1.000  C
  C144     1.0000 0.31440  0.47380  0.18740  Biso   1.000  C
  C145     1.0000 0.38600  0.53000  0.29070  Biso   1.000  C
  H61      1.0000 0.40960  0.54990  0.32620  Biso   1.000  H
  C146     1.0000 0.38420  0.47360  0.18420  Biso   1.000  C
  H62      1.0000 0.40650  0.45440  0.14750  Biso   1.000  H
  C147     1.0000 0.41970  0.50210  0.23600  Biso   1.000  C
  H63      1.0000 0.46670  0.50280  0.23460  Biso   1.000  H
  Gd22     1.0000 0.84613  0.99117  0.25369  Biso   1.000  Gd
  O85      1.0000 0.79431  0.94954  0.35427  Biso   1.000  O
  O86      1.0000 0.79011  0.03998  0.15885  Biso   1.000  O
  O87      1.0000 0.70601  0.91750  0.41662  Biso   1.000  O
  O88      1.0000 0.70310  0.09073  0.10916  Biso   1.000  O
  N22      1.0000 0.71894  0.99931  0.25981  Biso   1.000  N
  C148     1.0000 0.73100  0.94450  0.36580  Biso   1.000  C
  C149     1.0000 0.72800  0.05470  0.15410  Biso   1.000  C
  C150     1.0000 0.68370  0.02740  0.20920  Biso   1.000  C
  C151     1.0000 0.68560  0.97380  0.31260  Biso   1.000  C
  C152     1.0000 0.61400  0.03000  0.20930  Biso   1.000  C
  H64      1.0000 0.59040  0.04990  0.17380  Biso   1.000  H
  C153     1.0000 0.61580  0.97360  0.31580  Biso   1.000  C
  H65      1.0000 0.59350  0.95440  0.35250  Biso   1.000  H
  C154     1.0000 0.58030  0.00210  0.26400  Biso   1.000  C
  H66      1.0000 0.53330  0.00280  0.26540  Biso   1.000  H
  Gd23     1.0000 0.65387  0.00883  0.75369  Biso   1.000  Gd
  O89      1.0000 0.70569  0.05046  0.85427  Biso   1.000  O
  O90      1.0000 0.70989  0.96002  0.65885  Biso   1.000  O
  O91      1.0000 0.79399  0.08250  0.91662  Biso   1.000  O
  O92      1.0000 0.79690  0.90927  0.60916  Biso   1.000  O
  N23      1.0000 0.78106  0.00069  0.75981  Biso   1.000  N
  C155     1.0000 0.76900  0.05550  0.86580  Biso   1.000  C
  C156     1.0000 0.77200  0.94530  0.65410  Biso   1.000  C
  C157     1.0000 0.81630  0.97260  0.70920  Biso   1.000  C
  C158     1.0000 0.81440  0.02620  0.81260  Biso   1.000  C
  C159     1.0000 0.88600  0.97000  0.70930  Biso   1.000  C
  H67      1.0000 0.90960  0.95010  0.67380  Biso   1.000  H
  C160     1.0000 0.88420  0.02640  0.81580  Biso   1.000  C
  H68      1.0000 0.90650  0.04560  0.85250  Biso   1.000  H
  C161     1.0000 0.91970  0.99790  0.76400  Biso   1.000  C
  H69      1.0000 0.96670  0.99720  0.76540  Biso   1.000  H
  Gd24     1.0000 0.34613  0.50883  0.74631  Biso   1.000  Gd
  O93      1.0000 0.29431  0.55046  0.64573  Biso   1.000  O
  O94      1.0000 0.29011  0.46002  0.84115  Biso   1.000  O
  O95      1.0000 0.20601  0.58250  0.58338  Biso   1.000  O
  O96      1.0000 0.20310  0.40927  0.89084  Biso   1.000  O
  N24      1.0000 0.21894  0.50069  0.74019  Biso   1.000  N
  C162     1.0000 0.23100  0.55550  0.63420  Biso   1.000  C
  C163     1.0000 0.22800  0.44530  0.84590  Biso   1.000  C
  C164     1.0000 0.18370  0.47260  0.79080  Biso   1.000  C
  C165     1.0000 0.18560  0.52620  0.68740  Biso   1.000  C
  C166     1.0000 0.11400  0.47000  0.79070  Biso   1.000  C
  H70      1.0000 0.09040  0.45010  0.82620  Biso   1.000  H
  C167     1.0000 0.11580  0.52640  0.68420  Biso   1.000  C
  H71      1.0000 0.09350  0.54560  0.64750  Biso   1.000  H
  C168     1.0000 0.08030  0.49790  0.73600  Biso   1.000  C
  H72      1.0000 0.03330  0.49720  0.73460  Biso   1.000  H
