data_image0
_cell_length_a       19.8027
_cell_length_b       19.8027
_cell_length_c       19.8027
_cell_angle_alpha    90
_cell_angle_beta     90
_cell_angle_gamma    90

_symmetry_space_group_name_H-M    "P 1"
_symmetry_int_tables_number       1

loop_
  _symmetry_equiv_pos_as_xyz
  'x, y, z'

loop_
  _atom_site_label
  _atom_site_occupancy
  _atom_site_fract_x
  _atom_site_fract_y
  _atom_site_fract_z
  _atom_site_thermal_displace_type
  _atom_site_B_iso_or_equiv
  _atom_site_type_symbol
  O1       1.0000 0.70636  0.45450  0.34776  Biso   1.000  O
  C1       1.0000 0.76930  0.44560  0.35600  Biso   1.000  C
  C2       1.0000 0.81400  0.47380  0.30200  Biso   1.000  C
  C3       1.0000 0.88400  0.47240  0.30360  Biso   1.000  C
  H1       1.0000 0.90700  0.45330  0.33990  Biso   1.000  H
  O2       1.0000 0.79510  0.41510  0.40470  Biso   1.000  O
  O3       1.0000 0.20636  0.95450  0.84776  Biso   1.000  O
  C4       1.0000 0.26930  0.94560  0.85600  Biso   1.000  C
  C5       1.0000 0.31400  0.97380  0.80200  Biso   1.000  C
  C6       1.0000 0.38400  0.97240  0.80360  Biso   1.000  C
  H2       1.0000 0.40700  0.95330  0.83990  Biso   1.000  H
  O4       1.0000 0.29510  0.91510  0.90470  Biso   1.000  O
  O5       1.0000 0.79364  0.54550  0.84776  Biso   1.000  O
  C7       1.0000 0.73070  0.55440  0.85600  Biso   1.000  C
  C8       1.0000 0.68600  0.52620  0.80200  Biso   1.000  C
  C9       1.0000 0.61600  0.52760  0.80360  Biso   1.000  C
  H3       1.0000 0.59300  0.54670  0.83990  Biso   1.000  H
  O6       1.0000 0.70490  0.58490  0.90470  Biso   1.000  O
  O7       1.0000 0.29364  0.04550  0.34776  Biso   1.000  O
  C10      1.0000 0.23070  0.05440  0.35600  Biso   1.000  C
  C11      1.0000 0.18600  0.02620  0.30200  Biso   1.000  C
  C12      1.0000 0.11600  0.02760  0.30360  Biso   1.000  C
  H4       1.0000 0.09300  0.04670  0.33990  Biso   1.000  H
  O8       1.0000 0.20490  0.08490  0.40470  Biso   1.000  O
  O9       1.0000 0.29364  0.95450  0.15224  Biso   1.000  O
  C13      1.0000 0.23070  0.94560  0.14400  Biso   1.000  C
  C14      1.0000 0.18600  0.97380  0.19800  Biso   1.000  C
  C15      1.0000 0.11600  0.97240  0.19640  Biso   1.000  C
  H5       1.0000 0.09300  0.95330  0.16010  Biso   1.000  H
  O10      1.0000 0.20490  0.91510  0.09530  Biso   1.000  O
  O11      1.0000 0.79364  0.45450  0.65224  Biso   1.000  O
  C16      1.0000 0.73070  0.44560  0.64400  Biso   1.000  C
  C17      1.0000 0.68600  0.47380  0.69800  Biso   1.000  C
  C18      1.0000 0.61600  0.47240  0.69640  Biso   1.000  C
  H6       1.0000 0.59300  0.45330  0.66010  Biso   1.000  H
  O12      1.0000 0.70490  0.41510  0.59530  Biso   1.000  O
  O13      1.0000 0.20636  0.04550  0.65224  Biso   1.000  O
  C19      1.0000 0.26930  0.05440  0.64400  Biso   1.000  C
  C20      1.0000 0.31400  0.02620  0.69800  Biso   1.000  C
  C21      1.0000 0.38400  0.02760  0.69640  Biso   1.000  C
  H7       1.0000 0.40700  0.04670  0.66010  Biso   1.000  H
  O14      1.0000 0.29510  0.08490  0.59530  Biso   1.000  O
  O15      1.0000 0.70636  0.54550  0.15224  Biso   1.000  O
  C22      1.0000 0.76930  0.55440  0.14400  Biso   1.000  C
  C23      1.0000 0.81400  0.52620  0.19800  Biso   1.000  C
  C24      1.0000 0.88400  0.52760  0.19640  Biso   1.000  C
  H8       1.0000 0.90700  0.54670  0.16010  Biso   1.000  H
  O16      1.0000 0.79510  0.58490  0.09530  Biso   1.000  O
  O17      1.0000 0.34776  0.70636  0.45450  Biso   1.000  O
  C25      1.0000 0.35600  0.76930  0.44560  Biso   1.000  C
  C26      1.0000 0.30200  0.81400  0.47380  Biso   1.000  C
  C27      1.0000 0.30360  0.88400  0.47240  Biso   1.000  C
  H9       1.0000 0.33990  0.90700  0.45330  Biso   1.000  H
  O18      1.0000 0.40470  0.79510  0.41510  Biso   1.000  O
  O19      1.0000 0.84776  0.20636  0.95450  Biso   1.000  O
  C28      1.0000 0.85600  0.26930  0.94560  Biso   1.000  C
  C29      1.0000 0.80200  0.31400  0.97380  Biso   1.000  C
  C30      1.0000 0.80360  0.38400  0.97240  Biso   1.000  C
  H10      1.0000 0.83990  0.40700  0.95330  Biso   1.000  H
  O20      1.0000 0.90470  0.29510  0.91510  Biso   1.000  O
  O21      1.0000 0.84776  0.79364  0.54550  Biso   1.000  O
  C31      1.0000 0.85600  0.73070  0.55440  Biso   1.000  C
  C32      1.0000 0.80200  0.68600  0.52620  Biso   1.000  C
  C33      1.0000 0.80360  0.61600  0.52760  Biso   1.000  C
  H11      1.0000 0.83990  0.59300  0.54670  Biso   1.000  H
  O22      1.0000 0.90470  0.70490  0.58490  Biso   1.000  O
  O23      1.0000 0.34776  0.29364  0.04550  Biso   1.000  O
  C34      1.0000 0.35600  0.23070  0.05440  Biso   1.000  C
  C35      1.0000 0.30200  0.18600  0.02620  Biso   1.000  C
  C36      1.0000 0.30360  0.11600  0.02760  Biso   1.000  C
  H12      1.0000 0.33990  0.09300  0.04670  Biso   1.000  H
  O24      1.0000 0.40470  0.20490  0.08490  Biso   1.000  O
  O25      1.0000 0.15224  0.29364  0.95450  Biso   1.000  O
  C37      1.0000 0.14400  0.23070  0.94560  Biso   1.000  C
  C38      1.0000 0.19800  0.18600  0.97380  Biso   1.000  C
  C39      1.0000 0.19640  0.11600  0.97240  Biso   1.000  C
  H13      1.0000 0.16010  0.09300  0.95330  Biso   1.000  H
  O26      1.0000 0.09530  0.20490  0.91510  Biso   1.000  O
  O27      1.0000 0.65224  0.79364  0.45450  Biso   1.000  O
  C40      1.0000 0.64400  0.73070  0.44560  Biso   1.000  C
  C41      1.0000 0.69800  0.68600  0.47380  Biso   1.000  C
  C42      1.0000 0.69640  0.61600  0.47240  Biso   1.000  C
  H14      1.0000 0.66010  0.59300  0.45330  Biso   1.000  H
  O28      1.0000 0.59530  0.70490  0.41510  Biso   1.000  O
  O29      1.0000 0.65224  0.20636  0.04550  Biso   1.000  O
  C43      1.0000 0.64400  0.26930  0.05440  Biso   1.000  C
  C44      1.0000 0.69800  0.31400  0.02620  Biso   1.000  C
  C45      1.0000 0.69640  0.38400  0.02760  Biso   1.000  C
  H15      1.0000 0.66010  0.40700  0.04670  Biso   1.000  H
  O30      1.0000 0.59530  0.29510  0.08490  Biso   1.000  O
  O31      1.0000 0.15224  0.70636  0.54550  Biso   1.000  O
  C46      1.0000 0.14400  0.76930  0.55440  Biso   1.000  C
  C47      1.0000 0.19800  0.81400  0.52620  Biso   1.000  C
  C48      1.0000 0.19640  0.88400  0.52760  Biso   1.000  C
  H16      1.0000 0.16010  0.90700  0.54670  Biso   1.000  H
  O32      1.0000 0.09530  0.79510  0.58490  Biso   1.000  O
  O33      1.0000 0.45450  0.34776  0.70636  Biso   1.000  O
  C49      1.0000 0.44560  0.35600  0.76930  Biso   1.000  C
  C50      1.0000 0.47380  0.30200  0.81400  Biso   1.000  C
  C51      1.0000 0.47240  0.30360  0.88400  Biso   1.000  C
  H17      1.0000 0.45330  0.33990  0.90700  Biso   1.000  H
  O34      1.0000 0.41510  0.40470  0.79510  Biso   1.000  O
  O35      1.0000 0.95450  0.84776  0.20636  Biso   1.000  O
  C52      1.0000 0.94560  0.85600  0.26930  Biso   1.000  C
  C53      1.0000 0.97380  0.80200  0.31400  Biso   1.000  C
  C54      1.0000 0.97240  0.80360  0.38400  Biso   1.000  C
  H18      1.0000 0.95330  0.83990  0.40700  Biso   1.000  H
  O36      1.0000 0.91510  0.90470  0.29510  Biso   1.000  O
  O37      1.0000 0.54550  0.84776  0.79364  Biso   1.000  O
  C55      1.0000 0.55440  0.85600  0.73070  Biso   1.000  C
  C56      1.0000 0.52620  0.80200  0.68600  Biso   1.000  C
  C57      1.0000 0.52760  0.80360  0.61600  Biso   1.000  C
  H19      1.0000 0.54670  0.83990  0.59300  Biso   1.000  H
  O38      1.0000 0.58490  0.90470  0.70490  Biso   1.000  O
  O39      1.0000 0.04550  0.34776  0.29364  Biso   1.000  O
  C58      1.0000 0.05440  0.35600  0.23070  Biso   1.000  C
  C59      1.0000 0.02620  0.30200  0.18600  Biso   1.000  C
  C60      1.0000 0.02760  0.30360  0.11600  Biso   1.000  C
  H20      1.0000 0.04670  0.33990  0.09300  Biso   1.000  H
  O40      1.0000 0.08490  0.40470  0.20490  Biso   1.000  O
  O41      1.0000 0.95450  0.15224  0.29364  Biso   1.000  O
  C61      1.0000 0.94560  0.14400  0.23070  Biso   1.000  C
  C62      1.0000 0.97380  0.19800  0.18600  Biso   1.000  C
  C63      1.0000 0.97240  0.19640  0.11600  Biso   1.000  C
  H21      1.0000 0.95330  0.16010  0.09300  Biso   1.000  H
  O42      1.0000 0.91510  0.09530  0.20490  Biso   1.000  O
  O43      1.0000 0.45450  0.65224  0.79364  Biso   1.000  O
  C64      1.0000 0.44560  0.64400  0.73070  Biso   1.000  C
  C65      1.0000 0.47380  0.69800  0.68600  Biso   1.000  C
  C66      1.0000 0.47240  0.69640  0.61600  Biso   1.000  C
  H22      1.0000 0.45330  0.66010  0.59300  Biso   1.000  H
  O44      1.0000 0.41510  0.59530  0.70490  Biso   1.000  O
  O45      1.0000 0.04550  0.65224  0.20636  Biso   1.000  O
  C67      1.0000 0.05440  0.64400  0.26930  Biso   1.000  C
  C68      1.0000 0.02620  0.69800  0.31400  Biso   1.000  C
  C69      1.0000 0.02760  0.69640  0.38400  Biso   1.000  C
  H23      1.0000 0.04670  0.66010  0.40700  Biso   1.000  H
  O46      1.0000 0.08490  0.59530  0.29510  Biso   1.000  O
  O47      1.0000 0.54550  0.15224  0.70636  Biso   1.000  O
  C70      1.0000 0.55440  0.14400  0.76930  Biso   1.000  C
  C71      1.0000 0.52620  0.19800  0.81400  Biso   1.000  C
  C72      1.0000 0.52760  0.19640  0.88400  Biso   1.000  C
  H24      1.0000 0.54670  0.16010  0.90700  Biso   1.000  H
  O48      1.0000 0.58490  0.09530  0.79510  Biso   1.000  O
  O49      1.0000 0.29364  0.54550  0.65224  Biso   1.000  O
  C73      1.0000 0.23070  0.55440  0.64400  Biso   1.000  C
  C74      1.0000 0.18600  0.52620  0.69800  Biso   1.000  C
  C75      1.0000 0.11600  0.52760  0.69640  Biso   1.000  C
  H25      1.0000 0.09300  0.54670  0.66010  Biso   1.000  H
  O50      1.0000 0.20490  0.58490  0.59530  Biso   1.000  O
  O51      1.0000 0.79364  0.04550  0.15224  Biso   1.000  O
  C76      1.0000 0.73070  0.05440  0.14400  Biso   1.000  C
  C77      1.0000 0.68600  0.02620  0.19800  Biso   1.000  C
  C78      1.0000 0.61600  0.02760  0.19640  Biso   1.000  C
  H26      1.0000 0.59300  0.04670  0.16010  Biso   1.000  H
  O52      1.0000 0.70490  0.08490  0.09530  Biso   1.000  O
  O53      1.0000 0.20636  0.45450  0.15224  Biso   1.000  O
  C79      1.0000 0.26930  0.44560  0.14400  Biso   1.000  C
  C80      1.0000 0.31400  0.47380  0.19800  Biso   1.000  C
  C81      1.0000 0.38400  0.47240  0.19640  Biso   1.000  C
  H27      1.0000 0.40700  0.45330  0.16010  Biso   1.000  H
  O54      1.0000 0.29510  0.41510  0.09530  Biso   1.000  O
  O55      1.0000 0.70636  0.95450  0.65224  Biso   1.000  O
  C82      1.0000 0.76930  0.94560  0.64400  Biso   1.000  C
  C83      1.0000 0.81400  0.97380  0.69800  Biso   1.000  C
  C84      1.0000 0.88400  0.97240  0.69640  Biso   1.000  C
  H28      1.0000 0.90700  0.95330  0.66010  Biso   1.000  H
  O56      1.0000 0.79510  0.91510  0.59530  Biso   1.000  O
  O57      1.0000 0.70636  0.04550  0.84776  Biso   1.000  O
  C85      1.0000 0.76930  0.05440  0.85600  Biso   1.000  C
  C86      1.0000 0.81400  0.02620  0.80200  Biso   1.000  C
  C87      1.0000 0.88400  0.02760  0.80360  Biso   1.000  C
  H29      1.0000 0.90700  0.04670  0.83990  Biso   1.000  H
  O58      1.0000 0.79510  0.08490  0.90470  Biso   1.000  O
  O59      1.0000 0.20636  0.54550  0.34776  Biso   1.000  O
  C88      1.0000 0.26930  0.55440  0.35600  Biso   1.000  C
  C89      1.0000 0.31400  0.52620  0.30200  Biso   1.000  C
  C90      1.0000 0.38400  0.52760  0.30360  Biso   1.000  C
  H30      1.0000 0.40700  0.54670  0.33990  Biso   1.000  H
  O60      1.0000 0.29510  0.58490  0.40470  Biso   1.000  O
  O61      1.0000 0.79364  0.95450  0.34776  Biso   1.000  O
  C91      1.0000 0.73070  0.94560  0.35600  Biso   1.000  C
  C92      1.0000 0.68600  0.97380  0.30200  Biso   1.000  C
  C93      1.0000 0.61600  0.97240  0.30360  Biso   1.000  C
  H31      1.0000 0.59300  0.95330  0.33990  Biso   1.000  H
  O62      1.0000 0.70490  0.91510  0.40470  Biso   1.000  O
  O63      1.0000 0.29364  0.45450  0.84776  Biso   1.000  O
  C94      1.0000 0.23070  0.44560  0.85600  Biso   1.000  C
  C95      1.0000 0.18600  0.47380  0.80200  Biso   1.000  C
  C96      1.0000 0.11600  0.47240  0.80360  Biso   1.000  C
  H32      1.0000 0.09300  0.45330  0.83990  Biso   1.000  H
  O64      1.0000 0.20490  0.41510  0.90470  Biso   1.000  O
  O65      1.0000 0.65224  0.29364  0.54550  Biso   1.000  O
  C97      1.0000 0.64400  0.23070  0.55440  Biso   1.000  C
  C98      1.0000 0.69800  0.18600  0.52620  Biso   1.000  C
  C99      1.0000 0.69640  0.11600  0.52760  Biso   1.000  C
  H33      1.0000 0.66010  0.09300  0.54670  Biso   1.000  H
  O66      1.0000 0.59530  0.20490  0.58490  Biso   1.000  O
  O67      1.0000 0.15224  0.79364  0.04550  Biso   1.000  O
  C100     1.0000 0.14400  0.73070  0.05440  Biso   1.000  C
  C101     1.0000 0.19800  0.68600  0.02620  Biso   1.000  C
  C102     1.0000 0.19640  0.61600  0.02760  Biso   1.000  C
  H34      1.0000 0.16010  0.59300  0.04670  Biso   1.000  H
  O68      1.0000 0.09530  0.70490  0.08490  Biso   1.000  O
  O69      1.0000 0.15224  0.20636  0.45450  Biso   1.000  O
  C103     1.0000 0.14400  0.26930  0.44560  Biso   1.000  C
  C104     1.0000 0.19800  0.31400  0.47380  Biso   1.000  C
  C105     1.0000 0.19640  0.38400  0.47240  Biso   1.000  C
  H35      1.0000 0.16010  0.40700  0.45330  Biso   1.000  H
  O70      1.0000 0.09530  0.29510  0.41510  Biso   1.000  O
  O71      1.0000 0.65224  0.70636  0.95450  Biso   1.000  O
  C106     1.0000 0.64400  0.76930  0.94560  Biso   1.000  C
  C107     1.0000 0.69800  0.81400  0.97380  Biso   1.000  C
  C108     1.0000 0.69640  0.88400  0.97240  Biso   1.000  C
  H36      1.0000 0.66010  0.90700  0.95330  Biso   1.000  H
  O72      1.0000 0.59530  0.79510  0.91510  Biso   1.000  O
  O73      1.0000 0.84776  0.70636  0.04550  Biso   1.000  O
  C109     1.0000 0.85600  0.76930  0.05440  Biso   1.000  C
  C110     1.0000 0.80200  0.81400  0.02620  Biso   1.000  C
  C111     1.0000 0.80360  0.88400  0.02760  Biso   1.000  C
  H37      1.0000 0.83990  0.90700  0.04670  Biso   1.000  H
  O74      1.0000 0.90470  0.79510  0.08490  Biso   1.000  O
  O75      1.0000 0.34776  0.20636  0.54550  Biso   1.000  O
  C112     1.0000 0.35600  0.26930  0.55440  Biso   1.000  C
  C113     1.0000 0.30200  0.31400  0.52620  Biso   1.000  C
  C114     1.0000 0.30360  0.38400  0.52760  Biso   1.000  C
  H38      1.0000 0.33990  0.40700  0.54670  Biso   1.000  H
  O76      1.0000 0.40470  0.29510  0.58490  Biso   1.000  O
  O77      1.0000 0.34776  0.79364  0.95450  Biso   1.000  O
  C115     1.0000 0.35600  0.73070  0.94560  Biso   1.000  C
  C116     1.0000 0.30200  0.68600  0.97380  Biso   1.000  C
  C117     1.0000 0.30360  0.61600  0.97240  Biso   1.000  C
  H39      1.0000 0.33990  0.59300  0.95330  Biso   1.000  H
  O78      1.0000 0.40470  0.70490  0.91510  Biso   1.000  O
  O79      1.0000 0.84776  0.29364  0.45450  Biso   1.000  O
  C118     1.0000 0.85600  0.23070  0.44560  Biso   1.000  C
  C119     1.0000 0.80200  0.18600  0.47380  Biso   1.000  C
  C120     1.0000 0.80360  0.11600  0.47240  Biso   1.000  C
  H40      1.0000 0.83990  0.09300  0.45330  Biso   1.000  H
  O80      1.0000 0.90470  0.20490  0.41510  Biso   1.000  O
  O81      1.0000 0.54550  0.65224  0.29364  Biso   1.000  O
  C121     1.0000 0.55440  0.64400  0.23070  Biso   1.000  C
  C122     1.0000 0.52620  0.69800  0.18600  Biso   1.000  C
  C123     1.0000 0.52760  0.69640  0.11600  Biso   1.000  C
  H41      1.0000 0.54670  0.66010  0.09300  Biso   1.000  H
  O82      1.0000 0.58490  0.59530  0.20490  Biso   1.000  O
  O83      1.0000 0.04550  0.15224  0.79364  Biso   1.000  O
  C124     1.0000 0.05440  0.14400  0.73070  Biso   1.000  C
  C125     1.0000 0.02620  0.19800  0.68600  Biso   1.000  C
  C126     1.0000 0.02760  0.19640  0.61600  Biso   1.000  C
  H42      1.0000 0.04670  0.16010  0.59300  Biso   1.000  H
  O84      1.0000 0.08490  0.09530  0.70490  Biso   1.000  O
  O85      1.0000 0.45450  0.15224  0.20636  Biso   1.000  O
  C127     1.0000 0.44560  0.14400  0.26930  Biso   1.000  C
  C128     1.0000 0.47380  0.19800  0.31400  Biso   1.000  C
  C129     1.0000 0.47240  0.19640  0.38400  Biso   1.000  C
  H43      1.0000 0.45330  0.16010  0.40700  Biso   1.000  H
  O86      1.0000 0.41510  0.09530  0.29510  Biso   1.000  O
  O87      1.0000 0.95450  0.65224  0.70636  Biso   1.000  O
  C130     1.0000 0.94560  0.64400  0.76930  Biso   1.000  C
  C131     1.0000 0.97380  0.69800  0.81400  Biso   1.000  C
  C132     1.0000 0.97240  0.69640  0.88400  Biso   1.000  C
  H44      1.0000 0.95330  0.66010  0.90700  Biso   1.000  H
  O88      1.0000 0.91510  0.59530  0.79510  Biso   1.000  O
  O89      1.0000 0.04550  0.84776  0.70636  Biso   1.000  O
  C133     1.0000 0.05440  0.85600  0.76930  Biso   1.000  C
  C134     1.0000 0.02620  0.80200  0.81400  Biso   1.000  C
  C135     1.0000 0.02760  0.80360  0.88400  Biso   1.000  C
  H45      1.0000 0.04670  0.83990  0.90700  Biso   1.000  H
  O90      1.0000 0.08490  0.90470  0.79510  Biso   1.000  O
  O91      1.0000 0.54550  0.34776  0.20636  Biso   1.000  O
  C136     1.0000 0.55440  0.35600  0.26930  Biso   1.000  C
  C137     1.0000 0.52620  0.30200  0.31400  Biso   1.000  C
  C138     1.0000 0.52760  0.30360  0.38400  Biso   1.000  C
  H46      1.0000 0.54670  0.33990  0.40700  Biso   1.000  H
  O92      1.0000 0.58490  0.40470  0.29510  Biso   1.000  O
  O93      1.0000 0.95450  0.34776  0.79364  Biso   1.000  O
  C139     1.0000 0.94560  0.35600  0.73070  Biso   1.000  C
  C140     1.0000 0.97380  0.30200  0.68600  Biso   1.000  C
  C141     1.0000 0.97240  0.30360  0.61600  Biso   1.000  C
  H47      1.0000 0.95330  0.33990  0.59300  Biso   1.000  H
  O94      1.0000 0.91510  0.40470  0.70490  Biso   1.000  O
  O95      1.0000 0.45450  0.84776  0.29364  Biso   1.000  O
  C142     1.0000 0.44560  0.85600  0.23070  Biso   1.000  C
  C143     1.0000 0.47380  0.80200  0.18600  Biso   1.000  C
  C144     1.0000 0.47240  0.80360  0.11600  Biso   1.000  C
  H48      1.0000 0.45330  0.83990  0.09300  Biso   1.000  H
  O96      1.0000 0.41510  0.90470  0.20490  Biso   1.000  O
  Eu1      1.0000 0.65219  0.50000  0.25000  Biso   1.000  Eu
  N1       1.0000 0.77950  0.50000  0.25000  Biso   1.000  N
  C145     1.0000 0.91850  0.50000  0.25000  Biso   1.000  C
  H49      1.0000 0.96550  0.50000  0.25000  Biso   1.000  H
  Eu2      1.0000 0.84781  0.50000  0.75000  Biso   1.000  Eu
  N2       1.0000 0.72050  0.50000  0.75000  Biso   1.000  N
  C146     1.0000 0.58150  0.50000  0.75000  Biso   1.000  C
  H50      1.0000 0.53450  0.50000  0.75000  Biso   1.000  H
  Eu3      1.0000 0.34781  0.00000  0.25000  Biso   1.000  Eu
  N3       1.0000 0.22050  0.00000  0.25000  Biso   1.000  N
  C147     1.0000 0.08150  0.00000  0.25000  Biso   1.000  C
  H51      1.0000 0.03450  0.00000  0.25000  Biso   1.000  H
  Eu4      1.0000 0.15219  0.00000  0.75000  Biso   1.000  Eu
  N4       1.0000 0.27950  0.00000  0.75000  Biso   1.000  N
  C148     1.0000 0.41850  0.00000  0.75000  Biso   1.000  C
  H52      1.0000 0.46550  0.00000  0.75000  Biso   1.000  H
  Eu5      1.0000 0.25000  0.65219  0.50000  Biso   1.000  Eu
  N5       1.0000 0.25000  0.77950  0.50000  Biso   1.000  N
  C149     1.0000 0.25000  0.91850  0.50000  Biso   1.000  C
  H53      1.0000 0.25000  0.96550  0.50000  Biso   1.000  H
  Eu6      1.0000 0.75000  0.84781  0.50000  Biso   1.000  Eu
  N6       1.0000 0.75000  0.72050  0.50000  Biso   1.000  N
  C150     1.0000 0.75000  0.58150  0.50000  Biso   1.000  C
  H54      1.0000 0.75000  0.53450  0.50000  Biso   1.000  H
  Eu7      1.0000 0.25000  0.34781  0.00000  Biso   1.000  Eu
  N7       1.0000 0.25000  0.22050  0.00000  Biso   1.000  N
  C151     1.0000 0.25000  0.08150  0.00000  Biso   1.000  C
  H55      1.0000 0.25000  0.03450  0.00000  Biso   1.000  H
  Eu8      1.0000 0.75000  0.15219  0.00000  Biso   1.000  Eu
  N8       1.0000 0.75000  0.27950  0.00000  Biso   1.000  N
  C152     1.0000 0.75000  0.41850  0.00000  Biso   1.000  C
  H56      1.0000 0.75000  0.46550  0.00000  Biso   1.000  H
  Eu9      1.0000 0.50000  0.25000  0.65219  Biso   1.000  Eu
  N9       1.0000 0.50000  0.25000  0.77950  Biso   1.000  N
  C153     1.0000 0.50000  0.25000  0.91850  Biso   1.000  C
  H57      1.0000 0.50000  0.25000  0.96550  Biso   1.000  H
  Eu10     1.0000 0.50000  0.75000  0.84781  Biso   1.000  Eu
  N10      1.0000 0.50000  0.75000  0.72050  Biso   1.000  N
  C154     1.0000 0.50000  0.75000  0.58150  Biso   1.000  C
  H58      1.0000 0.50000  0.75000  0.53450  Biso   1.000  H
  Eu11     1.0000 0.00000  0.25000  0.34781  Biso   1.000  Eu
  N11      1.0000 0.00000  0.25000  0.22050  Biso   1.000  N
  C155     1.0000 0.00000  0.25000  0.08150  Biso   1.000  C
  H59      1.0000 0.00000  0.25000  0.03450  Biso   1.000  H
  Eu12     1.0000 0.00000  0.75000  0.15219  Biso   1.000  Eu
  N12      1.0000 0.00000  0.75000  0.27950  Biso   1.000  N
  C156     1.0000 0.00000  0.75000  0.41850  Biso   1.000  C
  H60      1.0000 0.00000  0.75000  0.46550  Biso   1.000  H
  Eu13     1.0000 0.34781  0.50000  0.75000  Biso   1.000  Eu
  N13      1.0000 0.22050  0.50000  0.75000  Biso   1.000  N
  C157     1.0000 0.08150  0.50000  0.75000  Biso   1.000  C
  H61      1.0000 0.03450  0.50000  0.75000  Biso   1.000  H
  Eu14     1.0000 0.15219  0.50000  0.25000  Biso   1.000  Eu
  N14      1.0000 0.27950  0.50000  0.25000  Biso   1.000  N
  C158     1.0000 0.41850  0.50000  0.25000  Biso   1.000  C
  H62      1.0000 0.46550  0.50000  0.25000  Biso   1.000  H
  Eu15     1.0000 0.65219  0.00000  0.75000  Biso   1.000  Eu
  N15      1.0000 0.77950  0.00000  0.75000  Biso   1.000  N
  C159     1.0000 0.91850  0.00000  0.75000  Biso   1.000  C
  H63      1.0000 0.96550  0.00000  0.75000  Biso   1.000  H
  Eu16     1.0000 0.84781  0.00000  0.25000  Biso   1.000  Eu
  N16      1.0000 0.72050  0.00000  0.25000  Biso   1.000  N
  C160     1.0000 0.58150  0.00000  0.25000  Biso   1.000  C
  H64      1.0000 0.53450  0.00000  0.25000  Biso   1.000  H
  Eu17     1.0000 0.75000  0.34781  0.50000  Biso   1.000  Eu
  N17      1.0000 0.75000  0.22050  0.50000  Biso   1.000  N
  C161     1.0000 0.75000  0.08150  0.50000  Biso   1.000  C
  H65      1.0000 0.75000  0.03450  0.50000  Biso   1.000  H
  Eu18     1.0000 0.25000  0.15219  0.50000  Biso   1.000  Eu
  N18      1.0000 0.25000  0.27950  0.50000  Biso   1.000  N
  C162     1.0000 0.25000  0.41850  0.50000  Biso   1.000  C
  H66      1.0000 0.25000  0.46550  0.50000  Biso   1.000  H
  Eu19     1.0000 0.75000  0.65219  0.00000  Biso   1.000  Eu
  N19      1.0000 0.75000  0.77950  0.00000  Biso   1.000  N
  C163     1.0000 0.75000  0.91850  0.00000  Biso   1.000  C
  H67      1.0000 0.75000  0.96550  0.00000  Biso   1.000  H
  Eu20     1.0000 0.25000  0.84781  0.00000  Biso   1.000  Eu
  N20      1.0000 0.25000  0.72050  0.00000  Biso   1.000  N
  C164     1.0000 0.25000  0.58150  0.00000  Biso   1.000  C
  H68      1.0000 0.25000  0.53450  0.00000  Biso   1.000  H
  Eu21     1.0000 0.50000  0.75000  0.34781  Biso   1.000  Eu
  N21      1.0000 0.50000  0.75000  0.22050  Biso   1.000  N
  C165     1.0000 0.50000  0.75000  0.08150  Biso   1.000  C
  H69      1.0000 0.50000  0.75000  0.03450  Biso   1.000  H
  Eu22     1.0000 0.50000  0.25000  0.15219  Biso   1.000  Eu
  N22      1.0000 0.50000  0.25000  0.27950  Biso   1.000  N
  C166     1.0000 0.50000  0.25000  0.41850  Biso   1.000  C
  H70      1.0000 0.50000  0.25000  0.46550  Biso   1.000  H
  Eu23     1.0000 0.00000  0.75000  0.65219  Biso   1.000  Eu
  N23      1.0000 0.00000  0.75000  0.77950  Biso   1.000  N
  C167     1.0000 0.00000  0.75000  0.91850  Biso   1.000  C
  H71      1.0000 0.00000  0.75000  0.96550  Biso   1.000  H
  Eu24     1.0000 0.00000  0.25000  0.84781  Biso   1.000  Eu
  N24      1.0000 0.00000  0.25000  0.72050  Biso   1.000  N
  C168     1.0000 0.00000  0.25000  0.58150  Biso   1.000  C
  H72      1.0000 0.00000  0.25000  0.53450  Biso   1.000  H
