data_image0
_cell_length_a       19.8085
_cell_length_b       19.8085
_cell_length_c       19.8085
_cell_angle_alpha    90
_cell_angle_beta     90
_cell_angle_gamma    90

_symmetry_space_group_name_H-M    "P 1"
_symmetry_int_tables_number       1

loop_
  _symmetry_equiv_pos_as_xyz
  'x, y, z'

loop_
  _atom_site_label
  _atom_site_occupancy
  _atom_site_fract_x
  _atom_site_fract_y
  _atom_site_fract_z
  _atom_site_thermal_displace_type
  _atom_site_B_iso_or_equiv
  _atom_site_type_symbol
  Eu1      1.0000 0.49325  0.24701  0.15309  Biso   1.000  Eu
  O1       1.0000 0.45080  0.14720  0.20600  Biso   1.000  O
  O2       1.0000 0.54130  0.34230  0.20920  Biso   1.000  O
  O3       1.0000 0.41740  0.08600  0.29430  Biso   1.000  O
  O4       1.0000 0.58920  0.39350  0.29690  Biso   1.000  O
  N1       1.0000 0.49950  0.24190  0.28050  Biso   1.000  N
  C1       1.0000 0.44510  0.13570  0.26870  Biso   1.000  C
  C2       1.0000 0.55440  0.34800  0.27170  Biso   1.000  C
  C3       1.0000 0.52740  0.29280  0.31590  Biso   1.000  C
  C4       1.0000 0.47430  0.18880  0.31420  Biso   1.000  C
  C5       1.0000 0.52980  0.29300  0.38510  Biso   1.000  C
  H1       1.0000 0.54920  0.32870  0.40860  Biso   1.000  H
  C6       1.0000 0.47370  0.18670  0.38400  Biso   1.000  C
  H2       1.0000 0.45410  0.15060  0.40680  Biso   1.000  H
  C7       1.0000 0.50240  0.23850  0.41880  Biso   1.000  C
  H3       1.0000 0.50360  0.23710  0.46570  Biso   1.000  H
  Eu2      1.0000 0.00675  0.75299  0.65309  Biso   1.000  Eu
  O5       1.0000 0.04920  0.85280  0.70600  Biso   1.000  O
  O6       1.0000 0.95870  0.65770  0.70920  Biso   1.000  O
  O7       1.0000 0.08260  0.91400  0.79430  Biso   1.000  O
  O8       1.0000 0.91080  0.60650  0.79690  Biso   1.000  O
  N2       1.0000 0.00050  0.75810  0.78050  Biso   1.000  N
  C8       1.0000 0.05490  0.86430  0.76870  Biso   1.000  C
  C9       1.0000 0.94560  0.65200  0.77170  Biso   1.000  C
  C10      1.0000 0.97260  0.70720  0.81590  Biso   1.000  C
  C11      1.0000 0.02570  0.81120  0.81420  Biso   1.000  C
  C12      1.0000 0.97020  0.70700  0.88510  Biso   1.000  C
  H4       1.0000 0.95080  0.67130  0.90860  Biso   1.000  H
  C13      1.0000 0.02630  0.81330  0.88400  Biso   1.000  C
  H5       1.0000 0.04590  0.84940  0.90680  Biso   1.000  H
  C14      1.0000 0.99760  0.76150  0.91880  Biso   1.000  C
  H6       1.0000 0.99640  0.76290  0.96570  Biso   1.000  H
  Eu3      1.0000 0.50675  0.74701  0.34691  Biso   1.000  Eu
  O9       1.0000 0.54920  0.64720  0.29400  Biso   1.000  O
  O10      1.0000 0.45870  0.84230  0.29080  Biso   1.000  O
  O11      1.0000 0.58260  0.58600  0.20570  Biso   1.000  O
  O12      1.0000 0.41080  0.89350  0.20310  Biso   1.000  O
  N3       1.0000 0.50050  0.74190  0.21950  Biso   1.000  N
  C15      1.0000 0.55490  0.63570  0.23130  Biso   1.000  C
  C16      1.0000 0.44560  0.84800  0.22830  Biso   1.000  C
  C17      1.0000 0.47260  0.79280  0.18410  Biso   1.000  C
  C18      1.0000 0.52570  0.68880  0.18580  Biso   1.000  C
  C19      1.0000 0.47020  0.79300  0.11490  Biso   1.000  C
  H7       1.0000 0.45080  0.82870  0.09140  Biso   1.000  H
  C20      1.0000 0.52630  0.68670  0.11600  Biso   1.000  C
  H8       1.0000 0.54590  0.65060  0.09320  Biso   1.000  H
  C21      1.0000 0.49760  0.73850  0.08120  Biso   1.000  C
  H9       1.0000 0.49640  0.73710  0.03430  Biso   1.000  H
  Eu4      1.0000 0.99325  0.25299  0.84691  Biso   1.000  Eu
  O13      1.0000 0.95080  0.35280  0.79400  Biso   1.000  O
  O14      1.0000 0.04130  0.15770  0.79080  Biso   1.000  O
  O15      1.0000 0.91740  0.41400  0.70570  Biso   1.000  O
  O16      1.0000 0.08920  0.10650  0.70310  Biso   1.000  O
  N4       1.0000 0.99950  0.25810  0.71950  Biso   1.000  N
  C22      1.0000 0.94510  0.36430  0.73130  Biso   1.000  C
  C23      1.0000 0.05440  0.15200  0.72830  Biso   1.000  C
  C24      1.0000 0.02740  0.20720  0.68410  Biso   1.000  C
  C25      1.0000 0.97430  0.31120  0.68580  Biso   1.000  C
  C26      1.0000 0.02980  0.20700  0.61490  Biso   1.000  C
  H10      1.0000 0.04920  0.17130  0.59140  Biso   1.000  H
  C27      1.0000 0.97370  0.31330  0.61600  Biso   1.000  C
  H11      1.0000 0.95410  0.34940  0.59320  Biso   1.000  H
  C28      1.0000 0.00240  0.26150  0.58120  Biso   1.000  C
  H12      1.0000 0.00360  0.26290  0.53430  Biso   1.000  H
  Eu5      1.0000 0.15309  0.49325  0.24701  Biso   1.000  Eu
  O17      1.0000 0.20600  0.45080  0.14720  Biso   1.000  O
  O18      1.0000 0.20920  0.54130  0.34230  Biso   1.000  O
  O19      1.0000 0.29430  0.41740  0.08600  Biso   1.000  O
  O20      1.0000 0.29690  0.58920  0.39350  Biso   1.000  O
  N5       1.0000 0.28050  0.49950  0.24190  Biso   1.000  N
  C29      1.0000 0.26870  0.44510  0.13570  Biso   1.000  C
  C30      1.0000 0.27170  0.55440  0.34800  Biso   1.000  C
  C31      1.0000 0.31590  0.52740  0.29280  Biso   1.000  C
  C32      1.0000 0.31420  0.47430  0.18880  Biso   1.000  C
  C33      1.0000 0.38510  0.52980  0.29300  Biso   1.000  C
  H13      1.0000 0.40860  0.54920  0.32870  Biso   1.000  H
  C34      1.0000 0.38400  0.47370  0.18670  Biso   1.000  C
  H14      1.0000 0.40680  0.45410  0.15060  Biso   1.000  H
  C35      1.0000 0.41880  0.50240  0.23850  Biso   1.000  C
  H15      1.0000 0.46570  0.50360  0.23710  Biso   1.000  H
  Eu6      1.0000 0.65309  0.00675  0.75299  Biso   1.000  Eu
  O21      1.0000 0.70600  0.04920  0.85280  Biso   1.000  O
  O22      1.0000 0.70920  0.95870  0.65770  Biso   1.000  O
  O23      1.0000 0.79430  0.08260  0.91400  Biso   1.000  O
  O24      1.0000 0.79690  0.91080  0.60650  Biso   1.000  O
  N6       1.0000 0.78050  0.00050  0.75810  Biso   1.000  N
  C36      1.0000 0.76870  0.05490  0.86430  Biso   1.000  C
  C37      1.0000 0.77170  0.94560  0.65200  Biso   1.000  C
  C38      1.0000 0.81590  0.97260  0.70720  Biso   1.000  C
  C39      1.0000 0.81420  0.02570  0.81120  Biso   1.000  C
  C40      1.0000 0.88510  0.97020  0.70700  Biso   1.000  C
  H16      1.0000 0.90860  0.95080  0.67130  Biso   1.000  H
  C41      1.0000 0.88400  0.02630  0.81330  Biso   1.000  C
  H17      1.0000 0.90680  0.04590  0.84940  Biso   1.000  H
  C42      1.0000 0.91880  0.99760  0.76150  Biso   1.000  C
  H18      1.0000 0.96570  0.99640  0.76290  Biso   1.000  H
  Eu7      1.0000 0.34691  0.50675  0.74701  Biso   1.000  Eu
  O25      1.0000 0.29400  0.54920  0.64720  Biso   1.000  O
  O26      1.0000 0.29080  0.45870  0.84230  Biso   1.000  O
  O27      1.0000 0.20570  0.58260  0.58600  Biso   1.000  O
  O28      1.0000 0.20310  0.41080  0.89350  Biso   1.000  O
  N7       1.0000 0.21950  0.50050  0.74190  Biso   1.000  N
  C43      1.0000 0.23130  0.55490  0.63570  Biso   1.000  C
  C44      1.0000 0.22830  0.44560  0.84800  Biso   1.000  C
  C45      1.0000 0.18410  0.47260  0.79280  Biso   1.000  C
  C46      1.0000 0.18580  0.52570  0.68880  Biso   1.000  C
  C47      1.0000 0.11490  0.47020  0.79300  Biso   1.000  C
  H19      1.0000 0.09140  0.45080  0.82870  Biso   1.000  H
  C48      1.0000 0.11600  0.52630  0.68670  Biso   1.000  C
  H20      1.0000 0.09320  0.54590  0.65060  Biso   1.000  H
  C49      1.0000 0.08120  0.49760  0.73850  Biso   1.000  C
  H21      1.0000 0.03430  0.49640  0.73710  Biso   1.000  H
  Eu8      1.0000 0.84691  0.99325  0.25299  Biso   1.000  Eu
  O29      1.0000 0.79400  0.95080  0.35280  Biso   1.000  O
  O30      1.0000 0.79080  0.04130  0.15770  Biso   1.000  O
  O31      1.0000 0.70570  0.91740  0.41400  Biso   1.000  O
  O32      1.0000 0.70310  0.08920  0.10650  Biso   1.000  O
  N8       1.0000 0.71950  0.99950  0.25810  Biso   1.000  N
  C50      1.0000 0.73130  0.94510  0.36430  Biso   1.000  C
  C51      1.0000 0.72830  0.05440  0.15200  Biso   1.000  C
  C52      1.0000 0.68410  0.02740  0.20720  Biso   1.000  C
  C53      1.0000 0.68580  0.97430  0.31120  Biso   1.000  C
  C54      1.0000 0.61490  0.02980  0.20700  Biso   1.000  C
  H22      1.0000 0.59140  0.04920  0.17130  Biso   1.000  H
  C55      1.0000 0.61600  0.97370  0.31330  Biso   1.000  C
  H23      1.0000 0.59320  0.95410  0.34940  Biso   1.000  H
  C56      1.0000 0.58120  0.00240  0.26150  Biso   1.000  C
  H24      1.0000 0.53430  0.00360  0.26290  Biso   1.000  H
  Eu9      1.0000 0.24701  0.15309  0.49325  Biso   1.000  Eu
  O33      1.0000 0.14720  0.20600  0.45080  Biso   1.000  O
  O34      1.0000 0.34230  0.20920  0.54130  Biso   1.000  O
  O35      1.0000 0.08600  0.29430  0.41740  Biso   1.000  O
  O36      1.0000 0.39350  0.29690  0.58920  Biso   1.000  O
  N9       1.0000 0.24190  0.28050  0.49950  Biso   1.000  N
  C57      1.0000 0.13570  0.26870  0.44510  Biso   1.000  C
  C58      1.0000 0.34800  0.27170  0.55440  Biso   1.000  C
  C59      1.0000 0.29280  0.31590  0.52740  Biso   1.000  C
  C60      1.0000 0.18880  0.31420  0.47430  Biso   1.000  C
  C61      1.0000 0.29300  0.38510  0.52980  Biso   1.000  C
  H25      1.0000 0.32870  0.40860  0.54920  Biso   1.000  H
  C62      1.0000 0.18670  0.38400  0.47370  Biso   1.000  C
  H26      1.0000 0.15060  0.40680  0.45410  Biso   1.000  H
  C63      1.0000 0.23850  0.41880  0.50240  Biso   1.000  C
  H27      1.0000 0.23710  0.46570  0.50360  Biso   1.000  H
  Eu10     1.0000 0.75299  0.65309  0.00675  Biso   1.000  Eu
  O37      1.0000 0.85280  0.70600  0.04920  Biso   1.000  O
  O38      1.0000 0.65770  0.70920  0.95870  Biso   1.000  O
  O39      1.0000 0.91400  0.79430  0.08260  Biso   1.000  O
  O40      1.0000 0.60650  0.79690  0.91080  Biso   1.000  O
  N10      1.0000 0.75810  0.78050  0.00050  Biso   1.000  N
  C64      1.0000 0.86430  0.76870  0.05490  Biso   1.000  C
  C65      1.0000 0.65200  0.77170  0.94560  Biso   1.000  C
  C66      1.0000 0.70720  0.81590  0.97260  Biso   1.000  C
  C67      1.0000 0.81120  0.81420  0.02570  Biso   1.000  C
  C68      1.0000 0.70700  0.88510  0.97020  Biso   1.000  C
  H28      1.0000 0.67130  0.90860  0.95080  Biso   1.000  H
  C69      1.0000 0.81330  0.88400  0.02630  Biso   1.000  C
  H29      1.0000 0.84940  0.90680  0.04590  Biso   1.000  H
  C70      1.0000 0.76150  0.91880  0.99760  Biso   1.000  C
  H30      1.0000 0.76290  0.96570  0.99640  Biso   1.000  H
  Eu11     1.0000 0.74701  0.34691  0.50675  Biso   1.000  Eu
  O41      1.0000 0.64720  0.29400  0.54920  Biso   1.000  O
  O42      1.0000 0.84230  0.29080  0.45870  Biso   1.000  O
  O43      1.0000 0.58600  0.20570  0.58260  Biso   1.000  O
  O44      1.0000 0.89350  0.20310  0.41080  Biso   1.000  O
  N11      1.0000 0.74190  0.21950  0.50050  Biso   1.000  N
  C71      1.0000 0.63570  0.23130  0.55490  Biso   1.000  C
  C72      1.0000 0.84800  0.22830  0.44560  Biso   1.000  C
  C73      1.0000 0.79280  0.18410  0.47260  Biso   1.000  C
  C74      1.0000 0.68880  0.18580  0.52570  Biso   1.000  C
  C75      1.0000 0.79300  0.11490  0.47020  Biso   1.000  C
  H31      1.0000 0.82870  0.09140  0.45080  Biso   1.000  H
  C76      1.0000 0.68670  0.11600  0.52630  Biso   1.000  C
  H32      1.0000 0.65060  0.09320  0.54590  Biso   1.000  H
  C77      1.0000 0.73850  0.08120  0.49760  Biso   1.000  C
  H33      1.0000 0.73710  0.03430  0.49640  Biso   1.000  H
  Eu12     1.0000 0.25299  0.84691  0.99325  Biso   1.000  Eu
  O45      1.0000 0.35280  0.79400  0.95080  Biso   1.000  O
  O46      1.0000 0.15770  0.79080  0.04130  Biso   1.000  O
  O47      1.0000 0.41400  0.70570  0.91740  Biso   1.000  O
  O48      1.0000 0.10650  0.70310  0.08920  Biso   1.000  O
  N12      1.0000 0.25810  0.71950  0.99950  Biso   1.000  N
  C78      1.0000 0.36430  0.73130  0.94510  Biso   1.000  C
  C79      1.0000 0.15200  0.72830  0.05440  Biso   1.000  C
  C80      1.0000 0.20720  0.68410  0.02740  Biso   1.000  C
  C81      1.0000 0.31120  0.68580  0.97430  Biso   1.000  C
  C82      1.0000 0.20700  0.61490  0.02980  Biso   1.000  C
  H34      1.0000 0.17130  0.59140  0.04920  Biso   1.000  H
  C83      1.0000 0.31330  0.61600  0.97370  Biso   1.000  C
  H35      1.0000 0.34940  0.59320  0.95410  Biso   1.000  H
  C84      1.0000 0.26150  0.58120  0.00240  Biso   1.000  C
  H36      1.0000 0.26290  0.53430  0.00360  Biso   1.000  H
  Eu13     1.0000 0.50675  0.75299  0.84691  Biso   1.000  Eu
  O49      1.0000 0.54920  0.85280  0.79400  Biso   1.000  O
  O50      1.0000 0.45870  0.65770  0.79080  Biso   1.000  O
  O51      1.0000 0.58260  0.91400  0.70570  Biso   1.000  O
  O52      1.0000 0.41080  0.60650  0.70310  Biso   1.000  O
  N13      1.0000 0.50050  0.75810  0.71950  Biso   1.000  N
  C85      1.0000 0.55490  0.86430  0.73130  Biso   1.000  C
  C86      1.0000 0.44560  0.65200  0.72830  Biso   1.000  C
  C87      1.0000 0.47260  0.70720  0.68410  Biso   1.000  C
  C88      1.0000 0.52570  0.81120  0.68580  Biso   1.000  C
  C89      1.0000 0.47020  0.70700  0.61490  Biso   1.000  C
  H37      1.0000 0.45080  0.67130  0.59140  Biso   1.000  H
  C90      1.0000 0.52630  0.81330  0.61600  Biso   1.000  C
  H38      1.0000 0.54590  0.84940  0.59320  Biso   1.000  H
  C91      1.0000 0.49760  0.76150  0.58120  Biso   1.000  C
  H39      1.0000 0.49640  0.76290  0.53430  Biso   1.000  H
  Eu14     1.0000 0.99325  0.24701  0.34691  Biso   1.000  Eu
  O53      1.0000 0.95080  0.14720  0.29400  Biso   1.000  O
  O54      1.0000 0.04130  0.34230  0.29080  Biso   1.000  O
  O55      1.0000 0.91740  0.08600  0.20570  Biso   1.000  O
  O56      1.0000 0.08920  0.39350  0.20310  Biso   1.000  O
  N14      1.0000 0.99950  0.24190  0.21950  Biso   1.000  N
  C92      1.0000 0.94510  0.13570  0.23130  Biso   1.000  C
  C93      1.0000 0.05440  0.34800  0.22830  Biso   1.000  C
  C94      1.0000 0.02740  0.29280  0.18410  Biso   1.000  C
  C95      1.0000 0.97430  0.18880  0.18580  Biso   1.000  C
  C96      1.0000 0.02980  0.29300  0.11490  Biso   1.000  C
  H40      1.0000 0.04920  0.32870  0.09140  Biso   1.000  H
  C97      1.0000 0.97370  0.18670  0.11600  Biso   1.000  C
  H41      1.0000 0.95410  0.15060  0.09320  Biso   1.000  H
  C98      1.0000 0.00240  0.23850  0.08120  Biso   1.000  C
  H42      1.0000 0.00360  0.23710  0.03430  Biso   1.000  H
  Eu15     1.0000 0.49325  0.25299  0.65309  Biso   1.000  Eu
  O57      1.0000 0.45080  0.35280  0.70600  Biso   1.000  O
  O58      1.0000 0.54130  0.15770  0.70920  Biso   1.000  O
  O59      1.0000 0.41740  0.41400  0.79430  Biso   1.000  O
  O60      1.0000 0.58920  0.10650  0.79690  Biso   1.000  O
  N15      1.0000 0.49950  0.25810  0.78050  Biso   1.000  N
  C99      1.0000 0.44510  0.36430  0.76870  Biso   1.000  C
  C100     1.0000 0.55440  0.15200  0.77170  Biso   1.000  C
  C101     1.0000 0.52740  0.20720  0.81590  Biso   1.000  C
  C102     1.0000 0.47430  0.31120  0.81420  Biso   1.000  C
  C103     1.0000 0.52980  0.20700  0.88510  Biso   1.000  C
  H43      1.0000 0.54920  0.17130  0.90860  Biso   1.000  H
  C104     1.0000 0.47370  0.31330  0.88400  Biso   1.000  C
  H44      1.0000 0.45410  0.34940  0.90680  Biso   1.000  H
  C105     1.0000 0.50240  0.26150  0.91880  Biso   1.000  C
  H45      1.0000 0.50360  0.26290  0.96570  Biso   1.000  H
  Eu16     1.0000 0.00675  0.74701  0.15309  Biso   1.000  Eu
  O61      1.0000 0.04920  0.64720  0.20600  Biso   1.000  O
  O62      1.0000 0.95870  0.84230  0.20920  Biso   1.000  O
  O63      1.0000 0.08260  0.58600  0.29430  Biso   1.000  O
  O64      1.0000 0.91080  0.89350  0.29690  Biso   1.000  O
  N16      1.0000 0.00050  0.74190  0.28050  Biso   1.000  N
  C106     1.0000 0.05490  0.63570  0.26870  Biso   1.000  C
  C107     1.0000 0.94560  0.84800  0.27170  Biso   1.000  C
  C108     1.0000 0.97260  0.79280  0.31590  Biso   1.000  C
  C109     1.0000 0.02570  0.68880  0.31420  Biso   1.000  C
  C110     1.0000 0.97020  0.79300  0.38510  Biso   1.000  C
  H46      1.0000 0.95080  0.82870  0.40860  Biso   1.000  H
  C111     1.0000 0.02630  0.68670  0.38400  Biso   1.000  C
  H47      1.0000 0.04590  0.65060  0.40680  Biso   1.000  H
  C112     1.0000 0.99760  0.73850  0.41880  Biso   1.000  C
  H48      1.0000 0.99640  0.73710  0.46570  Biso   1.000  H
  Eu17     1.0000 0.84691  0.50675  0.75299  Biso   1.000  Eu
  O65      1.0000 0.79400  0.54920  0.85280  Biso   1.000  O
  O66      1.0000 0.79080  0.45870  0.65770  Biso   1.000  O
  O67      1.0000 0.70570  0.58260  0.91400  Biso   1.000  O
  O68      1.0000 0.70310  0.41080  0.60650  Biso   1.000  O
  N17      1.0000 0.71950  0.50050  0.75810  Biso   1.000  N
  C113     1.0000 0.73130  0.55490  0.86430  Biso   1.000  C
  C114     1.0000 0.72830  0.44560  0.65200  Biso   1.000  C
  C115     1.0000 0.68410  0.47260  0.70720  Biso   1.000  C
  C116     1.0000 0.68580  0.52570  0.81120  Biso   1.000  C
  C117     1.0000 0.61490  0.47020  0.70700  Biso   1.000  C
  H49      1.0000 0.59140  0.45080  0.67130  Biso   1.000  H
  C118     1.0000 0.61600  0.52630  0.81330  Biso   1.000  C
  H50      1.0000 0.59320  0.54590  0.84940  Biso   1.000  H
  C119     1.0000 0.58120  0.49760  0.76150  Biso   1.000  C
  H51      1.0000 0.53430  0.49640  0.76290  Biso   1.000  H
  Eu18     1.0000 0.34691  0.99325  0.24701  Biso   1.000  Eu
  O69      1.0000 0.29400  0.95080  0.14720  Biso   1.000  O
  O70      1.0000 0.29080  0.04130  0.34230  Biso   1.000  O
  O71      1.0000 0.20570  0.91740  0.08600  Biso   1.000  O
  O72      1.0000 0.20310  0.08920  0.39350  Biso   1.000  O
  N18      1.0000 0.21950  0.99950  0.24190  Biso   1.000  N
  C120     1.0000 0.23130  0.94510  0.13570  Biso   1.000  C
  C121     1.0000 0.22830  0.05440  0.34800  Biso   1.000  C
  C122     1.0000 0.18410  0.02740  0.29280  Biso   1.000  C
  C123     1.0000 0.18580  0.97430  0.18880  Biso   1.000  C
  C124     1.0000 0.11490  0.02980  0.29300  Biso   1.000  C
  H52      1.0000 0.09140  0.04920  0.32870  Biso   1.000  H
  C125     1.0000 0.11600  0.97370  0.18670  Biso   1.000  C
  H53      1.0000 0.09320  0.95410  0.15060  Biso   1.000  H
  C126     1.0000 0.08120  0.00240  0.23850  Biso   1.000  C
  H54      1.0000 0.03430  0.00360  0.23710  Biso   1.000  H
  Eu19     1.0000 0.65309  0.49325  0.25299  Biso   1.000  Eu
  O73      1.0000 0.70600  0.45080  0.35280  Biso   1.000  O
  O74      1.0000 0.70920  0.54130  0.15770  Biso   1.000  O
  O75      1.0000 0.79430  0.41740  0.41400  Biso   1.000  O
  O76      1.0000 0.79690  0.58920  0.10650  Biso   1.000  O
  N19      1.0000 0.78050  0.49950  0.25810  Biso   1.000  N
  C127     1.0000 0.76870  0.44510  0.36430  Biso   1.000  C
  C128     1.0000 0.77170  0.55440  0.15200  Biso   1.000  C
  C129     1.0000 0.81590  0.52740  0.20720  Biso   1.000  C
  C130     1.0000 0.81420  0.47430  0.31120  Biso   1.000  C
  C131     1.0000 0.88510  0.52980  0.20700  Biso   1.000  C
  H55      1.0000 0.90860  0.54920  0.17130  Biso   1.000  H
  C132     1.0000 0.88400  0.47370  0.31330  Biso   1.000  C
  H56      1.0000 0.90680  0.45410  0.34940  Biso   1.000  H
  C133     1.0000 0.91880  0.50240  0.26150  Biso   1.000  C
  H57      1.0000 0.96570  0.50360  0.26290  Biso   1.000  H
  Eu20     1.0000 0.15309  0.00675  0.74701  Biso   1.000  Eu
  O77      1.0000 0.20600  0.04920  0.64720  Biso   1.000  O
  O78      1.0000 0.20920  0.95870  0.84230  Biso   1.000  O
  O79      1.0000 0.29430  0.08260  0.58600  Biso   1.000  O
  O80      1.0000 0.29690  0.91080  0.89350  Biso   1.000  O
  N20      1.0000 0.28050  0.00050  0.74190  Biso   1.000  N
  C134     1.0000 0.26870  0.05490  0.63570  Biso   1.000  C
  C135     1.0000 0.27170  0.94560  0.84800  Biso   1.000  C
  C136     1.0000 0.31590  0.97260  0.79280  Biso   1.000  C
  C137     1.0000 0.31420  0.02570  0.68880  Biso   1.000  C
  C138     1.0000 0.38510  0.97020  0.79300  Biso   1.000  C
  H58      1.0000 0.40860  0.95080  0.82870  Biso   1.000  H
  C139     1.0000 0.38400  0.02630  0.68670  Biso   1.000  C
  H59      1.0000 0.40680  0.04590  0.65060  Biso   1.000  H
  C140     1.0000 0.41880  0.99760  0.73850  Biso   1.000  C
  H60      1.0000 0.46570  0.99640  0.73710  Biso   1.000  H
  Eu21     1.0000 0.75299  0.84691  0.50675  Biso   1.000  Eu
  O81      1.0000 0.85280  0.79400  0.54920  Biso   1.000  O
  O82      1.0000 0.65770  0.79080  0.45870  Biso   1.000  O
  O83      1.0000 0.91400  0.70570  0.58260  Biso   1.000  O
  O84      1.0000 0.60650  0.70310  0.41080  Biso   1.000  O
  N21      1.0000 0.75810  0.71950  0.50050  Biso   1.000  N
  C141     1.0000 0.86430  0.73130  0.55490  Biso   1.000  C
  C142     1.0000 0.65200  0.72830  0.44560  Biso   1.000  C
  C143     1.0000 0.70720  0.68410  0.47260  Biso   1.000  C
  C144     1.0000 0.81120  0.68580  0.52570  Biso   1.000  C
  C145     1.0000 0.70700  0.61490  0.47020  Biso   1.000  C
  H61      1.0000 0.67130  0.59140  0.45080  Biso   1.000  H
  C146     1.0000 0.81330  0.61600  0.52630  Biso   1.000  C
  H62      1.0000 0.84940  0.59320  0.54590  Biso   1.000  H
  C147     1.0000 0.76150  0.58120  0.49760  Biso   1.000  C
  H63      1.0000 0.76290  0.53430  0.49640  Biso   1.000  H
  Eu22     1.0000 0.24701  0.34691  0.99325  Biso   1.000  Eu
  O85      1.0000 0.14720  0.29400  0.95080  Biso   1.000  O
  O86      1.0000 0.34230  0.29080  0.04130  Biso   1.000  O
  O87      1.0000 0.08600  0.20570  0.91740  Biso   1.000  O
  O88      1.0000 0.39350  0.20310  0.08920  Biso   1.000  O
  N22      1.0000 0.24190  0.21950  0.99950  Biso   1.000  N
  C148     1.0000 0.13570  0.23130  0.94510  Biso   1.000  C
  C149     1.0000 0.34800  0.22830  0.05440  Biso   1.000  C
  C150     1.0000 0.29280  0.18410  0.02740  Biso   1.000  C
  C151     1.0000 0.18880  0.18580  0.97430  Biso   1.000  C
  C152     1.0000 0.29300  0.11490  0.02980  Biso   1.000  C
  H64      1.0000 0.32870  0.09140  0.04920  Biso   1.000  H
  C153     1.0000 0.18670  0.11600  0.97370  Biso   1.000  C
  H65      1.0000 0.15060  0.09320  0.95410  Biso   1.000  H
  C154     1.0000 0.23850  0.08120  0.00240  Biso   1.000  C
  H66      1.0000 0.23710  0.03430  0.00360  Biso   1.000  H
  Eu23     1.0000 0.25299  0.65309  0.49325  Biso   1.000  Eu
  O89      1.0000 0.35280  0.70600  0.45080  Biso   1.000  O
  O90      1.0000 0.15770  0.70920  0.54130  Biso   1.000  O
  O91      1.0000 0.41400  0.79430  0.41740  Biso   1.000  O
  O92      1.0000 0.10650  0.79690  0.58920  Biso   1.000  O
  N23      1.0000 0.25810  0.78050  0.49950  Biso   1.000  N
  C155     1.0000 0.36430  0.76870  0.44510  Biso   1.000  C
  C156     1.0000 0.15200  0.77170  0.55440  Biso   1.000  C
  C157     1.0000 0.20720  0.81590  0.52740  Biso   1.000  C
  C158     1.0000 0.31120  0.81420  0.47430  Biso   1.000  C
  C159     1.0000 0.20700  0.88510  0.52980  Biso   1.000  C
  H67      1.0000 0.17130  0.90860  0.54920  Biso   1.000  H
  C160     1.0000 0.31330  0.88400  0.47370  Biso   1.000  C
  H68      1.0000 0.34940  0.90680  0.45410  Biso   1.000  H
  C161     1.0000 0.26150  0.91880  0.50240  Biso   1.000  C
  H69      1.0000 0.26290  0.96570  0.50360  Biso   1.000  H
  Eu24     1.0000 0.74701  0.15309  0.00675  Biso   1.000  Eu
  O93      1.0000 0.64720  0.20600  0.04920  Biso   1.000  O
  O94      1.0000 0.84230  0.20920  0.95870  Biso   1.000  O
  O95      1.0000 0.58600  0.29430  0.08260  Biso   1.000  O
  O96      1.0000 0.89350  0.29690  0.91080  Biso   1.000  O
  N24      1.0000 0.74190  0.28050  0.00050  Biso   1.000  N
  C162     1.0000 0.63570  0.26870  0.05490  Biso   1.000  C
  C163     1.0000 0.84800  0.27170  0.94560  Biso   1.000  C
  C164     1.0000 0.79280  0.31590  0.97260  Biso   1.000  C
  C165     1.0000 0.68880  0.31420  0.02570  Biso   1.000  C
  C166     1.0000 0.79300  0.38510  0.97020  Biso   1.000  C
  H70      1.0000 0.82870  0.40860  0.95080  Biso   1.000  H
  C167     1.0000 0.68670  0.38400  0.02630  Biso   1.000  C
  H71      1.0000 0.65060  0.40680  0.04590  Biso   1.000  H
  C168     1.0000 0.73850  0.41880  0.99760  Biso   1.000  C
  H72      1.0000 0.73710  0.46570  0.99640  Biso   1.000  H
