data_image0
_cell_length_a       19.8346
_cell_length_b       19.8346
_cell_length_c       19.8346
_cell_angle_alpha    90
_cell_angle_beta     90
_cell_angle_gamma    90

_symmetry_space_group_name_H-M    "P 1"
_symmetry_int_tables_number       1

loop_
  _symmetry_equiv_pos_as_xyz
  'x, y, z'

loop_
  _atom_site_label
  _atom_site_occupancy
  _atom_site_fract_x
  _atom_site_fract_y
  _atom_site_fract_z
  _atom_site_thermal_displace_type
  _atom_site_B_iso_or_equiv
  _atom_site_type_symbol
  O1       1.0000 0.45440  0.65180  0.79323  Biso   1.000  O
  O2       1.0000 0.41530  0.59550  0.70440  Biso   1.000  O
  C1       1.0000 0.44590  0.64390  0.73030  Biso   1.000  C
  C2       1.0000 0.47360  0.69840  0.68580  Biso   1.000  C
  C3       1.0000 0.47220  0.69660  0.61620  Biso   1.000  C
  H1       1.0000 0.45300  0.66050  0.59320  Biso   1.000  H
  O3       1.0000 0.95440  0.15180  0.29323  Biso   1.000  O
  O4       1.0000 0.91530  0.09550  0.20440  Biso   1.000  O
  C4       1.0000 0.94590  0.14390  0.23030  Biso   1.000  C
  C5       1.0000 0.97360  0.19840  0.18580  Biso   1.000  C
  C6       1.0000 0.97220  0.19660  0.11620  Biso   1.000  C
  H2       1.0000 0.95300  0.16050  0.09320  Biso   1.000  H
  O5       1.0000 0.04560  0.34820  0.29323  Biso   1.000  O
  O6       1.0000 0.08470  0.40450  0.20440  Biso   1.000  O
  C7       1.0000 0.05410  0.35610  0.23030  Biso   1.000  C
  C8       1.0000 0.02640  0.30160  0.18580  Biso   1.000  C
  C9       1.0000 0.02780  0.30340  0.11620  Biso   1.000  C
  H3       1.0000 0.04700  0.33950  0.09320  Biso   1.000  H
  O7       1.0000 0.54560  0.84820  0.79323  Biso   1.000  O
  O8       1.0000 0.58470  0.90450  0.70440  Biso   1.000  O
  C10      1.0000 0.55410  0.85610  0.73030  Biso   1.000  C
  C11      1.0000 0.52640  0.80160  0.68580  Biso   1.000  C
  C12      1.0000 0.52780  0.80340  0.61620  Biso   1.000  C
  H4       1.0000 0.54700  0.83950  0.59320  Biso   1.000  H
  O9       1.0000 0.54560  0.15180  0.70677  Biso   1.000  O
  O10      1.0000 0.58470  0.09550  0.79560  Biso   1.000  O
  C13      1.0000 0.55410  0.14390  0.76970  Biso   1.000  C
  C14      1.0000 0.52640  0.19840  0.81420  Biso   1.000  C
  C15      1.0000 0.52780  0.19660  0.88380  Biso   1.000  C
  H5       1.0000 0.54700  0.16050  0.90680  Biso   1.000  H
  O11      1.0000 0.04560  0.65180  0.20677  Biso   1.000  O
  O12      1.0000 0.08470  0.59550  0.29560  Biso   1.000  O
  C16      1.0000 0.05410  0.64390  0.26970  Biso   1.000  C
  C17      1.0000 0.02640  0.69840  0.31420  Biso   1.000  C
  C18      1.0000 0.02780  0.69660  0.38380  Biso   1.000  C
  H6       1.0000 0.04700  0.66050  0.40680  Biso   1.000  H
  O13      1.0000 0.95440  0.84820  0.20677  Biso   1.000  O
  O14      1.0000 0.91530  0.90450  0.29560  Biso   1.000  O
  C19      1.0000 0.94590  0.85610  0.26970  Biso   1.000  C
  C20      1.0000 0.97360  0.80160  0.31420  Biso   1.000  C
  C21      1.0000 0.97220  0.80340  0.38380  Biso   1.000  C
  H7       1.0000 0.95300  0.83950  0.40680  Biso   1.000  H
  O15      1.0000 0.45440  0.34820  0.70677  Biso   1.000  O
  O16      1.0000 0.41530  0.40450  0.79560  Biso   1.000  O
  C22      1.0000 0.44590  0.35610  0.76970  Biso   1.000  C
  C23      1.0000 0.47360  0.30160  0.81420  Biso   1.000  C
  C24      1.0000 0.47220  0.30340  0.88380  Biso   1.000  C
  H8       1.0000 0.45300  0.33950  0.90680  Biso   1.000  H
  O17      1.0000 0.79323  0.45440  0.65180  Biso   1.000  O
  O18      1.0000 0.70440  0.41530  0.59550  Biso   1.000  O
  C25      1.0000 0.73030  0.44590  0.64390  Biso   1.000  C
  C26      1.0000 0.68580  0.47360  0.69840  Biso   1.000  C
  C27      1.0000 0.61620  0.47220  0.69660  Biso   1.000  C
  H9       1.0000 0.59320  0.45300  0.66050  Biso   1.000  H
  O19      1.0000 0.29323  0.95440  0.15180  Biso   1.000  O
  O20      1.0000 0.20440  0.91530  0.09550  Biso   1.000  O
  C28      1.0000 0.23030  0.94590  0.14390  Biso   1.000  C
  C29      1.0000 0.18580  0.97360  0.19840  Biso   1.000  C
  C30      1.0000 0.11620  0.97220  0.19660  Biso   1.000  C
  H10      1.0000 0.09320  0.95300  0.16050  Biso   1.000  H
  O21      1.0000 0.29323  0.04560  0.34820  Biso   1.000  O
  O22      1.0000 0.20440  0.08470  0.40450  Biso   1.000  O
  C31      1.0000 0.23030  0.05410  0.35610  Biso   1.000  C
  C32      1.0000 0.18580  0.02640  0.30160  Biso   1.000  C
  C33      1.0000 0.11620  0.02780  0.30340  Biso   1.000  C
  H11      1.0000 0.09320  0.04700  0.33950  Biso   1.000  H
  O23      1.0000 0.79323  0.54560  0.84820  Biso   1.000  O
  O24      1.0000 0.70440  0.58470  0.90450  Biso   1.000  O
  C34      1.0000 0.73030  0.55410  0.85610  Biso   1.000  C
  C35      1.0000 0.68580  0.52640  0.80160  Biso   1.000  C
  C36      1.0000 0.61620  0.52780  0.80340  Biso   1.000  C
  H12      1.0000 0.59320  0.54700  0.83950  Biso   1.000  H
  O25      1.0000 0.70677  0.54560  0.15180  Biso   1.000  O
  O26      1.0000 0.79560  0.58470  0.09550  Biso   1.000  O
  C37      1.0000 0.76970  0.55410  0.14390  Biso   1.000  C
  C38      1.0000 0.81420  0.52640  0.19840  Biso   1.000  C
  C39      1.0000 0.88380  0.52780  0.19660  Biso   1.000  C
  H13      1.0000 0.90680  0.54700  0.16050  Biso   1.000  H
  O27      1.0000 0.20677  0.04560  0.65180  Biso   1.000  O
  O28      1.0000 0.29560  0.08470  0.59550  Biso   1.000  O
  C40      1.0000 0.26970  0.05410  0.64390  Biso   1.000  C
  C41      1.0000 0.31420  0.02640  0.69840  Biso   1.000  C
  C42      1.0000 0.38380  0.02780  0.69660  Biso   1.000  C
  H14      1.0000 0.40680  0.04700  0.66050  Biso   1.000  H
  O29      1.0000 0.20677  0.95440  0.84820  Biso   1.000  O
  O30      1.0000 0.29560  0.91530  0.90450  Biso   1.000  O
  C43      1.0000 0.26970  0.94590  0.85610  Biso   1.000  C
  C44      1.0000 0.31420  0.97360  0.80160  Biso   1.000  C
  C45      1.0000 0.38380  0.97220  0.80340  Biso   1.000  C
  H15      1.0000 0.40680  0.95300  0.83950  Biso   1.000  H
  O31      1.0000 0.70677  0.45440  0.34820  Biso   1.000  O
  O32      1.0000 0.79560  0.41530  0.40450  Biso   1.000  O
  C46      1.0000 0.76970  0.44590  0.35610  Biso   1.000  C
  C47      1.0000 0.81420  0.47360  0.30160  Biso   1.000  C
  C48      1.0000 0.88380  0.47220  0.30340  Biso   1.000  C
  H16      1.0000 0.90680  0.45300  0.33950  Biso   1.000  H
  O33      1.0000 0.65180  0.79323  0.45440  Biso   1.000  O
  O34      1.0000 0.59550  0.70440  0.41530  Biso   1.000  O
  C49      1.0000 0.64390  0.73030  0.44590  Biso   1.000  C
  C50      1.0000 0.69840  0.68580  0.47360  Biso   1.000  C
  C51      1.0000 0.69660  0.61620  0.47220  Biso   1.000  C
  H17      1.0000 0.66050  0.59320  0.45300  Biso   1.000  H
  O35      1.0000 0.15180  0.29323  0.95440  Biso   1.000  O
  O36      1.0000 0.09550  0.20440  0.91530  Biso   1.000  O
  C52      1.0000 0.14390  0.23030  0.94590  Biso   1.000  C
  C53      1.0000 0.19840  0.18580  0.97360  Biso   1.000  C
  C54      1.0000 0.19660  0.11620  0.97220  Biso   1.000  C
  H18      1.0000 0.16050  0.09320  0.95300  Biso   1.000  H
  O37      1.0000 0.34820  0.29323  0.04560  Biso   1.000  O
  O38      1.0000 0.40450  0.20440  0.08470  Biso   1.000  O
  C55      1.0000 0.35610  0.23030  0.05410  Biso   1.000  C
  C56      1.0000 0.30160  0.18580  0.02640  Biso   1.000  C
  C57      1.0000 0.30340  0.11620  0.02780  Biso   1.000  C
  H19      1.0000 0.33950  0.09320  0.04700  Biso   1.000  H
  O39      1.0000 0.84820  0.79323  0.54560  Biso   1.000  O
  O40      1.0000 0.90450  0.70440  0.58470  Biso   1.000  O
  C58      1.0000 0.85610  0.73030  0.55410  Biso   1.000  C
  C59      1.0000 0.80160  0.68580  0.52640  Biso   1.000  C
  C60      1.0000 0.80340  0.61620  0.52780  Biso   1.000  C
  H20      1.0000 0.83950  0.59320  0.54700  Biso   1.000  H
  O41      1.0000 0.15180  0.70677  0.54560  Biso   1.000  O
  O42      1.0000 0.09550  0.79560  0.58470  Biso   1.000  O
  C61      1.0000 0.14390  0.76970  0.55410  Biso   1.000  C
  C62      1.0000 0.19840  0.81420  0.52640  Biso   1.000  C
  C63      1.0000 0.19660  0.88380  0.52780  Biso   1.000  C
  H21      1.0000 0.16050  0.90680  0.54700  Biso   1.000  H
  O43      1.0000 0.65180  0.20677  0.04560  Biso   1.000  O
  O44      1.0000 0.59550  0.29560  0.08470  Biso   1.000  O
  C64      1.0000 0.64390  0.26970  0.05410  Biso   1.000  C
  C65      1.0000 0.69840  0.31420  0.02640  Biso   1.000  C
  C66      1.0000 0.69660  0.38380  0.02780  Biso   1.000  C
  H22      1.0000 0.66050  0.40680  0.04700  Biso   1.000  H
  O45      1.0000 0.84820  0.20677  0.95440  Biso   1.000  O
  O46      1.0000 0.90450  0.29560  0.91530  Biso   1.000  O
  C67      1.0000 0.85610  0.26970  0.94590  Biso   1.000  C
  C68      1.0000 0.80160  0.31420  0.97360  Biso   1.000  C
  C69      1.0000 0.80340  0.38380  0.97220  Biso   1.000  C
  H23      1.0000 0.83950  0.40680  0.95300  Biso   1.000  H
  O47      1.0000 0.34820  0.70677  0.45440  Biso   1.000  O
  O48      1.0000 0.40450  0.79560  0.41530  Biso   1.000  O
  C70      1.0000 0.35610  0.76970  0.44590  Biso   1.000  C
  C71      1.0000 0.30160  0.81420  0.47360  Biso   1.000  C
  C72      1.0000 0.30340  0.88380  0.47220  Biso   1.000  C
  H24      1.0000 0.33950  0.90680  0.45300  Biso   1.000  H
  O49      1.0000 0.54560  0.34820  0.20677  Biso   1.000  O
  O50      1.0000 0.58470  0.40450  0.29560  Biso   1.000  O
  C73      1.0000 0.55410  0.35610  0.26970  Biso   1.000  C
  C74      1.0000 0.52640  0.30160  0.31420  Biso   1.000  C
  C75      1.0000 0.52780  0.30340  0.38380  Biso   1.000  C
  H25      1.0000 0.54700  0.33950  0.40680  Biso   1.000  H
  O51      1.0000 0.04560  0.84820  0.70677  Biso   1.000  O
  O52      1.0000 0.08470  0.90450  0.79560  Biso   1.000  O
  C76      1.0000 0.05410  0.85610  0.76970  Biso   1.000  C
  C77      1.0000 0.02640  0.80160  0.81420  Biso   1.000  C
  C78      1.0000 0.02780  0.80340  0.88380  Biso   1.000  C
  H26      1.0000 0.04700  0.83950  0.90680  Biso   1.000  H
  O53      1.0000 0.95440  0.65180  0.70677  Biso   1.000  O
  O54      1.0000 0.91530  0.59550  0.79560  Biso   1.000  O
  C79      1.0000 0.94590  0.64390  0.76970  Biso   1.000  C
  C80      1.0000 0.97360  0.69840  0.81420  Biso   1.000  C
  C81      1.0000 0.97220  0.69660  0.88380  Biso   1.000  C
  H27      1.0000 0.95300  0.66050  0.90680  Biso   1.000  H
  O55      1.0000 0.45440  0.15180  0.20677  Biso   1.000  O
  O56      1.0000 0.41530  0.09550  0.29560  Biso   1.000  O
  C82      1.0000 0.44590  0.14390  0.26970  Biso   1.000  C
  C83      1.0000 0.47360  0.19840  0.31420  Biso   1.000  C
  C84      1.0000 0.47220  0.19660  0.38380  Biso   1.000  C
  H28      1.0000 0.45300  0.16050  0.40680  Biso   1.000  H
  O57      1.0000 0.45440  0.84820  0.29323  Biso   1.000  O
  O58      1.0000 0.41530  0.90450  0.20440  Biso   1.000  O
  C85      1.0000 0.44590  0.85610  0.23030  Biso   1.000  C
  C86      1.0000 0.47360  0.80160  0.18580  Biso   1.000  C
  C87      1.0000 0.47220  0.80340  0.11620  Biso   1.000  C
  H29      1.0000 0.45300  0.83950  0.09320  Biso   1.000  H
  O59      1.0000 0.95440  0.34820  0.79323  Biso   1.000  O
  O60      1.0000 0.91530  0.40450  0.70440  Biso   1.000  O
  C88      1.0000 0.94590  0.35610  0.73030  Biso   1.000  C
  C89      1.0000 0.97360  0.30160  0.68580  Biso   1.000  C
  C90      1.0000 0.97220  0.30340  0.61620  Biso   1.000  C
  H30      1.0000 0.95300  0.33950  0.59320  Biso   1.000  H
  O61      1.0000 0.04560  0.15180  0.79323  Biso   1.000  O
  O62      1.0000 0.08470  0.09550  0.70440  Biso   1.000  O
  C91      1.0000 0.05410  0.14390  0.73030  Biso   1.000  C
  C92      1.0000 0.02640  0.19840  0.68580  Biso   1.000  C
  C93      1.0000 0.02780  0.19660  0.61620  Biso   1.000  C
  H31      1.0000 0.04700  0.16050  0.59320  Biso   1.000  H
  O63      1.0000 0.54560  0.65180  0.29323  Biso   1.000  O
  O64      1.0000 0.58470  0.59550  0.20440  Biso   1.000  O
  C94      1.0000 0.55410  0.64390  0.23030  Biso   1.000  C
  C95      1.0000 0.52640  0.69840  0.18580  Biso   1.000  C
  C96      1.0000 0.52780  0.69660  0.11620  Biso   1.000  C
  H32      1.0000 0.54700  0.66050  0.09320  Biso   1.000  H
  O65      1.0000 0.20677  0.54560  0.34820  Biso   1.000  O
  O66      1.0000 0.29560  0.58470  0.40450  Biso   1.000  O
  C97      1.0000 0.26970  0.55410  0.35610  Biso   1.000  C
  C98      1.0000 0.31420  0.52640  0.30160  Biso   1.000  C
  C99      1.0000 0.38380  0.52780  0.30340  Biso   1.000  C
  H33      1.0000 0.40680  0.54700  0.33950  Biso   1.000  H
  O67      1.0000 0.70677  0.04560  0.84820  Biso   1.000  O
  O68      1.0000 0.79560  0.08470  0.90450  Biso   1.000  O
  C100     1.0000 0.76970  0.05410  0.85610  Biso   1.000  C
  C101     1.0000 0.81420  0.02640  0.80160  Biso   1.000  C
  C102     1.0000 0.88380  0.02780  0.80340  Biso   1.000  C
  H34      1.0000 0.90680  0.04700  0.83950  Biso   1.000  H
  O69      1.0000 0.70677  0.95440  0.65180  Biso   1.000  O
  O70      1.0000 0.79560  0.91530  0.59550  Biso   1.000  O
  C103     1.0000 0.76970  0.94590  0.64390  Biso   1.000  C
  C104     1.0000 0.81420  0.97360  0.69840  Biso   1.000  C
  C105     1.0000 0.88380  0.97220  0.69660  Biso   1.000  C
  H35      1.0000 0.90680  0.95300  0.66050  Biso   1.000  H
  O71      1.0000 0.20677  0.45440  0.15180  Biso   1.000  O
  O72      1.0000 0.29560  0.41530  0.09550  Biso   1.000  O
  C106     1.0000 0.26970  0.44590  0.14390  Biso   1.000  C
  C107     1.0000 0.31420  0.47360  0.19840  Biso   1.000  C
  C108     1.0000 0.38380  0.47220  0.19660  Biso   1.000  C
  H36      1.0000 0.40680  0.45300  0.16050  Biso   1.000  H
  O73      1.0000 0.29323  0.45440  0.84820  Biso   1.000  O
  O74      1.0000 0.20440  0.41530  0.90450  Biso   1.000  O
  C109     1.0000 0.23030  0.44590  0.85610  Biso   1.000  C
  C110     1.0000 0.18580  0.47360  0.80160  Biso   1.000  C
  C111     1.0000 0.11620  0.47220  0.80340  Biso   1.000  C
  H37      1.0000 0.09320  0.45300  0.83950  Biso   1.000  H
  O75      1.0000 0.79323  0.95440  0.34820  Biso   1.000  O
  O76      1.0000 0.70440  0.91530  0.40450  Biso   1.000  O
  C112     1.0000 0.73030  0.94590  0.35610  Biso   1.000  C
  C113     1.0000 0.68580  0.97360  0.30160  Biso   1.000  C
  C114     1.0000 0.61620  0.97220  0.30340  Biso   1.000  C
  H38      1.0000 0.59320  0.95300  0.33950  Biso   1.000  H
  O77      1.0000 0.79323  0.04560  0.15180  Biso   1.000  O
  O78      1.0000 0.70440  0.08470  0.09550  Biso   1.000  O
  C115     1.0000 0.73030  0.05410  0.14390  Biso   1.000  C
  C116     1.0000 0.68580  0.02640  0.19840  Biso   1.000  C
  C117     1.0000 0.61620  0.02780  0.19660  Biso   1.000  C
  H39      1.0000 0.59320  0.04700  0.16050  Biso   1.000  H
  O79      1.0000 0.29323  0.54560  0.65180  Biso   1.000  O
  O80      1.0000 0.20440  0.58470  0.59550  Biso   1.000  O
  C118     1.0000 0.23030  0.55410  0.64390  Biso   1.000  C
  C119     1.0000 0.18580  0.52640  0.69840  Biso   1.000  C
  C120     1.0000 0.11620  0.52780  0.69660  Biso   1.000  C
  H40      1.0000 0.09320  0.54700  0.66050  Biso   1.000  H
  O81      1.0000 0.34820  0.20677  0.54560  Biso   1.000  O
  O82      1.0000 0.40450  0.29560  0.58470  Biso   1.000  O
  C121     1.0000 0.35610  0.26970  0.55410  Biso   1.000  C
  C122     1.0000 0.30160  0.31420  0.52640  Biso   1.000  C
  C123     1.0000 0.30340  0.38380  0.52780  Biso   1.000  C
  H41      1.0000 0.33950  0.40680  0.54700  Biso   1.000  H
  O83      1.0000 0.84820  0.70677  0.04560  Biso   1.000  O
  O84      1.0000 0.90450  0.79560  0.08470  Biso   1.000  O
  C124     1.0000 0.85610  0.76970  0.05410  Biso   1.000  C
  C125     1.0000 0.80160  0.81420  0.02640  Biso   1.000  C
  C126     1.0000 0.80340  0.88380  0.02780  Biso   1.000  C
  H42      1.0000 0.83950  0.90680  0.04700  Biso   1.000  H
  O85      1.0000 0.65180  0.70677  0.95440  Biso   1.000  O
  O86      1.0000 0.59550  0.79560  0.91530  Biso   1.000  O
  C127     1.0000 0.64390  0.76970  0.94590  Biso   1.000  C
  C128     1.0000 0.69840  0.81420  0.97360  Biso   1.000  C
  C129     1.0000 0.69660  0.88380  0.97220  Biso   1.000  C
  H43      1.0000 0.66050  0.90680  0.95300  Biso   1.000  H
  O87      1.0000 0.15180  0.20677  0.45440  Biso   1.000  O
  O88      1.0000 0.09550  0.29560  0.41530  Biso   1.000  O
  C130     1.0000 0.14390  0.26970  0.44590  Biso   1.000  C
  C131     1.0000 0.19840  0.31420  0.47360  Biso   1.000  C
  C132     1.0000 0.19660  0.38380  0.47220  Biso   1.000  C
  H44      1.0000 0.16050  0.40680  0.45300  Biso   1.000  H
  O89      1.0000 0.84820  0.29323  0.45440  Biso   1.000  O
  O90      1.0000 0.90450  0.20440  0.41530  Biso   1.000  O
  C133     1.0000 0.85610  0.23030  0.44590  Biso   1.000  C
  C134     1.0000 0.80160  0.18580  0.47360  Biso   1.000  C
  C135     1.0000 0.80340  0.11620  0.47220  Biso   1.000  C
  H45      1.0000 0.83950  0.09320  0.45300  Biso   1.000  H
  O91      1.0000 0.34820  0.79323  0.95440  Biso   1.000  O
  O92      1.0000 0.40450  0.70440  0.91530  Biso   1.000  O
  C136     1.0000 0.35610  0.73030  0.94590  Biso   1.000  C
  C137     1.0000 0.30160  0.68580  0.97360  Biso   1.000  C
  C138     1.0000 0.30340  0.61620  0.97220  Biso   1.000  C
  H46      1.0000 0.33950  0.59320  0.95300  Biso   1.000  H
  O93      1.0000 0.15180  0.79323  0.04560  Biso   1.000  O
  O94      1.0000 0.09550  0.70440  0.08470  Biso   1.000  O
  C139     1.0000 0.14390  0.73030  0.05410  Biso   1.000  C
  C140     1.0000 0.19840  0.68580  0.02640  Biso   1.000  C
  C141     1.0000 0.19660  0.61620  0.02780  Biso   1.000  C
  H47      1.0000 0.16050  0.59320  0.04700  Biso   1.000  H
  O95      1.0000 0.65180  0.29323  0.54560  Biso   1.000  O
  O96      1.0000 0.59550  0.20440  0.58470  Biso   1.000  O
  C142     1.0000 0.64390  0.23030  0.55410  Biso   1.000  C
  C143     1.0000 0.69840  0.18580  0.52640  Biso   1.000  C
  C144     1.0000 0.69660  0.11620  0.52780  Biso   1.000  C
  H48      1.0000 0.66050  0.09320  0.54700  Biso   1.000  H
  Sm1      1.0000 0.50000  0.75000  0.84796  Biso   1.000  Sm
  N1       1.0000 0.50000  0.75000  0.72100  Biso   1.000  N
  C145     1.0000 0.50000  0.75000  0.58240  Biso   1.000  C
  H49      1.0000 0.50000  0.75000  0.53550  Biso   1.000  H
  Sm2      1.0000 0.00000  0.25000  0.34796  Biso   1.000  Sm
  N2       1.0000 0.00000  0.25000  0.22100  Biso   1.000  N
  C146     1.0000 0.00000  0.25000  0.08240  Biso   1.000  C
  H50      1.0000 0.00000  0.25000  0.03550  Biso   1.000  H
  Sm3      1.0000 0.50000  0.25000  0.65204  Biso   1.000  Sm
  N3       1.0000 0.50000  0.25000  0.77900  Biso   1.000  N
  C147     1.0000 0.50000  0.25000  0.91760  Biso   1.000  C
  H51      1.0000 0.50000  0.25000  0.96450  Biso   1.000  H
  Sm4      1.0000 0.00000  0.75000  0.15204  Biso   1.000  Sm
  N4       1.0000 0.00000  0.75000  0.27900  Biso   1.000  N
  C148     1.0000 0.00000  0.75000  0.41760  Biso   1.000  C
  H52      1.0000 0.00000  0.75000  0.46450  Biso   1.000  H
  Sm5      1.0000 0.84796  0.50000  0.75000  Biso   1.000  Sm
  N5       1.0000 0.72100  0.50000  0.75000  Biso   1.000  N
  C149     1.0000 0.58240  0.50000  0.75000  Biso   1.000  C
  H53      1.0000 0.53550  0.50000  0.75000  Biso   1.000  H
  Sm6      1.0000 0.34796  0.00000  0.25000  Biso   1.000  Sm
  N6       1.0000 0.22100  0.00000  0.25000  Biso   1.000  N
  C150     1.0000 0.08240  0.00000  0.25000  Biso   1.000  C
  H54      1.0000 0.03550  0.00000  0.25000  Biso   1.000  H
  Sm7      1.0000 0.65204  0.50000  0.25000  Biso   1.000  Sm
  N7       1.0000 0.77900  0.50000  0.25000  Biso   1.000  N
  C151     1.0000 0.91760  0.50000  0.25000  Biso   1.000  C
  H55      1.0000 0.96450  0.50000  0.25000  Biso   1.000  H
  Sm8      1.0000 0.15204  0.00000  0.75000  Biso   1.000  Sm
  N8       1.0000 0.27900  0.00000  0.75000  Biso   1.000  N
  C152     1.0000 0.41760  0.00000  0.75000  Biso   1.000  C
  H56      1.0000 0.46450  0.00000  0.75000  Biso   1.000  H
  Sm9      1.0000 0.75000  0.84796  0.50000  Biso   1.000  Sm
  N9       1.0000 0.75000  0.72100  0.50000  Biso   1.000  N
  C153     1.0000 0.75000  0.58240  0.50000  Biso   1.000  C
  H57      1.0000 0.75000  0.53550  0.50000  Biso   1.000  H
  Sm10     1.0000 0.25000  0.34796  0.00000  Biso   1.000  Sm
  N10      1.0000 0.25000  0.22100  0.00000  Biso   1.000  N
  C154     1.0000 0.25000  0.08240  0.00000  Biso   1.000  C
  H58      1.0000 0.25000  0.03550  0.00000  Biso   1.000  H
  Sm11     1.0000 0.25000  0.65204  0.50000  Biso   1.000  Sm
  N11      1.0000 0.25000  0.77900  0.50000  Biso   1.000  N
  C155     1.0000 0.25000  0.91760  0.50000  Biso   1.000  C
  H59      1.0000 0.25000  0.96450  0.50000  Biso   1.000  H
  Sm12     1.0000 0.75000  0.15204  0.00000  Biso   1.000  Sm
  N12      1.0000 0.75000  0.27900  0.00000  Biso   1.000  N
  C156     1.0000 0.75000  0.41760  0.00000  Biso   1.000  C
  H60      1.0000 0.75000  0.46450  0.00000  Biso   1.000  H
  Sm13     1.0000 0.50000  0.25000  0.15204  Biso   1.000  Sm
  N13      1.0000 0.50000  0.25000  0.27900  Biso   1.000  N
  C157     1.0000 0.50000  0.25000  0.41760  Biso   1.000  C
  H61      1.0000 0.50000  0.25000  0.46450  Biso   1.000  H
  Sm14     1.0000 0.00000  0.75000  0.65204  Biso   1.000  Sm
  N14      1.0000 0.00000  0.75000  0.77900  Biso   1.000  N
  C158     1.0000 0.00000  0.75000  0.91760  Biso   1.000  C
  H62      1.0000 0.00000  0.75000  0.96450  Biso   1.000  H
  Sm15     1.0000 0.50000  0.75000  0.34796  Biso   1.000  Sm
  N15      1.0000 0.50000  0.75000  0.22100  Biso   1.000  N
  C159     1.0000 0.50000  0.75000  0.08240  Biso   1.000  C
  H63      1.0000 0.50000  0.75000  0.03550  Biso   1.000  H
  Sm16     1.0000 0.00000  0.25000  0.84796  Biso   1.000  Sm
  N16      1.0000 0.00000  0.25000  0.72100  Biso   1.000  N
  C160     1.0000 0.00000  0.25000  0.58240  Biso   1.000  C
  H64      1.0000 0.00000  0.25000  0.53550  Biso   1.000  H
  Sm17     1.0000 0.15204  0.50000  0.25000  Biso   1.000  Sm
  N17      1.0000 0.27900  0.50000  0.25000  Biso   1.000  N
  C161     1.0000 0.41760  0.50000  0.25000  Biso   1.000  C
  H65      1.0000 0.46450  0.50000  0.25000  Biso   1.000  H
  Sm18     1.0000 0.65204  0.00000  0.75000  Biso   1.000  Sm
  N18      1.0000 0.77900  0.00000  0.75000  Biso   1.000  N
  C162     1.0000 0.91760  0.00000  0.75000  Biso   1.000  C
  H66      1.0000 0.96450  0.00000  0.75000  Biso   1.000  H
  Sm19     1.0000 0.34796  0.50000  0.75000  Biso   1.000  Sm
  N19      1.0000 0.22100  0.50000  0.75000  Biso   1.000  N
  C163     1.0000 0.08240  0.50000  0.75000  Biso   1.000  C
  H67      1.0000 0.03550  0.50000  0.75000  Biso   1.000  H
  Sm20     1.0000 0.84796  0.00000  0.25000  Biso   1.000  Sm
  N20      1.0000 0.72100  0.00000  0.25000  Biso   1.000  N
  C164     1.0000 0.58240  0.00000  0.25000  Biso   1.000  C
  H68      1.0000 0.53550  0.00000  0.25000  Biso   1.000  H
  Sm21     1.0000 0.25000  0.15204  0.50000  Biso   1.000  Sm
  N21      1.0000 0.25000  0.27900  0.50000  Biso   1.000  N
  C165     1.0000 0.25000  0.41760  0.50000  Biso   1.000  C
  H69      1.0000 0.25000  0.46450  0.50000  Biso   1.000  H
  Sm22     1.0000 0.75000  0.65204  0.00000  Biso   1.000  Sm
  N22      1.0000 0.75000  0.77900  0.00000  Biso   1.000  N
  C166     1.0000 0.75000  0.91760  0.00000  Biso   1.000  C
  H70      1.0000 0.75000  0.96450  0.00000  Biso   1.000  H
  Sm23     1.0000 0.75000  0.34796  0.50000  Biso   1.000  Sm
  N23      1.0000 0.75000  0.22100  0.50000  Biso   1.000  N
  C167     1.0000 0.75000  0.08240  0.50000  Biso   1.000  C
  H71      1.0000 0.75000  0.03550  0.50000  Biso   1.000  H
  Sm24     1.0000 0.25000  0.84796  0.00000  Biso   1.000  Sm
  N24      1.0000 0.25000  0.72100  0.00000  Biso   1.000  N
  C168     1.0000 0.25000  0.58240  0.00000  Biso   1.000  C
  H72      1.0000 0.25000  0.53550  0.00000  Biso   1.000  H
