data_SALLAT_clean
_audit_creation_date              2014-07-02
_audit_creation_method            'Materials Studio'
_symmetry_space_group_name_H-M    'P1'
_symmetry_Int_Tables_number       1
_symmetry_cell_setting            triclinic
loop_
_symmetry_equiv_pos_as_xyz
  x,y,z
_cell_length_a                    8.1650
_cell_length_b                    8.8419
_cell_length_c                    12.2259
_cell_angle_alpha                 75.1131
_cell_angle_beta                  70.4931
_cell_angle_gamma                 62.5018
loop_
_atom_site_label
_atom_site_type_symbol
_atom_site_fract_x
_atom_site_fract_y
_atom_site_fract_z
_atom_site_U_iso_or_equiv
_atom_site_adp_type
_atom_site_occupancy
Cd1    Cd    0.42541   0.25000   0.75000   0.01267  Uiso   1.00
Cd2    Cd    0.57459   0.75000   0.25000   0.01267  Uiso   1.00
H1     H     0.49070   0.52490   0.10490   0.01267  Uiso   1.00
H2     H     0.55580   0.33520   0.11820   0.01267  Uiso   1.00
H3     H     0.12050   0.97510   0.39510   0.01267  Uiso   1.00
H4     H     0.00920   0.16480   0.38180   0.01267  Uiso   1.00
H5     H     0.50930   0.47510   0.89510   0.01267  Uiso   1.00
H6     H     0.44420   0.66480   0.88180   0.01267  Uiso   1.00
H7     H     0.87950   0.02490   0.60490   0.01267  Uiso   1.00
H8     H     0.99080   0.83520   0.61820   0.01267  Uiso   1.00
C1     C     0.50030   0.41930   0.26090   0.01267  Uiso   1.00
C2     C     0.54370   0.25600   0.33200   0.01267  Uiso   1.00
C3     C     0.53050   0.24880   0.45060   0.01267  Uiso   1.00
C4     C     0.59280   0.10440   0.28860   0.01267  Uiso   1.00
C5     C     0.18050   0.08070   0.23910   0.01267  Uiso   1.00
C6     C     0.13170   0.24400   0.16800   0.01267  Uiso   1.00
C7     C     0.22990   0.25120   0.04940   0.01267  Uiso   1.00
C8     C     0.98580   0.39560   0.21140   0.01267  Uiso   1.00
C9     C     0.49970   0.58070   0.73910   0.01267  Uiso   1.00
C10    C     0.45630   0.74400   0.66800   0.01267  Uiso   1.00
C11    C     0.46950   0.75120   0.54940   0.01267  Uiso   1.00
C12    C     0.40720   0.89560   0.71140   0.01267  Uiso   1.00
C13    C     0.81950   0.91930   0.76090   0.01267  Uiso   1.00
C14    C     0.86830   0.75600   0.83200   0.01267  Uiso   1.00
C15    C     0.77010   0.74880   0.95060   0.01267  Uiso   1.00
C16    C     0.01420   0.60440   0.78860   0.01267  Uiso   1.00
N1     N     0.51760   0.42740   0.14820   0.01267  Uiso   1.00
N2     N     0.51890   0.24170   0.54770   0.01267  Uiso   1.00
N3     N     0.63430   0.98010   0.25270   0.01267  Uiso   1.00
N4     N     0.09320   0.07260   0.35180   0.01267  Uiso   1.00
N5     N     0.30830   0.25830   0.95230   0.01267  Uiso   1.00
N6     N     0.86710   0.51990   0.24730   0.01267  Uiso   1.00
N7     N     0.48240   0.57260   0.85180   0.01267  Uiso   1.00
N8     N     0.48110   0.75830   0.45230   0.01267  Uiso   1.00
N9     N     0.36570   0.01990   0.74730   0.01267  Uiso   1.00
N10    N     0.90680   0.92740   0.64820   0.01267  Uiso   1.00
N11    N     0.69170   0.74170   0.04770   0.01267  Uiso   1.00
N12    N     0.13290   0.48010   0.75270   0.01267  Uiso   1.00
O1     O     0.44446   0.55329   0.30599   0.01267  Uiso   1.00
O2     O     0.30374   0.94671   0.19401   0.01267  Uiso   1.00
O3     O     0.55554   0.44671   0.69401   0.01267  Uiso   1.00
O4     O     0.69626   0.05329   0.80599   0.01267  Uiso   1.00
