data_SALRON_clean
_audit_creation_date              2014-07-02
_audit_creation_method            'Materials Studio'
_symmetry_space_group_name_H-M    'P1'
_symmetry_Int_Tables_number       1
_symmetry_cell_setting            triclinic
loop_
_symmetry_equiv_pos_as_xyz
  x,y,z
_cell_length_a                    8.1970
_cell_length_b                    8.7136
_cell_length_c                    12.1356
_cell_angle_alpha                 74.6923
_cell_angle_beta                  70.2616
_cell_angle_gamma                 61.9424
loop_
_atom_site_label
_atom_site_type_symbol
_atom_site_fract_x
_atom_site_fract_y
_atom_site_fract_z
_atom_site_U_iso_or_equiv
_atom_site_adp_type
_atom_site_occupancy
Mn1    Mn    0.07756   0.75000   0.25000   0.01267  Uiso   1.00
Mn2    Mn    0.92244   0.25000   0.75000   0.01267  Uiso   1.00
H1     H     0.49400   0.83100   0.61700   0.01267  Uiso   1.00
H2     H     0.37000   0.02500   0.60500   0.01267  Uiso   1.00
H3     H     0.94200   0.66900   0.88300   0.01267  Uiso   1.00
H4     H     0.00000   0.47500   0.89500   0.01267  Uiso   1.00
H5     H     0.50600   0.16900   0.38300   0.01267  Uiso   1.00
H6     H     0.63000   0.97500   0.39500   0.01267  Uiso   1.00
H7     H     0.05800   0.33100   0.11700   0.01267  Uiso   1.00
H8     H     0.00000   0.52500   0.10500   0.01267  Uiso   1.00
C1     C     0.30956   0.91838   0.75790   0.01267  Uiso   1.00
C2     C     0.36340   0.75540   0.83340   0.01267  Uiso   1.00
C3     C     0.26789   0.75142   0.95340   0.01267  Uiso   1.00
C4     C     0.51331   0.59998   0.79140   0.01267  Uiso   1.00
C5     C     0.98584   0.58162   0.74210   0.01267  Uiso   1.00
C6     C     0.95220   0.74460   0.66660   0.01267  Uiso   1.00
C7     C     0.97271   0.74858   0.54660   0.01267  Uiso   1.00
C8     C     0.90469   0.90002   0.70860   0.01267  Uiso   1.00
C9     C     0.69044   0.08162   0.24210   0.01267  Uiso   1.00
C10    C     0.63660   0.24460   0.16660   0.01267  Uiso   1.00
C11    C     0.73211   0.24858   0.04660   0.01267  Uiso   1.00
C12    C     0.48669   0.40002   0.20860   0.01267  Uiso   1.00
C13    C     0.01416   0.41838   0.25790   0.01267  Uiso   1.00
C14    C     0.04780   0.25540   0.33340   0.01267  Uiso   1.00
C15    C     0.02729   0.25142   0.45340   0.01267  Uiso   1.00
C16    C     0.09531   0.09998   0.29140   0.01267  Uiso   1.00
N1     N     0.39710   0.92420   0.64500   0.01267  Uiso   1.00
N2     N     0.19149   0.74682   0.05180   0.01267  Uiso   1.00
N3     N     0.63571   0.47331   0.75607   0.01267  Uiso   1.00
N4     N     0.96630   0.57580   0.85500   0.01267  Uiso   1.00
N5     N     0.99011   0.75318   0.44820   0.01267  Uiso   1.00
N6     N     0.86509   0.02669   0.74393   0.01267  Uiso   1.00
N7     N     0.60290   0.07580   0.35500   0.01267  Uiso   1.00
N8     N     0.80851   0.25318   0.94820   0.01267  Uiso   1.00
N9     N     0.36429   0.52669   0.24393   0.01267  Uiso   1.00
N10    N     0.03370   0.42420   0.14500   0.01267  Uiso   1.00
N11    N     0.00989   0.24682   0.55180   0.01267  Uiso   1.00
N12    N     0.13491   0.97331   0.25607   0.01267  Uiso   1.00
O1     O     0.17969   0.05703   0.80019   0.01267  Uiso   1.00
O2     O     0.03691   0.44297   0.69981   0.01267  Uiso   1.00
O3     O     0.82031   0.94297   0.19981   0.01267  Uiso   1.00
O4     O     0.96309   0.55703   0.30019   0.01267  Uiso   1.00
