data_image0
_cell_length_a       25.8627
_cell_length_b       25.8627
_cell_length_c       25.4591
_cell_angle_alpha    90
_cell_angle_beta     90
_cell_angle_gamma    120

_symmetry_space_group_name_H-M    "P 1"
_symmetry_int_tables_number       1

loop_
  _symmetry_equiv_pos_as_xyz
  'x, y, z'

loop_
  _atom_site_label
  _atom_site_occupancy
  _atom_site_fract_x
  _atom_site_fract_y
  _atom_site_fract_z
  _atom_site_thermal_displace_type
  _atom_site_B_iso_or_equiv
  _atom_site_type_symbol
  Ce1      1.0000 0.38348  0.46705  0.47570  Biso   1.000  Ce
  O1       1.0000 0.41820  0.43650  0.54740  Biso   1.000  O
  O2       1.0000 0.32410  0.47480  0.53667  Biso   1.000  O
  O3       1.0000 0.37897  0.49680  0.60917  Biso   1.000  O
  C1       1.0000 0.33140  0.48890  0.58485  Biso   1.000  C
  C2       1.0000 0.29690  0.50040  0.62635  Biso   1.000  C
  C3       1.0000 0.27790  0.50340  0.67740  Biso   1.000  C
  O4       1.0000 0.37120  0.45270  0.38734  Biso   1.000  O
  O5       1.0000 0.44130  0.44060  0.34578  Biso   1.000  O
  C4       1.0000 0.39210  0.44150  0.34500  Biso   1.000  C
  C5       1.0000 0.35510  0.43220  0.29570  Biso   1.000  C
  C6       1.0000 0.30360  0.42840  0.27740  Biso   1.000  C
  Ce2      1.0000 0.53295  0.91643  0.47570  Biso   1.000  Ce
  O6       1.0000 0.56350  0.98170  0.54740  Biso   1.000  O
  O7       1.0000 0.52520  0.84930  0.53667  Biso   1.000  O
  O8       1.0000 0.50320  0.88217  0.60917  Biso   1.000  O
  C7       1.0000 0.51110  0.84250  0.58485  Biso   1.000  C
  C8       1.0000 0.49960  0.79650  0.62635  Biso   1.000  C
  C9       1.0000 0.49660  0.77450  0.67740  Biso   1.000  C
  O9       1.0000 0.54730  0.91850  0.38734  Biso   1.000  O
  O10      1.0000 0.55940  0.00070  0.34578  Biso   1.000  O
  C10      1.0000 0.55850  0.95060  0.34500  Biso   1.000  C
  C11      1.0000 0.56780  0.92290  0.29570  Biso   1.000  C
  C12      1.0000 0.57160  0.87520  0.27740  Biso   1.000  C
  Ce3      1.0000 0.08357  0.61652  0.47570  Biso   1.000  Ce
  O11      1.0000 0.01830  0.58180  0.54740  Biso   1.000  O
  O12      1.0000 0.15070  0.67590  0.53667  Biso   1.000  O
  O13      1.0000 0.11783  0.62103  0.60917  Biso   1.000  O
  C13      1.0000 0.15750  0.66860  0.58485  Biso   1.000  C
  C14      1.0000 0.20350  0.70310  0.62635  Biso   1.000  C
  C15      1.0000 0.22550  0.72210  0.67740  Biso   1.000  C
  O14      1.0000 0.08150  0.62880  0.38734  Biso   1.000  O
  O15      1.0000 0.99930  0.55870  0.34578  Biso   1.000  O
  C16      1.0000 0.04940  0.60790  0.34500  Biso   1.000  C
  C17      1.0000 0.07710  0.64490  0.29570  Biso   1.000  C
  C18      1.0000 0.12480  0.69640  0.27740  Biso   1.000  C
  Ce4      1.0000 0.61652  0.53295  0.97570  Biso   1.000  Ce
  O16      1.0000 0.58180  0.56350  0.04740  Biso   1.000  O
  O17      1.0000 0.67590  0.52520  0.03667  Biso   1.000  O
  O18      1.0000 0.62103  0.50320  0.10917  Biso   1.000  O
  C19      1.0000 0.66860  0.51110  0.08485  Biso   1.000  C
  C20      1.0000 0.70310  0.49960  0.12635  Biso   1.000  C
  C21      1.0000 0.72210  0.49660  0.17740  Biso   1.000  C
  O19      1.0000 0.62880  0.54730  0.88734  Biso   1.000  O
  O20      1.0000 0.55870  0.55940  0.84578  Biso   1.000  O
  C22      1.0000 0.60790  0.55850  0.84500  Biso   1.000  C
  C23      1.0000 0.64490  0.56780  0.79570  Biso   1.000  C
  C24      1.0000 0.69640  0.57160  0.77740  Biso   1.000  C
  Ce5      1.0000 0.46705  0.08357  0.97570  Biso   1.000  Ce
  O21      1.0000 0.43650  0.01830  0.04740  Biso   1.000  O
  O22      1.0000 0.47480  0.15070  0.03667  Biso   1.000  O
  O23      1.0000 0.49680  0.11783  0.10917  Biso   1.000  O
  C25      1.0000 0.48890  0.15750  0.08485  Biso   1.000  C
  C26      1.0000 0.50040  0.20350  0.12635  Biso   1.000  C
  C27      1.0000 0.50340  0.22550  0.17740  Biso   1.000  C
  O24      1.0000 0.45270  0.08150  0.88734  Biso   1.000  O
  O25      1.0000 0.44060  0.99930  0.84578  Biso   1.000  O
  C28      1.0000 0.44150  0.04940  0.84500  Biso   1.000  C
  C29      1.0000 0.43220  0.07710  0.79570  Biso   1.000  C
  C30      1.0000 0.42840  0.12480  0.77740  Biso   1.000  C
  Ce6      1.0000 0.91643  0.38348  0.97570  Biso   1.000  Ce
  O26      1.0000 0.98170  0.41820  0.04740  Biso   1.000  O
  O27      1.0000 0.84930  0.32410  0.03667  Biso   1.000  O
  O28      1.0000 0.88217  0.37897  0.10917  Biso   1.000  O
  C31      1.0000 0.84250  0.33140  0.08485  Biso   1.000  C
  C32      1.0000 0.79650  0.29690  0.12635  Biso   1.000  C
  C33      1.0000 0.77450  0.27790  0.17740  Biso   1.000  C
  O29      1.0000 0.91850  0.37120  0.88734  Biso   1.000  O
  O30      1.0000 0.00070  0.44130  0.84578  Biso   1.000  O
  C34      1.0000 0.95060  0.39210  0.84500  Biso   1.000  C
  C35      1.0000 0.92290  0.35510  0.79570  Biso   1.000  C
  C36      1.0000 0.87520  0.30360  0.77740  Biso   1.000  C
  Ce7      1.0000 0.46705  0.38348  0.52430  Biso   1.000  Ce
  O31      1.0000 0.43650  0.41820  0.45260  Biso   1.000  O
  O32      1.0000 0.47480  0.32410  0.46333  Biso   1.000  O
  O33      1.0000 0.49680  0.37897  0.39083  Biso   1.000  O
  C37      1.0000 0.48890  0.33140  0.41515  Biso   1.000  C
  C38      1.0000 0.50040  0.29690  0.37365  Biso   1.000  C
  C39      1.0000 0.50340  0.27790  0.32260  Biso   1.000  C
  O34      1.0000 0.45270  0.37120  0.61266  Biso   1.000  O
  O35      1.0000 0.44060  0.44130  0.65422  Biso   1.000  O
  C40      1.0000 0.44150  0.39210  0.65500  Biso   1.000  C
  C41      1.0000 0.43220  0.35510  0.70430  Biso   1.000  C
  C42      1.0000 0.42840  0.30360  0.72260  Biso   1.000  C
  Ce8      1.0000 0.91643  0.53295  0.52430  Biso   1.000  Ce
  O36      1.0000 0.98170  0.56350  0.45260  Biso   1.000  O
  O37      1.0000 0.84930  0.52520  0.46333  Biso   1.000  O
  O38      1.0000 0.88217  0.50320  0.39083  Biso   1.000  O
  C43      1.0000 0.84250  0.51110  0.41515  Biso   1.000  C
  C44      1.0000 0.79650  0.49960  0.37365  Biso   1.000  C
  C45      1.0000 0.77450  0.49660  0.32260  Biso   1.000  C
  O39      1.0000 0.91850  0.54730  0.61266  Biso   1.000  O
  O40      1.0000 0.00070  0.55940  0.65422  Biso   1.000  O
  C46      1.0000 0.95060  0.55850  0.65500  Biso   1.000  C
  C47      1.0000 0.92290  0.56780  0.70430  Biso   1.000  C
  C48      1.0000 0.87520  0.57160  0.72260  Biso   1.000  C
  Ce9      1.0000 0.61652  0.08357  0.52430  Biso   1.000  Ce
  O41      1.0000 0.58180  0.01830  0.45260  Biso   1.000  O
  O42      1.0000 0.67590  0.15070  0.46333  Biso   1.000  O
  O43      1.0000 0.62103  0.11783  0.39083  Biso   1.000  O
  C49      1.0000 0.66860  0.15750  0.41515  Biso   1.000  C
  C50      1.0000 0.70310  0.20350  0.37365  Biso   1.000  C
  C51      1.0000 0.72210  0.22550  0.32260  Biso   1.000  C
  O44      1.0000 0.62880  0.08150  0.61266  Biso   1.000  O
  O45      1.0000 0.55870  0.99930  0.65422  Biso   1.000  O
  C52      1.0000 0.60790  0.04940  0.65500  Biso   1.000  C
  C53      1.0000 0.64490  0.07710  0.70430  Biso   1.000  C
  C54      1.0000 0.69640  0.12480  0.72260  Biso   1.000  C
  Ce10     1.0000 0.53295  0.61652  0.02430  Biso   1.000  Ce
  O46      1.0000 0.56350  0.58180  0.95260  Biso   1.000  O
  O47      1.0000 0.52520  0.67590  0.96333  Biso   1.000  O
  O48      1.0000 0.50320  0.62103  0.89083  Biso   1.000  O
  C55      1.0000 0.51110  0.66860  0.91515  Biso   1.000  C
  C56      1.0000 0.49960  0.70310  0.87365  Biso   1.000  C
  C57      1.0000 0.49660  0.72210  0.82260  Biso   1.000  C
  O49      1.0000 0.54730  0.62880  0.11266  Biso   1.000  O
  O50      1.0000 0.55940  0.55870  0.15422  Biso   1.000  O
  C58      1.0000 0.55850  0.60790  0.15500  Biso   1.000  C
  C59      1.0000 0.56780  0.64490  0.20430  Biso   1.000  C
  C60      1.0000 0.57160  0.69640  0.22260  Biso   1.000  C
  Ce11     1.0000 0.08357  0.46705  0.02430  Biso   1.000  Ce
  O51      1.0000 0.01830  0.43650  0.95260  Biso   1.000  O
  O52      1.0000 0.15070  0.47480  0.96333  Biso   1.000  O
  O53      1.0000 0.11783  0.49680  0.89083  Biso   1.000  O
  C61      1.0000 0.15750  0.48890  0.91515  Biso   1.000  C
  C62      1.0000 0.20350  0.50040  0.87365  Biso   1.000  C
  C63      1.0000 0.22550  0.50340  0.82260  Biso   1.000  C
  O54      1.0000 0.08150  0.45270  0.11266  Biso   1.000  O
  O55      1.0000 0.99930  0.44060  0.15422  Biso   1.000  O
  C64      1.0000 0.04940  0.44150  0.15500  Biso   1.000  C
  C65      1.0000 0.07710  0.43220  0.20430  Biso   1.000  C
  C66      1.0000 0.12480  0.42840  0.22260  Biso   1.000  C
  Ce12     1.0000 0.38348  0.91643  0.02430  Biso   1.000  Ce
  O56      1.0000 0.41820  0.98170  0.95260  Biso   1.000  O
  O57      1.0000 0.32410  0.84930  0.96333  Biso   1.000  O
  O58      1.0000 0.37897  0.88217  0.89083  Biso   1.000  O
  C67      1.0000 0.33140  0.84250  0.91515  Biso   1.000  C
  C68      1.0000 0.29690  0.79650  0.87365  Biso   1.000  C
  C69      1.0000 0.27790  0.77450  0.82260  Biso   1.000  C
  O59      1.0000 0.37120  0.91850  0.11266  Biso   1.000  O
  O60      1.0000 0.44130  0.00070  0.15422  Biso   1.000  O
  C70      1.0000 0.39210  0.95060  0.15500  Biso   1.000  C
  C71      1.0000 0.35510  0.92290  0.20430  Biso   1.000  C
  C72      1.0000 0.30360  0.87520  0.22260  Biso   1.000  C
  Ce13     1.0000 0.61652  0.53295  0.52430  Biso   1.000  Ce
  O61      1.0000 0.58180  0.56350  0.45260  Biso   1.000  O
  O62      1.0000 0.67590  0.52520  0.46333  Biso   1.000  O
  O63      1.0000 0.62103  0.50320  0.39083  Biso   1.000  O
  C73      1.0000 0.66860  0.51110  0.41515  Biso   1.000  C
  C74      1.0000 0.70310  0.49960  0.37365  Biso   1.000  C
  C75      1.0000 0.72210  0.49660  0.32260  Biso   1.000  C
  O64      1.0000 0.62880  0.54730  0.61266  Biso   1.000  O
  O65      1.0000 0.55870  0.55940  0.65422  Biso   1.000  O
  C76      1.0000 0.60790  0.55850  0.65500  Biso   1.000  C
  C77      1.0000 0.64490  0.56780  0.70430  Biso   1.000  C
  C78      1.0000 0.69640  0.57160  0.72260  Biso   1.000  C
  Ce14     1.0000 0.46705  0.08357  0.52430  Biso   1.000  Ce
  O66      1.0000 0.43650  0.01830  0.45260  Biso   1.000  O
  O67      1.0000 0.47480  0.15070  0.46333  Biso   1.000  O
  O68      1.0000 0.49680  0.11783  0.39083  Biso   1.000  O
  C79      1.0000 0.48890  0.15750  0.41515  Biso   1.000  C
  C80      1.0000 0.50040  0.20350  0.37365  Biso   1.000  C
  C81      1.0000 0.50340  0.22550  0.32260  Biso   1.000  C
  O69      1.0000 0.45270  0.08150  0.61266  Biso   1.000  O
  O70      1.0000 0.44060  0.99930  0.65422  Biso   1.000  O
  C82      1.0000 0.44150  0.04940  0.65500  Biso   1.000  C
  C83      1.0000 0.43220  0.07710  0.70430  Biso   1.000  C
  C84      1.0000 0.42840  0.12480  0.72260  Biso   1.000  C
  Ce15     1.0000 0.91643  0.38348  0.52430  Biso   1.000  Ce
  O71      1.0000 0.98170  0.41820  0.45260  Biso   1.000  O
  O72      1.0000 0.84930  0.32410  0.46333  Biso   1.000  O
  O73      1.0000 0.88217  0.37897  0.39083  Biso   1.000  O
  C85      1.0000 0.84250  0.33140  0.41515  Biso   1.000  C
  C86      1.0000 0.79650  0.29690  0.37365  Biso   1.000  C
  C87      1.0000 0.77450  0.27790  0.32260  Biso   1.000  C
  O74      1.0000 0.91850  0.37120  0.61266  Biso   1.000  O
  O75      1.0000 0.00070  0.44130  0.65422  Biso   1.000  O
  C88      1.0000 0.95060  0.39210  0.65500  Biso   1.000  C
  C89      1.0000 0.92290  0.35510  0.70430  Biso   1.000  C
  C90      1.0000 0.87520  0.30360  0.72260  Biso   1.000  C
  Ce16     1.0000 0.38348  0.46705  0.02430  Biso   1.000  Ce
  O76      1.0000 0.41820  0.43650  0.95260  Biso   1.000  O
  O77      1.0000 0.32410  0.47480  0.96333  Biso   1.000  O
  O78      1.0000 0.37897  0.49680  0.89083  Biso   1.000  O
  C91      1.0000 0.33140  0.48890  0.91515  Biso   1.000  C
  C92      1.0000 0.29690  0.50040  0.87365  Biso   1.000  C
  C93      1.0000 0.27790  0.50340  0.82260  Biso   1.000  C
  O79      1.0000 0.37120  0.45270  0.11266  Biso   1.000  O
  O80      1.0000 0.44130  0.44060  0.15422  Biso   1.000  O
  C94      1.0000 0.39210  0.44150  0.15500  Biso   1.000  C
  C95      1.0000 0.35510  0.43220  0.20430  Biso   1.000  C
  C96      1.0000 0.30360  0.42840  0.22260  Biso   1.000  C
  Ce17     1.0000 0.53295  0.91643  0.02430  Biso   1.000  Ce
  O81      1.0000 0.56350  0.98170  0.95260  Biso   1.000  O
  O82      1.0000 0.52520  0.84930  0.96333  Biso   1.000  O
  O83      1.0000 0.50320  0.88217  0.89083  Biso   1.000  O
  C97      1.0000 0.51110  0.84250  0.91515  Biso   1.000  C
  C98      1.0000 0.49960  0.79650  0.87365  Biso   1.000  C
  C99      1.0000 0.49660  0.77450  0.82260  Biso   1.000  C
  O84      1.0000 0.54730  0.91850  0.11266  Biso   1.000  O
  O85      1.0000 0.55940  0.00070  0.15422  Biso   1.000  O
  C100     1.0000 0.55850  0.95060  0.15500  Biso   1.000  C
  C101     1.0000 0.56780  0.92290  0.20430  Biso   1.000  C
  C102     1.0000 0.57160  0.87520  0.22260  Biso   1.000  C
  Ce18     1.0000 0.08357  0.61652  0.02430  Biso   1.000  Ce
  O86      1.0000 0.01830  0.58180  0.95260  Biso   1.000  O
  O87      1.0000 0.15070  0.67590  0.96333  Biso   1.000  O
  O88      1.0000 0.11783  0.62103  0.89083  Biso   1.000  O
  C103     1.0000 0.15750  0.66860  0.91515  Biso   1.000  C
  C104     1.0000 0.20350  0.70310  0.87365  Biso   1.000  C
  C105     1.0000 0.22550  0.72210  0.82260  Biso   1.000  C
  O89      1.0000 0.08150  0.62880  0.11266  Biso   1.000  O
  O90      1.0000 0.99930  0.55870  0.15422  Biso   1.000  O
  C106     1.0000 0.04940  0.60790  0.15500  Biso   1.000  C
  C107     1.0000 0.07710  0.64490  0.20430  Biso   1.000  C
  C108     1.0000 0.12480  0.69640  0.22260  Biso   1.000  C
  Ce19     1.0000 0.53295  0.61652  0.47570  Biso   1.000  Ce
  O91      1.0000 0.56350  0.58180  0.54740  Biso   1.000  O
  O92      1.0000 0.52520  0.67590  0.53667  Biso   1.000  O
  O93      1.0000 0.50320  0.62103  0.60917  Biso   1.000  O
  C109     1.0000 0.51110  0.66860  0.58485  Biso   1.000  C
  C110     1.0000 0.49960  0.70310  0.62635  Biso   1.000  C
  C111     1.0000 0.49660  0.72210  0.67740  Biso   1.000  C
  O94      1.0000 0.54730  0.62880  0.38734  Biso   1.000  O
  O95      1.0000 0.55940  0.55870  0.34578  Biso   1.000  O
  C112     1.0000 0.55850  0.60790  0.34500  Biso   1.000  C
  C113     1.0000 0.56780  0.64490  0.29570  Biso   1.000  C
  C114     1.0000 0.57160  0.69640  0.27740  Biso   1.000  C
  Ce20     1.0000 0.08357  0.46705  0.47570  Biso   1.000  Ce
  O96      1.0000 0.01830  0.43650  0.54740  Biso   1.000  O
  O97      1.0000 0.15070  0.47480  0.53667  Biso   1.000  O
  O98      1.0000 0.11783  0.49680  0.60917  Biso   1.000  O
  C115     1.0000 0.15750  0.48890  0.58485  Biso   1.000  C
  C116     1.0000 0.20350  0.50040  0.62635  Biso   1.000  C
  C117     1.0000 0.22550  0.50340  0.67740  Biso   1.000  C
  O99      1.0000 0.08150  0.45270  0.38734  Biso   1.000  O
  O100     1.0000 0.99930  0.44060  0.34578  Biso   1.000  O
  C118     1.0000 0.04940  0.44150  0.34500  Biso   1.000  C
  C119     1.0000 0.07710  0.43220  0.29570  Biso   1.000  C
  C120     1.0000 0.12480  0.42840  0.27740  Biso   1.000  C
  Ce21     1.0000 0.38348  0.91643  0.47570  Biso   1.000  Ce
  O101     1.0000 0.41820  0.98170  0.54740  Biso   1.000  O
  O102     1.0000 0.32410  0.84930  0.53667  Biso   1.000  O
  O103     1.0000 0.37897  0.88217  0.60917  Biso   1.000  O
  C121     1.0000 0.33140  0.84250  0.58485  Biso   1.000  C
  C122     1.0000 0.29690  0.79650  0.62635  Biso   1.000  C
  C123     1.0000 0.27790  0.77450  0.67740  Biso   1.000  C
  O104     1.0000 0.37120  0.91850  0.38734  Biso   1.000  O
  O105     1.0000 0.44130  0.00070  0.34578  Biso   1.000  O
  C124     1.0000 0.39210  0.95060  0.34500  Biso   1.000  C
  C125     1.0000 0.35510  0.92290  0.29570  Biso   1.000  C
  C126     1.0000 0.30360  0.87520  0.27740  Biso   1.000  C
  Ce22     1.0000 0.46705  0.38348  0.97570  Biso   1.000  Ce
  O106     1.0000 0.43650  0.41820  0.04740  Biso   1.000  O
  O107     1.0000 0.47480  0.32410  0.03667  Biso   1.000  O
  O108     1.0000 0.49680  0.37897  0.10917  Biso   1.000  O
  C127     1.0000 0.48890  0.33140  0.08485  Biso   1.000  C
  C128     1.0000 0.50040  0.29690  0.12635  Biso   1.000  C
  C129     1.0000 0.50340  0.27790  0.17740  Biso   1.000  C
  O109     1.0000 0.45270  0.37120  0.88734  Biso   1.000  O
  O110     1.0000 0.44060  0.44130  0.84578  Biso   1.000  O
  C130     1.0000 0.44150  0.39210  0.84500  Biso   1.000  C
  C131     1.0000 0.43220  0.35510  0.79570  Biso   1.000  C
  C132     1.0000 0.42840  0.30360  0.77740  Biso   1.000  C
  Ce23     1.0000 0.91643  0.53295  0.97570  Biso   1.000  Ce
  O111     1.0000 0.98170  0.56350  0.04740  Biso   1.000  O
  O112     1.0000 0.84930  0.52520  0.03667  Biso   1.000  O
  O113     1.0000 0.88217  0.50320  0.10917  Biso   1.000  O
  C133     1.0000 0.84250  0.51110  0.08485  Biso   1.000  C
  C134     1.0000 0.79650  0.49960  0.12635  Biso   1.000  C
  C135     1.0000 0.77450  0.49660  0.17740  Biso   1.000  C
  O114     1.0000 0.91850  0.54730  0.88734  Biso   1.000  O
  O115     1.0000 0.00070  0.55940  0.84578  Biso   1.000  O
  C136     1.0000 0.95060  0.55850  0.84500  Biso   1.000  C
  C137     1.0000 0.92290  0.56780  0.79570  Biso   1.000  C
  C138     1.0000 0.87520  0.57160  0.77740  Biso   1.000  C
  Ce24     1.0000 0.61652  0.08357  0.97570  Biso   1.000  Ce
  O116     1.0000 0.58180  0.01830  0.04740  Biso   1.000  O
  O117     1.0000 0.67590  0.15070  0.03667  Biso   1.000  O
  O118     1.0000 0.62103  0.11783  0.10917  Biso   1.000  O
  C139     1.0000 0.66860  0.15750  0.08485  Biso   1.000  C
  C140     1.0000 0.70310  0.20350  0.12635  Biso   1.000  C
  C141     1.0000 0.72210  0.22550  0.17740  Biso   1.000  C
  O119     1.0000 0.62880  0.08150  0.88734  Biso   1.000  O
  O120     1.0000 0.55870  0.99930  0.84578  Biso   1.000  O
  C142     1.0000 0.60790  0.04940  0.84500  Biso   1.000  C
  C143     1.0000 0.64490  0.07710  0.79570  Biso   1.000  C
  C144     1.0000 0.69640  0.12480  0.77740  Biso   1.000  C
  Ce25     1.0000 0.48003  0.51997  0.59957  Biso   1.000  Ce
  O121     1.0000 0.46750  0.53250  0.42440  Biso   1.000  O
  O122     1.0000 0.44970  0.55030  0.52550  Biso   1.000  O
  Ce26     1.0000 0.48003  0.96006  0.59957  Biso   1.000  Ce
  O123     1.0000 0.46750  0.93500  0.42440  Biso   1.000  O
  O124     1.0000 0.44970  0.89940  0.52550  Biso   1.000  O
  Ce27     1.0000 0.03994  0.51997  0.59957  Biso   1.000  Ce
  O125     1.0000 0.06500  0.53250  0.42440  Biso   1.000  O
  O126     1.0000 0.10060  0.55030  0.52550  Biso   1.000  O
  Ce28     1.0000 0.51997  0.48003  0.09957  Biso   1.000  Ce
  O127     1.0000 0.53250  0.46750  0.92440  Biso   1.000  O
  O128     1.0000 0.55030  0.44970  0.02550  Biso   1.000  O
  Ce29     1.0000 0.51997  0.03994  0.09957  Biso   1.000  Ce
  O129     1.0000 0.53250  0.06500  0.92440  Biso   1.000  O
  O130     1.0000 0.55030  0.10060  0.02550  Biso   1.000  O
  Ce30     1.0000 0.96006  0.48003  0.09957  Biso   1.000  Ce
  O131     1.0000 0.93500  0.46750  0.92440  Biso   1.000  O
  O132     1.0000 0.89940  0.44970  0.02550  Biso   1.000  O
  Ce31     1.0000 0.51997  0.48003  0.40043  Biso   1.000  Ce
  O133     1.0000 0.53250  0.46750  0.57560  Biso   1.000  O
  O134     1.0000 0.55030  0.44970  0.47450  Biso   1.000  O
  Ce32     1.0000 0.96006  0.48003  0.40043  Biso   1.000  Ce
  O135     1.0000 0.93500  0.46750  0.57560  Biso   1.000  O
  O136     1.0000 0.89940  0.44970  0.47450  Biso   1.000  O
  Ce33     1.0000 0.51997  0.03994  0.40043  Biso   1.000  Ce
  O137     1.0000 0.53250  0.06500  0.57560  Biso   1.000  O
  O138     1.0000 0.55030  0.10060  0.47450  Biso   1.000  O
  Ce34     1.0000 0.48003  0.51997  0.90043  Biso   1.000  Ce
  O139     1.0000 0.46750  0.53250  0.07560  Biso   1.000  O
  O140     1.0000 0.44970  0.55030  0.97450  Biso   1.000  O
  Ce35     1.0000 0.03994  0.51997  0.90043  Biso   1.000  Ce
  O141     1.0000 0.06500  0.53250  0.07560  Biso   1.000  O
  O142     1.0000 0.10060  0.55030  0.97450  Biso   1.000  O
  Ce36     1.0000 0.48003  0.96006  0.90043  Biso   1.000  Ce
  O143     1.0000 0.46750  0.93500  0.07560  Biso   1.000  O
  O144     1.0000 0.44970  0.89940  0.97450  Biso   1.000  O
  O145     1.0000 0.24620  0.49240  0.59810  Biso   1.000  O
  O146     1.0000 0.50760  0.75380  0.59810  Biso   1.000  O
  O147     1.0000 0.24620  0.75380  0.59810  Biso   1.000  O
  O148     1.0000 0.75380  0.50760  0.09810  Biso   1.000  O
  O149     1.0000 0.49240  0.24620  0.09810  Biso   1.000  O
  O150     1.0000 0.75380  0.24620  0.09810  Biso   1.000  O
  O151     1.0000 0.49240  0.24620  0.40190  Biso   1.000  O
  O152     1.0000 0.75380  0.50760  0.40190  Biso   1.000  O
  O153     1.0000 0.75380  0.24620  0.40190  Biso   1.000  O
  O154     1.0000 0.50760  0.75380  0.90190  Biso   1.000  O
  O155     1.0000 0.24620  0.49240  0.90190  Biso   1.000  O
  O156     1.0000 0.24620  0.75380  0.90190  Biso   1.000  O
  O157     1.0000 0.38580  0.43320  0.25000  Biso   1.000  O
  O158     1.0000 0.56680  0.95260  0.25000  Biso   1.000  O
  O159     1.0000 0.04740  0.61420  0.25000  Biso   1.000  O
  O160     1.0000 0.61420  0.56680  0.75000  Biso   1.000  O
  O161     1.0000 0.43320  0.04740  0.75000  Biso   1.000  O
  O162     1.0000 0.95260  0.38580  0.75000  Biso   1.000  O
  O163     1.0000 0.43320  0.38580  0.75000  Biso   1.000  O
  O164     1.0000 0.95260  0.56680  0.75000  Biso   1.000  O
  O165     1.0000 0.61420  0.04740  0.75000  Biso   1.000  O
  O166     1.0000 0.56680  0.61420  0.25000  Biso   1.000  O
  O167     1.0000 0.04740  0.43320  0.25000  Biso   1.000  O
  O168     1.0000 0.38580  0.95260  0.25000  Biso   1.000  O
