data_image0
_cell_length_a       24.9919
_cell_length_b       24.9919
_cell_length_c       24.7688
_cell_angle_alpha    90
_cell_angle_beta     90
_cell_angle_gamma    120

_symmetry_space_group_name_H-M    "P 1"
_symmetry_int_tables_number       1

loop_
  _symmetry_equiv_pos_as_xyz
  'x, y, z'

loop_
  _atom_site_label
  _atom_site_occupancy
  _atom_site_fract_x
  _atom_site_fract_y
  _atom_site_fract_z
  _atom_site_thermal_displace_type
  _atom_site_B_iso_or_equiv
  _atom_site_type_symbol
  Zr1      1.0000 0.38893  0.46909  0.47478  Biso   1.000  Zr
  O1       1.0000 0.43040  0.44380  0.54200  Biso   1.000  O
  O2       1.0000 0.33160  0.46350  0.53860  Biso   1.000  O
  O3       1.0000 0.39330  0.50440  0.60820  Biso   1.000  O
  C1       1.0000 0.33820  0.48240  0.58890  Biso   1.000  C
  C2       1.0000 0.29070  0.49430  0.61840  Biso   1.000  C
  C3       1.0000 0.29260  0.52350  0.66930  Biso   1.000  C
  O4       1.0000 0.36910  0.43830  0.39095  Biso   1.000  O
  O5       1.0000 0.44740  0.44870  0.35110  Biso   1.000  O
  C4       1.0000 0.39300  0.43900  0.34490  Biso   1.000  C
  C5       1.0000 0.34960  0.41860  0.29660  Biso   1.000  C
  C6       1.0000 0.29130  0.41160  0.27910  Biso   1.000  C
  Zr2      1.0000 0.53091  0.91984  0.47478  Biso   1.000  Zr
  O6       1.0000 0.55620  0.98660  0.54200  Biso   1.000  O
  O7       1.0000 0.53650  0.86810  0.53860  Biso   1.000  O
  O8       1.0000 0.49560  0.88890  0.60820  Biso   1.000  O
  C7       1.0000 0.51760  0.85580  0.58890  Biso   1.000  C
  C8       1.0000 0.50570  0.79640  0.61840  Biso   1.000  C
  C9       1.0000 0.47650  0.76910  0.66930  Biso   1.000  C
  O9       1.0000 0.56170  0.93080  0.39095  Biso   1.000  O
  O10      1.0000 0.55130  0.99870  0.35110  Biso   1.000  O
  C10      1.0000 0.56100  0.95400  0.34490  Biso   1.000  C
  C11      1.0000 0.58140  0.93100  0.29660  Biso   1.000  C
  C12      1.0000 0.58840  0.87970  0.27910  Biso   1.000  C
  Zr3      1.0000 0.08016  0.61107  0.47478  Biso   1.000  Zr
  O11      1.0000 0.01340  0.56960  0.54200  Biso   1.000  O
  O12      1.0000 0.13190  0.66840  0.53860  Biso   1.000  O
  O13      1.0000 0.11110  0.60670  0.60820  Biso   1.000  O
  C13      1.0000 0.14420  0.66180  0.58890  Biso   1.000  C
  C14      1.0000 0.20360  0.70930  0.61840  Biso   1.000  C
  C15      1.0000 0.23090  0.70740  0.66930  Biso   1.000  C
  O14      1.0000 0.06920  0.63090  0.39095  Biso   1.000  O
  O15      1.0000 0.00130  0.55260  0.35110  Biso   1.000  O
  C16      1.0000 0.04600  0.60700  0.34490  Biso   1.000  C
  C17      1.0000 0.06900  0.65040  0.29660  Biso   1.000  C
  C18      1.0000 0.12030  0.70870  0.27910  Biso   1.000  C
  Zr4      1.0000 0.61107  0.53091  0.97478  Biso   1.000  Zr
  O16      1.0000 0.56960  0.55620  0.04200  Biso   1.000  O
  O17      1.0000 0.66840  0.53650  0.03860  Biso   1.000  O
  O18      1.0000 0.60670  0.49560  0.10820  Biso   1.000  O
  C19      1.0000 0.66180  0.51760  0.08890  Biso   1.000  C
  C20      1.0000 0.70930  0.50570  0.11840  Biso   1.000  C
  C21      1.0000 0.70740  0.47650  0.16930  Biso   1.000  C
  O19      1.0000 0.63090  0.56170  0.89095  Biso   1.000  O
  O20      1.0000 0.55260  0.55130  0.85110  Biso   1.000  O
  C22      1.0000 0.60700  0.56100  0.84490  Biso   1.000  C
  C23      1.0000 0.65040  0.58140  0.79660  Biso   1.000  C
  C24      1.0000 0.70870  0.58840  0.77910  Biso   1.000  C
  Zr5      1.0000 0.46909  0.08016  0.97478  Biso   1.000  Zr
  O21      1.0000 0.44380  0.01340  0.04200  Biso   1.000  O
  O22      1.0000 0.46350  0.13190  0.03860  Biso   1.000  O
  O23      1.0000 0.50440  0.11110  0.10820  Biso   1.000  O
  C25      1.0000 0.48240  0.14420  0.08890  Biso   1.000  C
  C26      1.0000 0.49430  0.20360  0.11840  Biso   1.000  C
  C27      1.0000 0.52350  0.23090  0.16930  Biso   1.000  C
  O24      1.0000 0.43830  0.06920  0.89095  Biso   1.000  O
  O25      1.0000 0.44870  0.00130  0.85110  Biso   1.000  O
  C28      1.0000 0.43900  0.04600  0.84490  Biso   1.000  C
  C29      1.0000 0.41860  0.06900  0.79660  Biso   1.000  C
  C30      1.0000 0.41160  0.12030  0.77910  Biso   1.000  C
  Zr6      1.0000 0.91984  0.38893  0.97478  Biso   1.000  Zr
  O26      1.0000 0.98660  0.43040  0.04200  Biso   1.000  O
  O27      1.0000 0.86810  0.33160  0.03860  Biso   1.000  O
  O28      1.0000 0.88890  0.39330  0.10820  Biso   1.000  O
  C31      1.0000 0.85580  0.33820  0.08890  Biso   1.000  C
  C32      1.0000 0.79640  0.29070  0.11840  Biso   1.000  C
  C33      1.0000 0.76910  0.29260  0.16930  Biso   1.000  C
  O29      1.0000 0.93080  0.36910  0.89095  Biso   1.000  O
  O30      1.0000 0.99870  0.44740  0.85110  Biso   1.000  O
  C34      1.0000 0.95400  0.39300  0.84490  Biso   1.000  C
  C35      1.0000 0.93100  0.34960  0.79660  Biso   1.000  C
  C36      1.0000 0.87970  0.29130  0.77910  Biso   1.000  C
  Zr7      1.0000 0.46909  0.38893  0.52522  Biso   1.000  Zr
  O31      1.0000 0.44380  0.43040  0.45800  Biso   1.000  O
  O32      1.0000 0.46350  0.33160  0.46140  Biso   1.000  O
  O33      1.0000 0.50440  0.39330  0.39180  Biso   1.000  O
  C37      1.0000 0.48240  0.33820  0.41110  Biso   1.000  C
  C38      1.0000 0.49430  0.29070  0.38160  Biso   1.000  C
  C39      1.0000 0.52350  0.29260  0.33070  Biso   1.000  C
  O34      1.0000 0.43830  0.36910  0.60905  Biso   1.000  O
  O35      1.0000 0.44870  0.44740  0.64890  Biso   1.000  O
  C40      1.0000 0.43900  0.39300  0.65510  Biso   1.000  C
  C41      1.0000 0.41860  0.34960  0.70340  Biso   1.000  C
  C42      1.0000 0.41160  0.29130  0.72090  Biso   1.000  C
  Zr8      1.0000 0.91984  0.53091  0.52522  Biso   1.000  Zr
  O36      1.0000 0.98660  0.55620  0.45800  Biso   1.000  O
  O37      1.0000 0.86810  0.53650  0.46140  Biso   1.000  O
  O38      1.0000 0.88890  0.49560  0.39180  Biso   1.000  O
  C43      1.0000 0.85580  0.51760  0.41110  Biso   1.000  C
  C44      1.0000 0.79640  0.50570  0.38160  Biso   1.000  C
  C45      1.0000 0.76910  0.47650  0.33070  Biso   1.000  C
  O39      1.0000 0.93080  0.56170  0.60905  Biso   1.000  O
  O40      1.0000 0.99870  0.55130  0.64890  Biso   1.000  O
  C46      1.0000 0.95400  0.56100  0.65510  Biso   1.000  C
  C47      1.0000 0.93100  0.58140  0.70340  Biso   1.000  C
  C48      1.0000 0.87970  0.58840  0.72090  Biso   1.000  C
  Zr9      1.0000 0.61107  0.08016  0.52522  Biso   1.000  Zr
  O41      1.0000 0.56960  0.01340  0.45800  Biso   1.000  O
  O42      1.0000 0.66840  0.13190  0.46140  Biso   1.000  O
  O43      1.0000 0.60670  0.11110  0.39180  Biso   1.000  O
  C49      1.0000 0.66180  0.14420  0.41110  Biso   1.000  C
  C50      1.0000 0.70930  0.20360  0.38160  Biso   1.000  C
  C51      1.0000 0.70740  0.23090  0.33070  Biso   1.000  C
  O44      1.0000 0.63090  0.06920  0.60905  Biso   1.000  O
  O45      1.0000 0.55260  0.00130  0.64890  Biso   1.000  O
  C52      1.0000 0.60700  0.04600  0.65510  Biso   1.000  C
  C53      1.0000 0.65040  0.06900  0.70340  Biso   1.000  C
  C54      1.0000 0.70870  0.12030  0.72090  Biso   1.000  C
  Zr10     1.0000 0.53091  0.61107  0.02522  Biso   1.000  Zr
  O46      1.0000 0.55620  0.56960  0.95800  Biso   1.000  O
  O47      1.0000 0.53650  0.66840  0.96140  Biso   1.000  O
  O48      1.0000 0.49560  0.60670  0.89180  Biso   1.000  O
  C55      1.0000 0.51760  0.66180  0.91110  Biso   1.000  C
  C56      1.0000 0.50570  0.70930  0.88160  Biso   1.000  C
  C57      1.0000 0.47650  0.70740  0.83070  Biso   1.000  C
  O49      1.0000 0.56170  0.63090  0.10905  Biso   1.000  O
  O50      1.0000 0.55130  0.55260  0.14890  Biso   1.000  O
  C58      1.0000 0.56100  0.60700  0.15510  Biso   1.000  C
  C59      1.0000 0.58140  0.65040  0.20340  Biso   1.000  C
  C60      1.0000 0.58840  0.70870  0.22090  Biso   1.000  C
  Zr11     1.0000 0.08016  0.46909  0.02522  Biso   1.000  Zr
  O51      1.0000 0.01340  0.44380  0.95800  Biso   1.000  O
  O52      1.0000 0.13190  0.46350  0.96140  Biso   1.000  O
  O53      1.0000 0.11110  0.50440  0.89180  Biso   1.000  O
  C61      1.0000 0.14420  0.48240  0.91110  Biso   1.000  C
  C62      1.0000 0.20360  0.49430  0.88160  Biso   1.000  C
  C63      1.0000 0.23090  0.52350  0.83070  Biso   1.000  C
  O54      1.0000 0.06920  0.43830  0.10905  Biso   1.000  O
  O55      1.0000 0.00130  0.44870  0.14890  Biso   1.000  O
  C64      1.0000 0.04600  0.43900  0.15510  Biso   1.000  C
  C65      1.0000 0.06900  0.41860  0.20340  Biso   1.000  C
  C66      1.0000 0.12030  0.41160  0.22090  Biso   1.000  C
  Zr12     1.0000 0.38893  0.91984  0.02522  Biso   1.000  Zr
  O56      1.0000 0.43040  0.98660  0.95800  Biso   1.000  O
  O57      1.0000 0.33160  0.86810  0.96140  Biso   1.000  O
  O58      1.0000 0.39330  0.88890  0.89180  Biso   1.000  O
  C67      1.0000 0.33820  0.85580  0.91110  Biso   1.000  C
  C68      1.0000 0.29070  0.79640  0.88160  Biso   1.000  C
  C69      1.0000 0.29260  0.76910  0.83070  Biso   1.000  C
  O59      1.0000 0.36910  0.93080  0.10905  Biso   1.000  O
  O60      1.0000 0.44740  0.99870  0.14890  Biso   1.000  O
  C70      1.0000 0.39300  0.95400  0.15510  Biso   1.000  C
  C71      1.0000 0.34960  0.93100  0.20340  Biso   1.000  C
  C72      1.0000 0.29130  0.87970  0.22090  Biso   1.000  C
  Zr13     1.0000 0.61107  0.53091  0.52522  Biso   1.000  Zr
  O61      1.0000 0.56960  0.55620  0.45800  Biso   1.000  O
  O62      1.0000 0.66840  0.53650  0.46140  Biso   1.000  O
  O63      1.0000 0.60670  0.49560  0.39180  Biso   1.000  O
  C73      1.0000 0.66180  0.51760  0.41110  Biso   1.000  C
  C74      1.0000 0.70930  0.50570  0.38160  Biso   1.000  C
  C75      1.0000 0.70740  0.47650  0.33070  Biso   1.000  C
  O64      1.0000 0.63090  0.56170  0.60905  Biso   1.000  O
  O65      1.0000 0.55260  0.55130  0.64890  Biso   1.000  O
  C76      1.0000 0.60700  0.56100  0.65510  Biso   1.000  C
  C77      1.0000 0.65040  0.58140  0.70340  Biso   1.000  C
  C78      1.0000 0.70870  0.58840  0.72090  Biso   1.000  C
  Zr14     1.0000 0.46909  0.08016  0.52522  Biso   1.000  Zr
  O66      1.0000 0.44380  0.01340  0.45800  Biso   1.000  O
  O67      1.0000 0.46350  0.13190  0.46140  Biso   1.000  O
  O68      1.0000 0.50440  0.11110  0.39180  Biso   1.000  O
  C79      1.0000 0.48240  0.14420  0.41110  Biso   1.000  C
  C80      1.0000 0.49430  0.20360  0.38160  Biso   1.000  C
  C81      1.0000 0.52350  0.23090  0.33070  Biso   1.000  C
  O69      1.0000 0.43830  0.06920  0.60905  Biso   1.000  O
  O70      1.0000 0.44870  0.00130  0.64890  Biso   1.000  O
  C82      1.0000 0.43900  0.04600  0.65510  Biso   1.000  C
  C83      1.0000 0.41860  0.06900  0.70340  Biso   1.000  C
  C84      1.0000 0.41160  0.12030  0.72090  Biso   1.000  C
  Zr15     1.0000 0.91984  0.38893  0.52522  Biso   1.000  Zr
  O71      1.0000 0.98660  0.43040  0.45800  Biso   1.000  O
  O72      1.0000 0.86810  0.33160  0.46140  Biso   1.000  O
  O73      1.0000 0.88890  0.39330  0.39180  Biso   1.000  O
  C85      1.0000 0.85580  0.33820  0.41110  Biso   1.000  C
  C86      1.0000 0.79640  0.29070  0.38160  Biso   1.000  C
  C87      1.0000 0.76910  0.29260  0.33070  Biso   1.000  C
  O74      1.0000 0.93080  0.36910  0.60905  Biso   1.000  O
  O75      1.0000 0.99870  0.44740  0.64890  Biso   1.000  O
  C88      1.0000 0.95400  0.39300  0.65510  Biso   1.000  C
  C89      1.0000 0.93100  0.34960  0.70340  Biso   1.000  C
  C90      1.0000 0.87970  0.29130  0.72090  Biso   1.000  C
  Zr16     1.0000 0.38893  0.46909  0.02522  Biso   1.000  Zr
  O76      1.0000 0.43040  0.44380  0.95800  Biso   1.000  O
  O77      1.0000 0.33160  0.46350  0.96140  Biso   1.000  O
  O78      1.0000 0.39330  0.50440  0.89180  Biso   1.000  O
  C91      1.0000 0.33820  0.48240  0.91110  Biso   1.000  C
  C92      1.0000 0.29070  0.49430  0.88160  Biso   1.000  C
  C93      1.0000 0.29260  0.52350  0.83070  Biso   1.000  C
  O79      1.0000 0.36910  0.43830  0.10905  Biso   1.000  O
  O80      1.0000 0.44740  0.44870  0.14890  Biso   1.000  O
  C94      1.0000 0.39300  0.43900  0.15510  Biso   1.000  C
  C95      1.0000 0.34960  0.41860  0.20340  Biso   1.000  C
  C96      1.0000 0.29130  0.41160  0.22090  Biso   1.000  C
  Zr17     1.0000 0.53091  0.91984  0.02522  Biso   1.000  Zr
  O81      1.0000 0.55620  0.98660  0.95800  Biso   1.000  O
  O82      1.0000 0.53650  0.86810  0.96140  Biso   1.000  O
  O83      1.0000 0.49560  0.88890  0.89180  Biso   1.000  O
  C97      1.0000 0.51760  0.85580  0.91110  Biso   1.000  C
  C98      1.0000 0.50570  0.79640  0.88160  Biso   1.000  C
  C99      1.0000 0.47650  0.76910  0.83070  Biso   1.000  C
  O84      1.0000 0.56170  0.93080  0.10905  Biso   1.000  O
  O85      1.0000 0.55130  0.99870  0.14890  Biso   1.000  O
  C100     1.0000 0.56100  0.95400  0.15510  Biso   1.000  C
  C101     1.0000 0.58140  0.93100  0.20340  Biso   1.000  C
  C102     1.0000 0.58840  0.87970  0.22090  Biso   1.000  C
  Zr18     1.0000 0.08016  0.61107  0.02522  Biso   1.000  Zr
  O86      1.0000 0.01340  0.56960  0.95800  Biso   1.000  O
  O87      1.0000 0.13190  0.66840  0.96140  Biso   1.000  O
  O88      1.0000 0.11110  0.60670  0.89180  Biso   1.000  O
  C103     1.0000 0.14420  0.66180  0.91110  Biso   1.000  C
  C104     1.0000 0.20360  0.70930  0.88160  Biso   1.000  C
  C105     1.0000 0.23090  0.70740  0.83070  Biso   1.000  C
  O89      1.0000 0.06920  0.63090  0.10905  Biso   1.000  O
  O90      1.0000 0.00130  0.55260  0.14890  Biso   1.000  O
  C106     1.0000 0.04600  0.60700  0.15510  Biso   1.000  C
  C107     1.0000 0.06900  0.65040  0.20340  Biso   1.000  C
  C108     1.0000 0.12030  0.70870  0.22090  Biso   1.000  C
  Zr19     1.0000 0.53091  0.61107  0.47478  Biso   1.000  Zr
  O91      1.0000 0.55620  0.56960  0.54200  Biso   1.000  O
  O92      1.0000 0.53650  0.66840  0.53860  Biso   1.000  O
  O93      1.0000 0.49560  0.60670  0.60820  Biso   1.000  O
  C109     1.0000 0.51760  0.66180  0.58890  Biso   1.000  C
  C110     1.0000 0.50570  0.70930  0.61840  Biso   1.000  C
  C111     1.0000 0.47650  0.70740  0.66930  Biso   1.000  C
  O94      1.0000 0.56170  0.63090  0.39095  Biso   1.000  O
  O95      1.0000 0.55130  0.55260  0.35110  Biso   1.000  O
  C112     1.0000 0.56100  0.60700  0.34490  Biso   1.000  C
  C113     1.0000 0.58140  0.65040  0.29660  Biso   1.000  C
  C114     1.0000 0.58840  0.70870  0.27910  Biso   1.000  C
  Zr20     1.0000 0.08016  0.46909  0.47478  Biso   1.000  Zr
  O96      1.0000 0.01340  0.44380  0.54200  Biso   1.000  O
  O97      1.0000 0.13190  0.46350  0.53860  Biso   1.000  O
  O98      1.0000 0.11110  0.50440  0.60820  Biso   1.000  O
  C115     1.0000 0.14420  0.48240  0.58890  Biso   1.000  C
  C116     1.0000 0.20360  0.49430  0.61840  Biso   1.000  C
  C117     1.0000 0.23090  0.52350  0.66930  Biso   1.000  C
  O99      1.0000 0.06920  0.43830  0.39095  Biso   1.000  O
  O100     1.0000 0.00130  0.44870  0.35110  Biso   1.000  O
  C118     1.0000 0.04600  0.43900  0.34490  Biso   1.000  C
  C119     1.0000 0.06900  0.41860  0.29660  Biso   1.000  C
  C120     1.0000 0.12030  0.41160  0.27910  Biso   1.000  C
  Zr21     1.0000 0.38893  0.91984  0.47478  Biso   1.000  Zr
  O101     1.0000 0.43040  0.98660  0.54200  Biso   1.000  O
  O102     1.0000 0.33160  0.86810  0.53860  Biso   1.000  O
  O103     1.0000 0.39330  0.88890  0.60820  Biso   1.000  O
  C121     1.0000 0.33820  0.85580  0.58890  Biso   1.000  C
  C122     1.0000 0.29070  0.79640  0.61840  Biso   1.000  C
  C123     1.0000 0.29260  0.76910  0.66930  Biso   1.000  C
  O104     1.0000 0.36910  0.93080  0.39095  Biso   1.000  O
  O105     1.0000 0.44740  0.99870  0.35110  Biso   1.000  O
  C124     1.0000 0.39300  0.95400  0.34490  Biso   1.000  C
  C125     1.0000 0.34960  0.93100  0.29660  Biso   1.000  C
  C126     1.0000 0.29130  0.87970  0.27910  Biso   1.000  C
  Zr22     1.0000 0.46909  0.38893  0.97478  Biso   1.000  Zr
  O106     1.0000 0.44380  0.43040  0.04200  Biso   1.000  O
  O107     1.0000 0.46350  0.33160  0.03860  Biso   1.000  O
  O108     1.0000 0.50440  0.39330  0.10820  Biso   1.000  O
  C127     1.0000 0.48240  0.33820  0.08890  Biso   1.000  C
  C128     1.0000 0.49430  0.29070  0.11840  Biso   1.000  C
  C129     1.0000 0.52350  0.29260  0.16930  Biso   1.000  C
  O109     1.0000 0.43830  0.36910  0.89095  Biso   1.000  O
  O110     1.0000 0.44870  0.44740  0.85110  Biso   1.000  O
  C130     1.0000 0.43900  0.39300  0.84490  Biso   1.000  C
  C131     1.0000 0.41860  0.34960  0.79660  Biso   1.000  C
  C132     1.0000 0.41160  0.29130  0.77910  Biso   1.000  C
  Zr23     1.0000 0.91984  0.53091  0.97478  Biso   1.000  Zr
  O111     1.0000 0.98660  0.55620  0.04200  Biso   1.000  O
  O112     1.0000 0.86810  0.53650  0.03860  Biso   1.000  O
  O113     1.0000 0.88890  0.49560  0.10820  Biso   1.000  O
  C133     1.0000 0.85580  0.51760  0.08890  Biso   1.000  C
  C134     1.0000 0.79640  0.50570  0.11840  Biso   1.000  C
  C135     1.0000 0.76910  0.47650  0.16930  Biso   1.000  C
  O114     1.0000 0.93080  0.56170  0.89095  Biso   1.000  O
  O115     1.0000 0.99870  0.55130  0.85110  Biso   1.000  O
  C136     1.0000 0.95400  0.56100  0.84490  Biso   1.000  C
  C137     1.0000 0.93100  0.58140  0.79660  Biso   1.000  C
  C138     1.0000 0.87970  0.58840  0.77910  Biso   1.000  C
  Zr24     1.0000 0.61107  0.08016  0.97478  Biso   1.000  Zr
  O116     1.0000 0.56960  0.01340  0.04200  Biso   1.000  O
  O117     1.0000 0.66840  0.13190  0.03860  Biso   1.000  O
  O118     1.0000 0.60670  0.11110  0.10820  Biso   1.000  O
  C139     1.0000 0.66180  0.14420  0.08890  Biso   1.000  C
  C140     1.0000 0.70930  0.20360  0.11840  Biso   1.000  C
  C141     1.0000 0.70740  0.23090  0.16930  Biso   1.000  C
  O119     1.0000 0.63090  0.06920  0.89095  Biso   1.000  O
  O120     1.0000 0.55260  0.00130  0.85110  Biso   1.000  O
  C142     1.0000 0.60700  0.04600  0.84490  Biso   1.000  C
  C143     1.0000 0.65040  0.06900  0.79660  Biso   1.000  C
  C144     1.0000 0.70870  0.12030  0.77910  Biso   1.000  C
  Zr25     1.0000 0.48144  0.51856  0.59274  Biso   1.000  Zr
  O121     1.0000 0.46970  0.53030  0.43420  Biso   1.000  O
  O122     1.0000 0.45520  0.54480  0.51760  Biso   1.000  O
  Zr26     1.0000 0.48144  0.96289  0.59274  Biso   1.000  Zr
  O123     1.0000 0.46970  0.93940  0.43420  Biso   1.000  O
  O124     1.0000 0.45520  0.91040  0.51760  Biso   1.000  O
  Zr27     1.0000 0.03711  0.51856  0.59274  Biso   1.000  Zr
  O125     1.0000 0.06060  0.53030  0.43420  Biso   1.000  O
  O126     1.0000 0.08960  0.54480  0.51760  Biso   1.000  O
  Zr28     1.0000 0.51856  0.48144  0.09274  Biso   1.000  Zr
  O127     1.0000 0.53030  0.46970  0.93420  Biso   1.000  O
  O128     1.0000 0.54480  0.45520  0.01760  Biso   1.000  O
  Zr29     1.0000 0.51856  0.03711  0.09274  Biso   1.000  Zr
  O129     1.0000 0.53030  0.06060  0.93420  Biso   1.000  O
  O130     1.0000 0.54480  0.08960  0.01760  Biso   1.000  O
  Zr30     1.0000 0.96289  0.48144  0.09274  Biso   1.000  Zr
  O131     1.0000 0.93940  0.46970  0.93420  Biso   1.000  O
  O132     1.0000 0.91040  0.45520  0.01760  Biso   1.000  O
  Zr31     1.0000 0.51856  0.48144  0.40726  Biso   1.000  Zr
  O133     1.0000 0.53030  0.46970  0.56580  Biso   1.000  O
  O134     1.0000 0.54480  0.45520  0.48240  Biso   1.000  O
  Zr32     1.0000 0.96289  0.48144  0.40726  Biso   1.000  Zr
  O135     1.0000 0.93940  0.46970  0.56580  Biso   1.000  O
  O136     1.0000 0.91040  0.45520  0.48240  Biso   1.000  O
  Zr33     1.0000 0.51856  0.03711  0.40726  Biso   1.000  Zr
  O137     1.0000 0.53030  0.06060  0.56580  Biso   1.000  O
  O138     1.0000 0.54480  0.08960  0.48240  Biso   1.000  O
  Zr34     1.0000 0.48144  0.51856  0.90726  Biso   1.000  Zr
  O139     1.0000 0.46970  0.53030  0.06580  Biso   1.000  O
  O140     1.0000 0.45520  0.54480  0.98240  Biso   1.000  O
  Zr35     1.0000 0.03711  0.51856  0.90726  Biso   1.000  Zr
  O141     1.0000 0.06060  0.53030  0.06580  Biso   1.000  O
  O142     1.0000 0.08960  0.54480  0.98240  Biso   1.000  O
  Zr36     1.0000 0.48144  0.96289  0.90726  Biso   1.000  Zr
  O143     1.0000 0.46970  0.93940  0.06580  Biso   1.000  O
  O144     1.0000 0.45520  0.91040  0.98240  Biso   1.000  O
  O145     1.0000 0.23965  0.47930  0.58530  Biso   1.000  O
  O146     1.0000 0.52070  0.76035  0.58530  Biso   1.000  O
  O147     1.0000 0.23965  0.76035  0.58530  Biso   1.000  O
  O148     1.0000 0.76035  0.52070  0.08530  Biso   1.000  O
  O149     1.0000 0.47930  0.23965  0.08530  Biso   1.000  O
  O150     1.0000 0.76035  0.23965  0.08530  Biso   1.000  O
  O151     1.0000 0.47930  0.23965  0.41470  Biso   1.000  O
  O152     1.0000 0.76035  0.52070  0.41470  Biso   1.000  O
  O153     1.0000 0.76035  0.23965  0.41470  Biso   1.000  O
  O154     1.0000 0.52070  0.76035  0.91470  Biso   1.000  O
  O155     1.0000 0.23965  0.47930  0.91470  Biso   1.000  O
  O156     1.0000 0.23965  0.76035  0.91470  Biso   1.000  O
  O157     1.0000 0.37600  0.41050  0.25000  Biso   1.000  O
  O158     1.0000 0.58950  0.96550  0.25000  Biso   1.000  O
  O159     1.0000 0.03450  0.62400  0.25000  Biso   1.000  O
  O160     1.0000 0.62400  0.58950  0.75000  Biso   1.000  O
  O161     1.0000 0.41050  0.03450  0.75000  Biso   1.000  O
  O162     1.0000 0.96550  0.37600  0.75000  Biso   1.000  O
  O163     1.0000 0.41050  0.37600  0.75000  Biso   1.000  O
  O164     1.0000 0.96550  0.58950  0.75000  Biso   1.000  O
  O165     1.0000 0.62400  0.03450  0.75000  Biso   1.000  O
  O166     1.0000 0.58950  0.62400  0.25000  Biso   1.000  O
  O167     1.0000 0.03450  0.41050  0.25000  Biso   1.000  O
  O168     1.0000 0.37600  0.96550  0.25000  Biso   1.000  O
