data_image0
_cell_length_a       22.624
_cell_length_b       12.645
_cell_length_c       14.735
_cell_angle_alpha    90
_cell_angle_beta     94.92
_cell_angle_gamma    90

_symmetry_space_group_name_H-M    "P 1"
_symmetry_int_tables_number       1

loop_
  _symmetry_equiv_pos_as_xyz
  'x, y, z'

loop_
  _atom_site_label
  _atom_site_occupancy
  _atom_site_fract_x
  _atom_site_fract_y
  _atom_site_fract_z
  _atom_site_thermal_displace_type
  _atom_site_B_iso_or_equiv
  _atom_site_type_symbol
  Cd1      1.0000 0.25439  0.91556  0.75341  Biso   1.000  Cd
  C1       1.0000 0.13440  0.06400  0.76910  Biso   1.000  C
  H1       1.0000 0.13040  0.06350  0.70300  Biso   1.000  H
  H2       1.0000 0.11500  0.00110  0.78990  Biso   1.000  H
  C2       1.0000 0.22550  0.16220  0.77130  Biso   1.000  C
  H3       1.0000 0.26730  0.16310  0.79240  Biso   1.000  H
  H4       1.0000 0.22250  0.16350  0.70530  Biso   1.000  H
  C3       1.0000 0.20260  0.06440  0.90480  Biso   1.000  C
  H5       1.0000 0.18480  0.00100  0.92760  Biso   1.000  H
  H6       1.0000 0.24400  0.06580  0.92830  Biso   1.000  H
  C4       1.0000 0.11250  0.15630  0.90260  Biso   1.000  C
  H7       1.0000 0.09180  0.21670  0.92530  Biso   1.000  H
  H8       1.0000 0.09420  0.09290  0.92450  Biso   1.000  H
  C5       1.0000 0.13430  0.25470  0.76980  Biso   1.000  C
  H9       1.0000 0.13050  0.25690  0.70370  Biso   1.000  H
  H10      1.0000 0.11470  0.31670  0.79190  Biso   1.000  H
  C6       1.0000 0.20250  0.25210  0.90470  Biso   1.000  C
  H11      1.0000 0.24360  0.25030  0.92640  Biso   1.000  H
  H12      1.0000 0.18540  0.31590  0.92800  Biso   1.000  H
  C7       1.0000 0.34090  0.04900  0.43330  Biso   1.000  C
  C8       1.0000 0.38390  0.09520  0.50650  Biso   1.000  C
  H13      1.0000 0.41740  0.12900  0.48840  Biso   1.000  H
  C9       1.0000 0.37730  0.09100  0.59450  Biso   1.000  C
  H14      1.0000 0.40650  0.12070  0.63490  Biso   1.000  H
  C10      1.0000 0.32400  0.03960  0.63270  Biso   1.000  C
  N1       1.0000 0.10470  0.15710  0.80130  Biso   1.000  N
  N2       1.0000 0.19875  0.06050  0.80190  Biso   1.000  N
  N3       1.0000 0.17180  0.15950  0.93850  Biso   1.000  N
  N4       1.0000 0.19806  0.25640  0.80330  Biso   1.000  N
  O1       1.0000 0.33501  0.99820  0.71240  Biso   1.000  O
  O2       1.0000 0.27572  0.03690  0.59170  Biso   1.000  O
  O3       1.0000 0.34163  0.95240  0.41790  Biso   1.000  O
  O4       1.0000 0.30733  0.11760  0.38930  Biso   1.000  O
  Cd2      1.0000 0.74561  0.91556  0.74659  Biso   1.000  Cd
  C11      1.0000 0.86560  0.06400  0.73090  Biso   1.000  C
  H15      1.0000 0.86960  0.06350  0.79700  Biso   1.000  H
  H16      1.0000 0.88500  0.00110  0.71010  Biso   1.000  H
  C12      1.0000 0.77450  0.16220  0.72870  Biso   1.000  C
  H17      1.0000 0.73270  0.16310  0.70760  Biso   1.000  H
  H18      1.0000 0.77750  0.16350  0.79470  Biso   1.000  H
  C13      1.0000 0.79740  0.06440  0.59520  Biso   1.000  C
  H19      1.0000 0.81520  0.00100  0.57240  Biso   1.000  H
  H20      1.0000 0.75600  0.06580  0.57170  Biso   1.000  H
  C14      1.0000 0.88750  0.15630  0.59740  Biso   1.000  C
  H21      1.0000 0.90820  0.21670  0.57470  Biso   1.000  H
  H22      1.0000 0.90580  0.09290  0.57550  Biso   1.000  H
  C15      1.0000 0.86570  0.25470  0.73020  Biso   1.000  C
  H23      1.0000 0.86950  0.25690  0.79630  Biso   1.000  H
  H24      1.0000 0.88530  0.31670  0.70810  Biso   1.000  H
  C16      1.0000 0.79750  0.25210  0.59530  Biso   1.000  C
  H25      1.0000 0.75640  0.25030  0.57360  Biso   1.000  H
  H26      1.0000 0.81460  0.31590  0.57200  Biso   1.000  H
  C17      1.0000 0.65910  0.04900  0.06670  Biso   1.000  C
  C18      1.0000 0.61610  0.09520  0.99350  Biso   1.000  C
  H27      1.0000 0.58260  0.12900  0.01160  Biso   1.000  H
  C19      1.0000 0.62270  0.09100  0.90550  Biso   1.000  C
  H28      1.0000 0.59350  0.12070  0.86510  Biso   1.000  H
  C20      1.0000 0.67600  0.03960  0.86730  Biso   1.000  C
  N5       1.0000 0.89530  0.15710  0.69870  Biso   1.000  N
  N6       1.0000 0.80125  0.06050  0.69810  Biso   1.000  N
  N7       1.0000 0.82820  0.15950  0.56150  Biso   1.000  N
  N8       1.0000 0.80194  0.25640  0.69670  Biso   1.000  N
  O5       1.0000 0.66499  0.99820  0.78760  Biso   1.000  O
  O6       1.0000 0.72428  0.03690  0.90830  Biso   1.000  O
  O7       1.0000 0.65837  0.95240  0.08210  Biso   1.000  O
  O8       1.0000 0.69267  0.11760  0.11070  Biso   1.000  O
  Cd3      1.0000 0.74561  0.08444  0.24659  Biso   1.000  Cd
  C21      1.0000 0.86560  0.93600  0.23090  Biso   1.000  C
  H29      1.0000 0.86960  0.93650  0.29700  Biso   1.000  H
  H30      1.0000 0.88500  0.99890  0.21010  Biso   1.000  H
  C22      1.0000 0.77450  0.83780  0.22870  Biso   1.000  C
  H31      1.0000 0.73270  0.83690  0.20760  Biso   1.000  H
  H32      1.0000 0.77750  0.83650  0.29470  Biso   1.000  H
  C23      1.0000 0.79740  0.93560  0.09520  Biso   1.000  C
  H33      1.0000 0.81520  0.99900  0.07240  Biso   1.000  H
  H34      1.0000 0.75600  0.93420  0.07170  Biso   1.000  H
  C24      1.0000 0.88750  0.84370  0.09740  Biso   1.000  C
  H35      1.0000 0.90820  0.78330  0.07470  Biso   1.000  H
  H36      1.0000 0.90580  0.90710  0.07550  Biso   1.000  H
  C25      1.0000 0.86570  0.74530  0.23020  Biso   1.000  C
  H37      1.0000 0.86950  0.74310  0.29630  Biso   1.000  H
  H38      1.0000 0.88530  0.68330  0.20810  Biso   1.000  H
  C26      1.0000 0.79750  0.74790  0.09530  Biso   1.000  C
  H39      1.0000 0.75640  0.74970  0.07360  Biso   1.000  H
  H40      1.0000 0.81460  0.68410  0.07200  Biso   1.000  H
  C27      1.0000 0.65910  0.95100  0.56670  Biso   1.000  C
  C28      1.0000 0.61610  0.90480  0.49350  Biso   1.000  C
  H41      1.0000 0.58260  0.87100  0.51160  Biso   1.000  H
  C29      1.0000 0.62270  0.90900  0.40550  Biso   1.000  C
  H42      1.0000 0.59350  0.87930  0.36510  Biso   1.000  H
  C30      1.0000 0.67600  0.96040  0.36730  Biso   1.000  C
  N9       1.0000 0.89530  0.84290  0.19870  Biso   1.000  N
  N10      1.0000 0.80125  0.93950  0.19810  Biso   1.000  N
  N11      1.0000 0.82820  0.84050  0.06150  Biso   1.000  N
  N12      1.0000 0.80194  0.74360  0.19670  Biso   1.000  N
  O9       1.0000 0.66499  0.00180  0.28760  Biso   1.000  O
  O10      1.0000 0.72428  0.96310  0.40830  Biso   1.000  O
  O11      1.0000 0.65837  0.04760  0.58210  Biso   1.000  O
  O12      1.0000 0.69267  0.88240  0.61070  Biso   1.000  O
  Cd4      1.0000 0.25439  0.08444  0.25341  Biso   1.000  Cd
  C31      1.0000 0.13440  0.93600  0.26910  Biso   1.000  C
  H43      1.0000 0.13040  0.93650  0.20300  Biso   1.000  H
  H44      1.0000 0.11500  0.99890  0.28990  Biso   1.000  H
  C32      1.0000 0.22550  0.83780  0.27130  Biso   1.000  C
  H45      1.0000 0.26730  0.83690  0.29240  Biso   1.000  H
  H46      1.0000 0.22250  0.83650  0.20530  Biso   1.000  H
  C33      1.0000 0.20260  0.93560  0.40480  Biso   1.000  C
  H47      1.0000 0.18480  0.99900  0.42760  Biso   1.000  H
  H48      1.0000 0.24400  0.93420  0.42830  Biso   1.000  H
  C34      1.0000 0.11250  0.84370  0.40260  Biso   1.000  C
  H49      1.0000 0.09180  0.78330  0.42530  Biso   1.000  H
  H50      1.0000 0.09420  0.90710  0.42450  Biso   1.000  H
  C35      1.0000 0.13430  0.74530  0.26980  Biso   1.000  C
  H51      1.0000 0.13050  0.74310  0.20370  Biso   1.000  H
  H52      1.0000 0.11470  0.68330  0.29190  Biso   1.000  H
  C36      1.0000 0.20250  0.74790  0.40470  Biso   1.000  C
  H53      1.0000 0.24360  0.74970  0.42640  Biso   1.000  H
  H54      1.0000 0.18540  0.68410  0.42800  Biso   1.000  H
  C37      1.0000 0.34090  0.95100  0.93330  Biso   1.000  C
  C38      1.0000 0.38390  0.90480  0.00650  Biso   1.000  C
  H55      1.0000 0.41740  0.87100  0.98840  Biso   1.000  H
  C39      1.0000 0.37730  0.90900  0.09450  Biso   1.000  C
  H56      1.0000 0.40650  0.87930  0.13490  Biso   1.000  H
  C40      1.0000 0.32400  0.96040  0.13270  Biso   1.000  C
  N13      1.0000 0.10470  0.84290  0.30130  Biso   1.000  N
  N14      1.0000 0.19875  0.93950  0.30190  Biso   1.000  N
  N15      1.0000 0.17180  0.84050  0.43850  Biso   1.000  N
  N16      1.0000 0.19806  0.74360  0.30330  Biso   1.000  N
  O13      1.0000 0.33501  0.00180  0.21240  Biso   1.000  O
  O14      1.0000 0.27572  0.96310  0.09170  Biso   1.000  O
  O15      1.0000 0.34163  0.04760  0.91790  Biso   1.000  O
  O16      1.0000 0.30733  0.88240  0.88930  Biso   1.000  O
  Cd5      1.0000 0.00000  0.16791  0.75000  Biso   1.000  Cd
  Cd6      1.0000 0.00000  0.83209  0.25000  Biso   1.000  Cd
  Cd7      1.0000 0.75439  0.41556  0.75341  Biso   1.000  Cd
  C41      1.0000 0.63440  0.56400  0.76910  Biso   1.000  C
  H57      1.0000 0.63040  0.56350  0.70300  Biso   1.000  H
  H58      1.0000 0.61500  0.50110  0.78990  Biso   1.000  H
  C42      1.0000 0.72550  0.66220  0.77130  Biso   1.000  C
  H59      1.0000 0.76730  0.66310  0.79240  Biso   1.000  H
  H60      1.0000 0.72250  0.66350  0.70530  Biso   1.000  H
  C43      1.0000 0.70260  0.56440  0.90480  Biso   1.000  C
  H61      1.0000 0.68480  0.50100  0.92760  Biso   1.000  H
  H62      1.0000 0.74400  0.56580  0.92830  Biso   1.000  H
  C44      1.0000 0.61250  0.65630  0.90260  Biso   1.000  C
  H63      1.0000 0.59180  0.71670  0.92530  Biso   1.000  H
  H64      1.0000 0.59420  0.59290  0.92450  Biso   1.000  H
  C45      1.0000 0.63430  0.75470  0.76980  Biso   1.000  C
  H65      1.0000 0.63050  0.75690  0.70370  Biso   1.000  H
  H66      1.0000 0.61470  0.81670  0.79190  Biso   1.000  H
  C46      1.0000 0.70250  0.75210  0.90470  Biso   1.000  C
  H67      1.0000 0.74360  0.75030  0.92640  Biso   1.000  H
  H68      1.0000 0.68540  0.81590  0.92800  Biso   1.000  H
  C47      1.0000 0.84090  0.54900  0.43330  Biso   1.000  C
  C48      1.0000 0.88390  0.59520  0.50650  Biso   1.000  C
  H69      1.0000 0.91740  0.62900  0.48840  Biso   1.000  H
  C49      1.0000 0.87730  0.59100  0.59450  Biso   1.000  C
  H70      1.0000 0.90650  0.62070  0.63490  Biso   1.000  H
  C50      1.0000 0.82400  0.53960  0.63270  Biso   1.000  C
  N17      1.0000 0.60470  0.65710  0.80130  Biso   1.000  N
  N18      1.0000 0.69875  0.56050  0.80190  Biso   1.000  N
  N19      1.0000 0.67180  0.65950  0.93850  Biso   1.000  N
  N20      1.0000 0.69806  0.75640  0.80330  Biso   1.000  N
  O17      1.0000 0.83501  0.49820  0.71240  Biso   1.000  O
  O18      1.0000 0.77572  0.53690  0.59170  Biso   1.000  O
  O19      1.0000 0.84163  0.45240  0.41790  Biso   1.000  O
  O20      1.0000 0.80733  0.61760  0.38930  Biso   1.000  O
  Cd8      1.0000 0.24561  0.41556  0.74659  Biso   1.000  Cd
  C51      1.0000 0.36560  0.56400  0.73090  Biso   1.000  C
  H71      1.0000 0.36960  0.56350  0.79700  Biso   1.000  H
  H72      1.0000 0.38500  0.50110  0.71010  Biso   1.000  H
  C52      1.0000 0.27450  0.66220  0.72870  Biso   1.000  C
  H73      1.0000 0.23270  0.66310  0.70760  Biso   1.000  H
  H74      1.0000 0.27750  0.66350  0.79470  Biso   1.000  H
  C53      1.0000 0.29740  0.56440  0.59520  Biso   1.000  C
  H75      1.0000 0.31520  0.50100  0.57240  Biso   1.000  H
  H76      1.0000 0.25600  0.56580  0.57170  Biso   1.000  H
  C54      1.0000 0.38750  0.65630  0.59740  Biso   1.000  C
  H77      1.0000 0.40820  0.71670  0.57470  Biso   1.000  H
  H78      1.0000 0.40580  0.59290  0.57550  Biso   1.000  H
  C55      1.0000 0.36570  0.75470  0.73020  Biso   1.000  C
  H79      1.0000 0.36950  0.75690  0.79630  Biso   1.000  H
  H80      1.0000 0.38530  0.81670  0.70810  Biso   1.000  H
  C56      1.0000 0.29750  0.75210  0.59530  Biso   1.000  C
  H81      1.0000 0.25640  0.75030  0.57360  Biso   1.000  H
  H82      1.0000 0.31460  0.81590  0.57200  Biso   1.000  H
  C57      1.0000 0.15910  0.54900  0.06670  Biso   1.000  C
  C58      1.0000 0.11610  0.59520  0.99350  Biso   1.000  C
  H83      1.0000 0.08260  0.62900  0.01160  Biso   1.000  H
  C59      1.0000 0.12270  0.59100  0.90550  Biso   1.000  C
  H84      1.0000 0.09350  0.62070  0.86510  Biso   1.000  H
  C60      1.0000 0.17600  0.53960  0.86730  Biso   1.000  C
  N21      1.0000 0.39530  0.65710  0.69870  Biso   1.000  N
  N22      1.0000 0.30125  0.56050  0.69810  Biso   1.000  N
  N23      1.0000 0.32820  0.65950  0.56150  Biso   1.000  N
  N24      1.0000 0.30194  0.75640  0.69670  Biso   1.000  N
  O21      1.0000 0.16499  0.49820  0.78760  Biso   1.000  O
  O22      1.0000 0.22428  0.53690  0.90830  Biso   1.000  O
  O23      1.0000 0.15837  0.45240  0.08210  Biso   1.000  O
  O24      1.0000 0.19267  0.61760  0.11070  Biso   1.000  O
  Cd9      1.0000 0.24561  0.58444  0.24659  Biso   1.000  Cd
  C61      1.0000 0.36560  0.43600  0.23090  Biso   1.000  C
  H85      1.0000 0.36960  0.43650  0.29700  Biso   1.000  H
  H86      1.0000 0.38500  0.49890  0.21010  Biso   1.000  H
  C62      1.0000 0.27450  0.33780  0.22870  Biso   1.000  C
  H87      1.0000 0.23270  0.33690  0.20760  Biso   1.000  H
  H88      1.0000 0.27750  0.33650  0.29470  Biso   1.000  H
  C63      1.0000 0.29740  0.43560  0.09520  Biso   1.000  C
  H89      1.0000 0.31520  0.49900  0.07240  Biso   1.000  H
  H90      1.0000 0.25600  0.43420  0.07170  Biso   1.000  H
  C64      1.0000 0.38750  0.34370  0.09740  Biso   1.000  C
  H91      1.0000 0.40820  0.28330  0.07470  Biso   1.000  H
  H92      1.0000 0.40580  0.40710  0.07550  Biso   1.000  H
  C65      1.0000 0.36570  0.24530  0.23020  Biso   1.000  C
  H93      1.0000 0.36950  0.24310  0.29630  Biso   1.000  H
  H94      1.0000 0.38530  0.18330  0.20810  Biso   1.000  H
  C66      1.0000 0.29750  0.24790  0.09530  Biso   1.000  C
  H95      1.0000 0.25640  0.24970  0.07360  Biso   1.000  H
  H96      1.0000 0.31460  0.18410  0.07200  Biso   1.000  H
  C67      1.0000 0.15910  0.45100  0.56670  Biso   1.000  C
  C68      1.0000 0.11610  0.40480  0.49350  Biso   1.000  C
  H97      1.0000 0.08260  0.37100  0.51160  Biso   1.000  H
  C69      1.0000 0.12270  0.40900  0.40550  Biso   1.000  C
  H98      1.0000 0.09350  0.37930  0.36510  Biso   1.000  H
  C70      1.0000 0.17600  0.46040  0.36730  Biso   1.000  C
  N25      1.0000 0.39530  0.34290  0.19870  Biso   1.000  N
  N26      1.0000 0.30125  0.43950  0.19810  Biso   1.000  N
  N27      1.0000 0.32820  0.34050  0.06150  Biso   1.000  N
  N28      1.0000 0.30194  0.24360  0.19670  Biso   1.000  N
  O25      1.0000 0.16499  0.50180  0.28760  Biso   1.000  O
  O26      1.0000 0.22428  0.46310  0.40830  Biso   1.000  O
  O27      1.0000 0.15837  0.54760  0.58210  Biso   1.000  O
  O28      1.0000 0.19267  0.38240  0.61070  Biso   1.000  O
  Cd10     1.0000 0.75439  0.58444  0.25341  Biso   1.000  Cd
  C71      1.0000 0.63440  0.43600  0.26910  Biso   1.000  C
  H99      1.0000 0.63040  0.43650  0.20300  Biso   1.000  H
  H100     1.0000 0.61500  0.49890  0.28990  Biso   1.000  H
  C72      1.0000 0.72550  0.33780  0.27130  Biso   1.000  C
  H101     1.0000 0.76730  0.33690  0.29240  Biso   1.000  H
  H102     1.0000 0.72250  0.33650  0.20530  Biso   1.000  H
  C73      1.0000 0.70260  0.43560  0.40480  Biso   1.000  C
  H103     1.0000 0.68480  0.49900  0.42760  Biso   1.000  H
  H104     1.0000 0.74400  0.43420  0.42830  Biso   1.000  H
  C74      1.0000 0.61250  0.34370  0.40260  Biso   1.000  C
  H105     1.0000 0.59180  0.28330  0.42530  Biso   1.000  H
  H106     1.0000 0.59420  0.40710  0.42450  Biso   1.000  H
  C75      1.0000 0.63430  0.24530  0.26980  Biso   1.000  C
  H107     1.0000 0.63050  0.24310  0.20370  Biso   1.000  H
  H108     1.0000 0.61470  0.18330  0.29190  Biso   1.000  H
  C76      1.0000 0.70250  0.24790  0.40470  Biso   1.000  C
  H109     1.0000 0.74360  0.24970  0.42640  Biso   1.000  H
  H110     1.0000 0.68540  0.18410  0.42800  Biso   1.000  H
  C77      1.0000 0.84090  0.45100  0.93330  Biso   1.000  C
  C78      1.0000 0.88390  0.40480  0.00650  Biso   1.000  C
  H111     1.0000 0.91740  0.37100  0.98840  Biso   1.000  H
  C79      1.0000 0.87730  0.40900  0.09450  Biso   1.000  C
  H112     1.0000 0.90650  0.37930  0.13490  Biso   1.000  H
  C80      1.0000 0.82400  0.46040  0.13270  Biso   1.000  C
  N29      1.0000 0.60470  0.34290  0.30130  Biso   1.000  N
  N30      1.0000 0.69875  0.43950  0.30190  Biso   1.000  N
  N31      1.0000 0.67180  0.34050  0.43850  Biso   1.000  N
  N32      1.0000 0.69806  0.24360  0.30330  Biso   1.000  N
  O29      1.0000 0.83501  0.50180  0.21240  Biso   1.000  O
  O30      1.0000 0.77572  0.46310  0.09170  Biso   1.000  O
  O31      1.0000 0.84163  0.54760  0.91790  Biso   1.000  O
  O32      1.0000 0.80733  0.38240  0.88930  Biso   1.000  O
  Cd11     1.0000 0.50000  0.66791  0.75000  Biso   1.000  Cd
  Cd12     1.0000 0.50000  0.33209  0.25000  Biso   1.000  Cd
