data_SAMLAV_clean5b
_audit_creation_date              2014-07-02
_audit_creation_method            'Materials Studio'
_symmetry_space_group_name_H-M    'P1'
_symmetry_Int_Tables_number       1
_symmetry_cell_setting            triclinic
loop_
_symmetry_equiv_pos_as_xyz
  x,y,z
_cell_length_a                    7.4466
_cell_length_b                    14.3821
_cell_length_c                    20.9140
_cell_angle_alpha                 90.0000
_cell_angle_beta                  90.0000
_cell_angle_gamma                 90.0000
loop_
_atom_site_label
_atom_site_type_symbol
_atom_site_fract_x
_atom_site_fract_y
_atom_site_fract_z
_atom_site_U_iso_or_equiv
_atom_site_adp_type
_atom_site_occupancy
Cd1    Cd    0.49001   0.11007   0.07558   0.01267  Uiso   1.00
Cd2    Cd    0.48697   0.89034   0.92446   0.01267  Uiso   1.00
Cd3    Cd    0.49269   0.60996   0.42482   0.01267  Uiso   1.00
Cd4    Cd    0.49848   0.38937   0.57575   0.01267  Uiso   1.00
H1     H     0.82325   0.23731   0.01931   0.01267  Uiso   1.00
H2     H     0.82270   0.97878   0.11533   0.01267  Uiso   1.00
H3     H     0.82035   0.76149   0.96900   0.01267  Uiso   1.00
H4     H     0.82054   0.03316   0.89196   0.01267  Uiso   1.00
H5     H     0.16004   0.73796   0.47969   0.01267  Uiso   1.00
H6     H     0.15721   0.47736   0.38638   0.01267  Uiso   1.00
H7     H     0.16518   0.26068   0.52125   0.01267  Uiso   1.00
H8     H     0.16517   0.52148   0.61434   0.01267  Uiso   1.00
H9     H     0.15394   0.76173   0.96902   0.01267  Uiso   1.00
H10    H     0.15201   0.03399   0.89305   0.01267  Uiso   1.00
H11    H     0.15710   0.23727   0.01979   0.01267  Uiso   1.00
H12    H     0.15450   0.97819   0.11508   0.01267  Uiso   1.00
H13    H     0.83122   0.26100   0.52124   0.01267  Uiso   1.00
H14    H     0.83355   0.52246   0.61338   0.01267  Uiso   1.00
H15    H     0.82610   0.73816   0.48009   0.01267  Uiso   1.00
H16    H     0.82551   0.47823   0.38586   0.01267  Uiso   1.00
H17    H     0.59749   0.20067   0.40441   0.01267  Uiso   1.00
H18    H     0.39348   0.44579   0.31274   0.01267  Uiso   1.00
H19    H     0.40220   0.36802   0.20931   0.01267  Uiso   1.00
H20    H     0.38033   0.79646   0.59617   0.01267  Uiso   1.00
H21    H     0.60115   0.55522   0.68761   0.01267  Uiso   1.00
H22    H     0.59008   0.63342   0.79106   0.01267  Uiso   1.00
H23    H     0.58959   0.70012   0.09527   0.01267  Uiso   1.00
H24    H     0.39286   0.94600   0.18794   0.01267  Uiso   1.00
H25    H     0.40470   0.86825   0.29133   0.01267  Uiso   1.00
H26    H     0.60558   0.29653   0.90424   0.01267  Uiso   1.00
H27    H     0.38082   0.05575   0.81346   0.01267  Uiso   1.00
H28    H     0.39262   0.13355   0.70979   0.01267  Uiso   1.00
C1     C     0.89384   0.17867   0.03971   0.01267  Uiso   1.00
C2     C     0.89340   0.03564   0.09275   0.01267  Uiso   1.00
C3     C     0.89108   0.82289   0.95294   0.01267  Uiso   1.00
C4     C     0.89071   0.97324   0.91057   0.01267  Uiso   1.00
C5     C     0.08885   0.67910   0.45985   0.01267  Uiso   1.00
C6     C     0.08766   0.53512   0.40809   0.01267  Uiso   1.00
C7     C     0.09449   0.31981   0.54092   0.01267  Uiso   1.00
C8     C     0.09471   0.46410   0.59232   0.01267  Uiso   1.00
C9     C     0.08292   0.82306   0.95301   0.01267  Uiso   1.00
C10    C     0.08246   0.97356   0.91094   0.01267  Uiso   1.00
C11    C     0.08600   0.17869   0.04005   0.01267  Uiso   1.00
C12    C     0.08492   0.03553   0.09288   0.01267  Uiso   1.00
C13    C     0.90231   0.32003   0.54088   0.01267  Uiso   1.00
C14    C     0.90322   0.46450   0.59199   0.01267  Uiso   1.00
C15    C     0.89667   0.67920   0.46011   0.01267  Uiso   1.00
C16    C     0.89616   0.53539   0.40809   0.01267  Uiso   1.00
C17    C     0.50421   0.23720   0.24515   0.01267  Uiso   1.00
C18    C     0.56008   0.19080   0.30203   0.01267  Uiso   1.00
C19    C     0.55297   0.23717   0.36197   0.01267  Uiso   1.00
C20    C     0.49671   0.33038   0.36749   0.01267  Uiso   1.00
C21    C     0.44335   0.37565   0.31091   0.01267  Uiso   1.00
C22    C     0.44735   0.33027   0.25113   0.01267  Uiso   1.00
C23    C     0.49762   0.18976   0.18037   0.01267  Uiso   1.00
C24    C     0.49521   0.37917   0.43181   0.01267  Uiso   1.00
C25    C     0.47875   0.76209   0.75527   0.01267  Uiso   1.00
C26    C     0.41847   0.80724   0.69851   0.01267  Uiso   1.00
C27    C     0.42820   0.76099   0.63857   0.01267  Uiso   1.00
C28    C     0.49065   0.66888   0.63301   0.01267  Uiso   1.00
C29    C     0.54740   0.62459   0.68953   0.01267  Uiso   1.00
C30    C     0.54160   0.67007   0.74928   0.01267  Uiso   1.00
C31    C     0.48344   0.80993   0.81992   0.01267  Uiso   1.00
C32    C     0.49435   0.62013   0.56872   0.01267  Uiso   1.00
C33    C     0.50342   0.73703   0.25504   0.01267  Uiso   1.00
C34    C     0.55628   0.69042   0.19787   0.01267  Uiso   1.00
C35    C     0.54734   0.73679   0.13793   0.01267  Uiso   1.00
C36    C     0.49218   0.83022   0.13265   0.01267  Uiso   1.00
C37    C     0.44181   0.87567   0.18952   0.01267  Uiso   1.00
C38    C     0.44761   0.83031   0.24930   0.01267  Uiso   1.00
C39    C     0.49862   0.68962   0.31991   0.01267  Uiso   1.00
C40    C     0.48891   0.87914   0.06834   0.01267  Uiso   1.00
C41    C     0.50594   0.26194   0.74528   0.01267  Uiso   1.00
C42    C     0.56706   0.30710   0.80192   0.01267  Uiso   1.00
C43    C     0.55702   0.26110   0.86193   0.01267  Uiso   1.00
C44    C     0.49341   0.16923   0.86768   0.01267  Uiso   1.00
C45    C     0.43570   0.12491   0.81131   0.01267  Uiso   1.00
C46    C     0.44184   0.17017   0.75147   0.01267  Uiso   1.00
C47    C     0.50169   0.30955   0.68054   0.01267  Uiso   1.00
C48    C     0.48948   0.12078   0.93205   0.01267  Uiso   1.00
N1     N     0.79732   0.10730   0.06642   0.01267  Uiso   1.00
N2     N     0.79456   0.89777   0.93140   0.01267  Uiso   1.00
N3     N     0.18468   0.60726   0.43342   0.01267  Uiso   1.00
N4     N     0.19092   0.39168   0.56703   0.01267  Uiso   1.00
N5     N     0.17912   0.89818   0.93170   0.01267  Uiso   1.00
N6     N     0.18190   0.10733   0.06704   0.01267  Uiso   1.00
N7     N     0.80635   0.39219   0.56682   0.01267  Uiso   1.00
N8     N     0.80010   0.60750   0.43387   0.01267  Uiso   1.00
N9     N     0.63141   0.09812   0.29994   0.01267  Uiso   1.00
N10    N     0.33885   0.89808   0.70081   0.01267  Uiso   1.00
N11    N     0.62635   0.59746   0.19959   0.01267  Uiso   1.00
N12    N     0.64781   0.39767   0.79941   0.01267  Uiso   1.00
O1     O     0.49732   0.10236   0.17337   0.01267  Uiso   1.00
O2     O     0.49007   0.23305   0.12745   0.01267  Uiso   1.00
O3     O     0.76032   0.07798   0.26028   0.01267  Uiso   1.00
O6     O     0.36713   0.95675   0.65453   0.01267  Uiso   1.00
O9     O     0.58455   0.53882   0.15461   0.01267  Uiso   1.00
O12    O     0.62076   0.45653   0.84566   0.01267  Uiso   1.00
O13    O     0.48744   0.89742   0.82654   0.01267  Uiso   1.00
O14    O     0.48531   0.76696   0.87305   0.01267  Uiso   1.00
O15    O     0.21223   0.91567   0.74196   0.01267  Uiso   1.00
O18    O     0.59230   0.03932   0.34513   0.01267  Uiso   1.00
O19    O     0.49830   0.39702   0.67370   0.01267  Uiso   1.00
O20    O     0.49958   0.26634   0.62752   0.01267  Uiso   1.00
O21    O     0.77419   0.41475   0.75807   0.01267  Uiso   1.00
O22    O     0.49829   0.60222   0.32697   0.01267  Uiso   1.00
O23    O     0.49256   0.73294   0.37285   0.01267  Uiso   1.00
O24    O     0.75666   0.57685   0.23855   0.01267  Uiso   1.00
O25    O     0.49406   0.46804   0.43620   0.01267  Uiso   1.00
O26    O     0.49824   0.33188   0.48405   0.01267  Uiso   1.00
O27    O     0.49628   0.53127   0.56432   0.01267  Uiso   1.00
O28    O     0.49215   0.66746   0.51650   0.01267  Uiso   1.00
O29    O     0.48896   0.96804   0.06407   0.01267  Uiso   1.00
O30    O     0.48859   0.83198   0.01599   0.01267  Uiso   1.00
O31    O     0.48811   0.03197   0.93674   0.01267  Uiso   1.00
O32    O     0.49118   0.16825   0.98418   0.01267  Uiso   1.00
loop_
_geom_bond_atom_site_label_1
_geom_bond_atom_site_label_2
_geom_bond_distance
_geom_bond_site_symmetry_2
_ccdc_geom_bond_type
Cd1    N1      2.297   .     S
Cd1    N6      2.302   .     S
Cd1    O1      2.049   .     S
Cd1    O2      2.075   .     S
Cd1    O29     2.057   1_545 S
Cd1    O32     2.087   1_554 S
Cd2    N2      2.298   .     S
Cd2    N5      2.300   .     S
Cd2    O13     2.050   .     S
Cd2    O14     2.075   .     S
Cd2    O30     2.090   1_556 S
Cd2    O31     2.053   1_565 S
Cd3    N3      2.301   .     S
Cd3    N8      2.297   .     S
Cd3    O22     2.050   .     S
Cd3    O23     2.076   .     S
Cd3    O25     2.055   .     S
Cd3    O28     2.088   .     S
Cd4    N4      2.298   .     S
Cd4    N7      2.301   .     S
Cd4    O19     2.051   .     S
Cd4    O20     2.074   .     S
Cd4    O26     2.088   .     S
Cd4    O27     2.055   .     S
H1     C1      1.081   .     S
H2     C2      1.081   1_565 S
H3     C3      1.082   .     S
H4     C4      1.080   1_545 S
H5     C5      1.082   .     S
H6     C6      1.079   .     S
H7     C7      1.081   .     S
H8     C8      1.081   .     S
H9     C9      1.082   .     S
H10    C10     1.079   1_545 S
H11    C11     1.082   .     S
H12    C12     1.079   1_565 S
H13    C13     1.082   .     S
H14    C14     1.079   .     S
H15    C15     1.082   .     S
H16    C16     1.081   .     S
H17    C19     1.083   .     S
H18    C21     1.076   .     S
H19    C22     1.083   .     S
H20    C27     1.083   .     S
H21    C29     1.076   .     S
H22    C30     1.082   .     S
H23    C35     1.083   .     S
H24    C37     1.076   .     S
H25    C38     1.083   .     S
H26    C43     1.083   .     S
H27    C45     1.076   .     S
H28    C46     1.082   .     S
C1     N1      1.372   .     A
C1     C11     1.431   1_655 S
C2     N1      1.370   .     A
C2     H2      1.081   1_545 S
C2     C12     1.426   1_655 S
C3     N2      1.371   .     A
C3     C9      1.429   1_655 S
C4     N2      1.371   .     A
C4     H4      1.080   1_565 S
C4     C10     1.428   1_655 S
C5     N3      1.372   .     A
C5     C15     1.431   1_455 S
C6     N3      1.371   .     A
C6     C16     1.426   1_455 S
C7     N4      1.372   .     A
C7     C13     1.431   1_455 S
C8     N4      1.370   .     A
C8     C14     1.426   1_455 S
C9     N5      1.371   .     A
C9     C3      1.429   1_455 S
C10    N5      1.372   .     A
C10    H10     1.079   1_565 S
C10    C4      1.428   1_455 S
C11    N6      1.372   .     A
C11    C1      1.431   1_455 S
C12    N6      1.371   .     A
C12    H12     1.079   1_545 S
C12    C2      1.426   1_455 S
C13    N7      1.372   .     A
C13    C7      1.431   1_655 S
C14    N7      1.371   .     A
C14    C8      1.426   1_655 S
C15    N8      1.372   .     A
C15    C5      1.431   1_655 S
C16    N8      1.370   .     A
C16    C6      1.426   1_655 S
C17    C18     1.426   .     A
C17    C22     1.409   .     A
C17    C23     1.518   .     S
C18    C19     1.421   .     A
C18    N9      1.436   .     S
C19    C20     1.409   .     A
C20    C21     1.408   .     A
C20    C24     1.517   .     S
C21    C22     1.411   .     A
C23    O1      1.265   .     A
C23    O2      1.271   .     A
C24    O25     1.281   .     A
C24    O26     1.287   .     A
C25    C26     1.426   .     A
C25    C30     1.409   .     A
C25    C31     1.517   .     S
C26    C27     1.421   .     A
C26    N10     1.436   .     S
C27    C28     1.409   .     A
C28    C29     1.408   .     A
C28    C32     1.517   .     S
C29    C30     1.411   .     A
C31    O13     1.266   .     A
C31    O14     1.272   .     A
C32    O27     1.281   .     A
C32    O28     1.287   .     A
C33    C34     1.426   .     A
C33    C38     1.410   .     A
C33    C39     1.519   .     S
C34    C35     1.421   .     A
C34    N11     1.436   .     S
C35    C36     1.409   .     A
C36    C37     1.408   .     A
C36    C40     1.518   .     S
C37    C38     1.411   .     A
C39    O22     1.266   .     A
C39    O23     1.271   .     A
C40    O29     1.282   .     A
C40    O30     1.288   .     A
C41    C42     1.426   .     A
C41    C46     1.409   .     A
C41    C47     1.518   .     S
C42    C43     1.421   .     A
C42    N12     1.436   .     S
C43    C44     1.409   .     A
C44    C45     1.407   .     A
C44    C48     1.516   .     S
C45    C46     1.411   .     A
C47    O19     1.266   .     A
C47    O20     1.271   .     A
C48    O31     1.281   .     A
C48    O32     1.286   .     A
N9     O3      1.301   .     A
N9     O18     1.301   .     A
N10    O6      1.301   .     A
N10    O15     1.301   .     A
N11    O9      1.301   .     A
N11    O24     1.301   .     A
N12    O12     1.301   .     A
N12    O21     1.301   .     A
O29    Cd1     2.057   1_565 S
O30    Cd2     2.090   1_554 S
O31    Cd2     2.053   1_545 S
O32    Cd1     2.087   1_556 S
