data_image0
_cell_length_a       18.5068
_cell_length_b       11.426
_cell_length_c       19.0321
_cell_angle_alpha    90
_cell_angle_beta     108.341
_cell_angle_gamma    90

_symmetry_space_group_name_H-M    "P 1"
_symmetry_int_tables_number       1

loop_
  _symmetry_equiv_pos_as_xyz
  'x, y, z'

loop_
  _atom_site_label
  _atom_site_occupancy
  _atom_site_fract_x
  _atom_site_fract_y
  _atom_site_fract_z
  _atom_site_thermal_displace_type
  _atom_site_B_iso_or_equiv
  _atom_site_type_symbol
  C1       1.0000 0.89777  0.82710  0.92695  Biso   1.000  C
  C2       1.0000 0.83019  0.75270  0.88941  Biso   1.000  C
  C3       1.0000 0.79289  0.69770  0.93336  Biso   1.000  C
  H1       1.0000 0.81390  0.70170  0.98460  Biso   1.000  H
  C4       1.0000 0.72576  0.63750  0.90325  Biso   1.000  C
  H2       1.0000 0.70130  0.60280  0.93380  Biso   1.000  H
  C5       1.0000 0.69483  0.62920  0.82647  Biso   1.000  C
  C6       1.0000 0.73270  0.67900  0.78204  Biso   1.000  C
  H3       1.0000 0.71280  0.67050  0.73100  Biso   1.000  H
  C7       1.0000 0.80020  0.74190  0.81188  Biso   1.000  C
  C8       1.0000 0.61984  0.56890  0.79237  Biso   1.000  C
  C9       1.0000 0.88263  0.15600  0.96931  Biso   1.000  C
  C10      1.0000 0.81452  0.20630  0.98521  Biso   1.000  C
  C11      1.0000 0.79106  0.15980  0.04168  Biso   1.000  C
  H4       1.0000 0.81910  0.09940  0.07030  Biso   1.000  H
  N1       1.0000 0.83350  0.78930  0.76319  Biso   1.000  N
  H5       1.0000 0.81500  0.79300  0.71560  Biso   1.000  H
  H6       1.0000 0.86700  0.84300  0.77900  Biso   1.000  H
  O1       1.0000 0.92463  0.89160  0.88782  Biso   1.000  O
  O2       1.0000 0.92323  0.82250  0.99635  Biso   1.000  O
  O3       1.0000 0.58927  0.52055  0.83596  Biso   1.000  O
  O4       1.0000 0.59184  0.56810  0.72395  Biso   1.000  O
  O5       1.0000 0.91949  0.07355  0.00797  Biso   1.000  O
  O6       1.0000 0.90051  0.19650  0.91595  Biso   1.000  O
  Ce1      1.0000 0.00045  0.06549  0.89850  Biso   1.000  Ce
  C12      1.0000 0.72683  0.20090  0.05684  Biso   1.000  C
  N2       1.0000 0.70670  0.14300  0.11190  Biso   1.000  N
  H7       1.0000 0.67900  0.17000  0.13500  Biso   1.000  H
  H8       1.0000 0.71800  0.07200  0.12500  Biso   1.000  H
  H9       1.0000 0.72000  0.17700  0.10000  Biso   1.000  H
  C13      1.0000 0.39777  0.32710  0.92695  Biso   1.000  C
  C14      1.0000 0.33019  0.25270  0.88941  Biso   1.000  C
  C15      1.0000 0.29289  0.19770  0.93336  Biso   1.000  C
  H10      1.0000 0.31390  0.20170  0.98460  Biso   1.000  H
  C16      1.0000 0.22576  0.13750  0.90325  Biso   1.000  C
  H11      1.0000 0.20130  0.10280  0.93380  Biso   1.000  H
  C17      1.0000 0.19483  0.12920  0.82647  Biso   1.000  C
  C18      1.0000 0.23270  0.17900  0.78204  Biso   1.000  C
  H12      1.0000 0.21280  0.17050  0.73100  Biso   1.000  H
  C19      1.0000 0.30020  0.24190  0.81188  Biso   1.000  C
  C20      1.0000 0.11984  0.06890  0.79237  Biso   1.000  C
  C21      1.0000 0.38263  0.65600  0.96931  Biso   1.000  C
  C22      1.0000 0.31452  0.70630  0.98521  Biso   1.000  C
  C23      1.0000 0.29106  0.65980  0.04168  Biso   1.000  C
  H13      1.0000 0.31910  0.59940  0.07030  Biso   1.000  H
  N3       1.0000 0.33350  0.28930  0.76319  Biso   1.000  N
  H14      1.0000 0.31500  0.29300  0.71560  Biso   1.000  H
  H15      1.0000 0.36700  0.34300  0.77900  Biso   1.000  H
  O7       1.0000 0.42463  0.39160  0.88782  Biso   1.000  O
  O8       1.0000 0.42323  0.32250  0.99635  Biso   1.000  O
  O9       1.0000 0.08927  0.02055  0.83596  Biso   1.000  O
  O10      1.0000 0.09184  0.06810  0.72395  Biso   1.000  O
  O11      1.0000 0.41949  0.57355  0.00797  Biso   1.000  O
  O12      1.0000 0.40051  0.69650  0.91595  Biso   1.000  O
  Ce2      1.0000 0.50045  0.56549  0.89850  Biso   1.000  Ce
  C24      1.0000 0.22683  0.70090  0.05684  Biso   1.000  C
  N4       1.0000 0.20670  0.64300  0.11190  Biso   1.000  N
  H16      1.0000 0.17900  0.67000  0.13500  Biso   1.000  H
  H17      1.0000 0.21800  0.57200  0.12500  Biso   1.000  H
  H18      1.0000 0.22000  0.67700  0.10000  Biso   1.000  H
  C25      1.0000 0.10223  0.82710  0.57305  Biso   1.000  C
  C26      1.0000 0.16981  0.75270  0.61059  Biso   1.000  C
  C27      1.0000 0.20711  0.69770  0.56664  Biso   1.000  C
  H19      1.0000 0.18610  0.70170  0.51540  Biso   1.000  H
  C28      1.0000 0.27424  0.63750  0.59675  Biso   1.000  C
  H20      1.0000 0.29870  0.60280  0.56620  Biso   1.000  H
  C29      1.0000 0.30517  0.62920  0.67353  Biso   1.000  C
  C30      1.0000 0.26730  0.67900  0.71796  Biso   1.000  C
  H21      1.0000 0.28720  0.67050  0.76900  Biso   1.000  H
  C31      1.0000 0.19980  0.74190  0.68812  Biso   1.000  C
  C32      1.0000 0.38016  0.56890  0.70763  Biso   1.000  C
  C33      1.0000 0.11737  0.15600  0.53069  Biso   1.000  C
  C34      1.0000 0.18548  0.20630  0.51479  Biso   1.000  C
  C35      1.0000 0.20894  0.15980  0.45832  Biso   1.000  C
  H22      1.0000 0.18090  0.09940  0.42970  Biso   1.000  H
  N5       1.0000 0.16650  0.78930  0.73681  Biso   1.000  N
  H23      1.0000 0.18500  0.79300  0.78440  Biso   1.000  H
  H24      1.0000 0.13300  0.84300  0.72100  Biso   1.000  H
  O13      1.0000 0.07537  0.89160  0.61218  Biso   1.000  O
  O14      1.0000 0.07677  0.82250  0.50365  Biso   1.000  O
  O15      1.0000 0.41073  0.52055  0.66404  Biso   1.000  O
  O16      1.0000 0.40816  0.56810  0.77605  Biso   1.000  O
  O17      1.0000 0.08051  0.07355  0.49203  Biso   1.000  O
  O18      1.0000 0.09949  0.19650  0.58405  Biso   1.000  O
  Ce3      1.0000 0.99955  0.06549  0.60150  Biso   1.000  Ce
  C36      1.0000 0.27317  0.20090  0.44316  Biso   1.000  C
  N6       1.0000 0.29330  0.14300  0.38810  Biso   1.000  N
  H25      1.0000 0.32100  0.17000  0.36500  Biso   1.000  H
  H26      1.0000 0.28200  0.07200  0.37500  Biso   1.000  H
  H27      1.0000 0.28000  0.17700  0.40000  Biso   1.000  H
  C37      1.0000 0.60223  0.32710  0.57305  Biso   1.000  C
  C38      1.0000 0.66981  0.25270  0.61059  Biso   1.000  C
  C39      1.0000 0.70711  0.19770  0.56664  Biso   1.000  C
  H28      1.0000 0.68610  0.20170  0.51540  Biso   1.000  H
  C40      1.0000 0.77424  0.13750  0.59675  Biso   1.000  C
  H29      1.0000 0.79870  0.10280  0.56620  Biso   1.000  H
  C41      1.0000 0.80517  0.12920  0.67353  Biso   1.000  C
  C42      1.0000 0.76730  0.17900  0.71796  Biso   1.000  C
  H30      1.0000 0.78720  0.17050  0.76900  Biso   1.000  H
  C43      1.0000 0.69980  0.24190  0.68812  Biso   1.000  C
  C44      1.0000 0.88016  0.06890  0.70763  Biso   1.000  C
  C45      1.0000 0.61737  0.65600  0.53069  Biso   1.000  C
  C46      1.0000 0.68548  0.70630  0.51479  Biso   1.000  C
  C47      1.0000 0.70894  0.65980  0.45832  Biso   1.000  C
  H31      1.0000 0.68090  0.59940  0.42970  Biso   1.000  H
  N7       1.0000 0.66650  0.28930  0.73681  Biso   1.000  N
  H32      1.0000 0.68500  0.29300  0.78440  Biso   1.000  H
  H33      1.0000 0.63300  0.34300  0.72100  Biso   1.000  H
  O19      1.0000 0.57537  0.39160  0.61218  Biso   1.000  O
  O20      1.0000 0.57677  0.32250  0.50365  Biso   1.000  O
  O21      1.0000 0.91073  0.02055  0.66404  Biso   1.000  O
  O22      1.0000 0.90816  0.06810  0.77605  Biso   1.000  O
  O23      1.0000 0.58051  0.57355  0.49203  Biso   1.000  O
  O24      1.0000 0.59949  0.69650  0.58405  Biso   1.000  O
  Ce4      1.0000 0.49955  0.56549  0.60150  Biso   1.000  Ce
  C48      1.0000 0.77317  0.70090  0.44316  Biso   1.000  C
  N8       1.0000 0.79330  0.64300  0.38810  Biso   1.000  N
  H34      1.0000 0.82100  0.67000  0.36500  Biso   1.000  H
  H35      1.0000 0.78200  0.57200  0.37500  Biso   1.000  H
  H36      1.0000 0.78000  0.67700  0.40000  Biso   1.000  H
  C49      1.0000 0.10223  0.17290  0.07305  Biso   1.000  C
  C50      1.0000 0.16981  0.24730  0.11059  Biso   1.000  C
  C51      1.0000 0.20711  0.30230  0.06664  Biso   1.000  C
  H37      1.0000 0.18610  0.29830  0.01540  Biso   1.000  H
  C52      1.0000 0.27424  0.36250  0.09675  Biso   1.000  C
  H38      1.0000 0.29870  0.39720  0.06620  Biso   1.000  H
  C53      1.0000 0.30517  0.37080  0.17353  Biso   1.000  C
  C54      1.0000 0.26730  0.32100  0.21796  Biso   1.000  C
  H39      1.0000 0.28720  0.32950  0.26900  Biso   1.000  H
  C55      1.0000 0.19980  0.25810  0.18812  Biso   1.000  C
  C56      1.0000 0.38016  0.43110  0.20763  Biso   1.000  C
  C57      1.0000 0.11737  0.84400  0.03069  Biso   1.000  C
  C58      1.0000 0.18548  0.79370  0.01479  Biso   1.000  C
  C59      1.0000 0.20894  0.84020  0.95832  Biso   1.000  C
  H40      1.0000 0.18090  0.90060  0.92970  Biso   1.000  H
  N9       1.0000 0.16650  0.21070  0.23681  Biso   1.000  N
  H41      1.0000 0.18500  0.20700  0.28440  Biso   1.000  H
  H42      1.0000 0.13300  0.15700  0.22100  Biso   1.000  H
  O25      1.0000 0.07537  0.10840  0.11218  Biso   1.000  O
  O26      1.0000 0.07677  0.17750  0.00365  Biso   1.000  O
  O27      1.0000 0.41073  0.47945  0.16404  Biso   1.000  O
  O28      1.0000 0.40816  0.43190  0.27605  Biso   1.000  O
  O29      1.0000 0.08051  0.92645  0.99203  Biso   1.000  O
  O30      1.0000 0.09949  0.80350  0.08405  Biso   1.000  O
  Ce5      1.0000 0.99955  0.93451  0.10150  Biso   1.000  Ce
  C60      1.0000 0.27317  0.79910  0.94316  Biso   1.000  C
  N10      1.0000 0.29330  0.85700  0.88810  Biso   1.000  N
  H43      1.0000 0.32100  0.83000  0.86500  Biso   1.000  H
  H44      1.0000 0.28200  0.92800  0.87500  Biso   1.000  H
  H45      1.0000 0.28000  0.82300  0.90000  Biso   1.000  H
  C61      1.0000 0.60223  0.67290  0.07305  Biso   1.000  C
  C62      1.0000 0.66981  0.74730  0.11059  Biso   1.000  C
  C63      1.0000 0.70711  0.80230  0.06664  Biso   1.000  C
  H46      1.0000 0.68610  0.79830  0.01540  Biso   1.000  H
  C64      1.0000 0.77424  0.86250  0.09675  Biso   1.000  C
  H47      1.0000 0.79870  0.89720  0.06620  Biso   1.000  H
  C65      1.0000 0.80517  0.87080  0.17353  Biso   1.000  C
  C66      1.0000 0.76730  0.82100  0.21796  Biso   1.000  C
  H48      1.0000 0.78720  0.82950  0.26900  Biso   1.000  H
  C67      1.0000 0.69980  0.75810  0.18812  Biso   1.000  C
  C68      1.0000 0.88016  0.93110  0.20763  Biso   1.000  C
  C69      1.0000 0.61737  0.34400  0.03069  Biso   1.000  C
  C70      1.0000 0.68548  0.29370  0.01479  Biso   1.000  C
  C71      1.0000 0.70894  0.34020  0.95832  Biso   1.000  C
  H49      1.0000 0.68090  0.40060  0.92970  Biso   1.000  H
  N11      1.0000 0.66650  0.71070  0.23681  Biso   1.000  N
  H50      1.0000 0.68500  0.70700  0.28440  Biso   1.000  H
  H51      1.0000 0.63300  0.65700  0.22100  Biso   1.000  H
  O31      1.0000 0.57537  0.60840  0.11218  Biso   1.000  O
  O32      1.0000 0.57677  0.67750  0.00365  Biso   1.000  O
  O33      1.0000 0.91073  0.97945  0.16404  Biso   1.000  O
  O34      1.0000 0.90816  0.93190  0.27605  Biso   1.000  O
  O35      1.0000 0.58051  0.42645  0.99203  Biso   1.000  O
  O36      1.0000 0.59949  0.30350  0.08405  Biso   1.000  O
  Ce6      1.0000 0.49955  0.43451  0.10150  Biso   1.000  Ce
  C72      1.0000 0.77317  0.29910  0.94316  Biso   1.000  C
  N12      1.0000 0.79330  0.35700  0.88810  Biso   1.000  N
  H52      1.0000 0.82100  0.33000  0.86500  Biso   1.000  H
  H53      1.0000 0.78200  0.42800  0.87500  Biso   1.000  H
  H54      1.0000 0.78000  0.32300  0.90000  Biso   1.000  H
  C73      1.0000 0.89777  0.17290  0.42695  Biso   1.000  C
  C74      1.0000 0.83019  0.24730  0.38941  Biso   1.000  C
  C75      1.0000 0.79289  0.30230  0.43336  Biso   1.000  C
  H55      1.0000 0.81390  0.29830  0.48460  Biso   1.000  H
  C76      1.0000 0.72576  0.36250  0.40325  Biso   1.000  C
  H56      1.0000 0.70130  0.39720  0.43380  Biso   1.000  H
  C77      1.0000 0.69483  0.37080  0.32647  Biso   1.000  C
  C78      1.0000 0.73270  0.32100  0.28204  Biso   1.000  C
  H57      1.0000 0.71280  0.32950  0.23100  Biso   1.000  H
  C79      1.0000 0.80020  0.25810  0.31188  Biso   1.000  C
  C80      1.0000 0.61984  0.43110  0.29237  Biso   1.000  C
  C81      1.0000 0.88263  0.84400  0.46931  Biso   1.000  C
  C82      1.0000 0.81452  0.79370  0.48521  Biso   1.000  C
  C83      1.0000 0.79106  0.84020  0.54168  Biso   1.000  C
  H58      1.0000 0.81910  0.90060  0.57030  Biso   1.000  H
  N13      1.0000 0.83350  0.21070  0.26319  Biso   1.000  N
  H59      1.0000 0.81500  0.20700  0.21560  Biso   1.000  H
  H60      1.0000 0.86700  0.15700  0.27900  Biso   1.000  H
  O37      1.0000 0.92463  0.10840  0.38782  Biso   1.000  O
  O38      1.0000 0.92323  0.17750  0.49635  Biso   1.000  O
  O39      1.0000 0.58927  0.47945  0.33596  Biso   1.000  O
  O40      1.0000 0.59184  0.43190  0.22395  Biso   1.000  O
  O41      1.0000 0.91949  0.92645  0.50797  Biso   1.000  O
  O42      1.0000 0.90051  0.80350  0.41595  Biso   1.000  O
  Ce7      1.0000 0.00045  0.93451  0.39850  Biso   1.000  Ce
  C84      1.0000 0.72683  0.79910  0.55684  Biso   1.000  C
  N14      1.0000 0.70670  0.85700  0.61190  Biso   1.000  N
  H61      1.0000 0.67900  0.83000  0.63500  Biso   1.000  H
  H62      1.0000 0.71800  0.92800  0.62500  Biso   1.000  H
  H63      1.0000 0.72000  0.82300  0.60000  Biso   1.000  H
  C85      1.0000 0.39777  0.67290  0.42695  Biso   1.000  C
  C86      1.0000 0.33019  0.74730  0.38941  Biso   1.000  C
  C87      1.0000 0.29289  0.80230  0.43336  Biso   1.000  C
  H64      1.0000 0.31390  0.79830  0.48460  Biso   1.000  H
  C88      1.0000 0.22576  0.86250  0.40325  Biso   1.000  C
  H65      1.0000 0.20130  0.89720  0.43380  Biso   1.000  H
  C89      1.0000 0.19483  0.87080  0.32647  Biso   1.000  C
  C90      1.0000 0.23270  0.82100  0.28204  Biso   1.000  C
  H66      1.0000 0.21280  0.82950  0.23100  Biso   1.000  H
  C91      1.0000 0.30020  0.75810  0.31188  Biso   1.000  C
  C92      1.0000 0.11984  0.93110  0.29237  Biso   1.000  C
  C93      1.0000 0.38263  0.34400  0.46931  Biso   1.000  C
  C94      1.0000 0.31452  0.29370  0.48521  Biso   1.000  C
  C95      1.0000 0.29106  0.34020  0.54168  Biso   1.000  C
  H67      1.0000 0.31910  0.40060  0.57030  Biso   1.000  H
  N15      1.0000 0.33350  0.71070  0.26319  Biso   1.000  N
  H68      1.0000 0.31500  0.70700  0.21560  Biso   1.000  H
  H69      1.0000 0.36700  0.65700  0.27900  Biso   1.000  H
  O43      1.0000 0.42463  0.60840  0.38782  Biso   1.000  O
  O44      1.0000 0.42323  0.67750  0.49635  Biso   1.000  O
  O45      1.0000 0.08927  0.97945  0.33596  Biso   1.000  O
  O46      1.0000 0.09184  0.93190  0.22395  Biso   1.000  O
  O47      1.0000 0.41949  0.42645  0.50797  Biso   1.000  O
  O48      1.0000 0.40051  0.30350  0.41595  Biso   1.000  O
  Ce8      1.0000 0.50045  0.43451  0.39850  Biso   1.000  Ce
  C96      1.0000 0.22683  0.29910  0.55684  Biso   1.000  C
  N16      1.0000 0.20670  0.35700  0.61190  Biso   1.000  N
  H70      1.0000 0.17900  0.33000  0.63500  Biso   1.000  H
  H71      1.0000 0.21800  0.42800  0.62500  Biso   1.000  H
  H72      1.0000 0.22000  0.32300  0.60000  Biso   1.000  H
