data_image0
_cell_length_a       18.3223
_cell_length_b       11.4005
_cell_length_c       18.8536
_cell_angle_alpha    90
_cell_angle_beta     108.681
_cell_angle_gamma    90

_symmetry_space_group_name_H-M    "P 1"
_symmetry_int_tables_number       1

loop_
  _symmetry_equiv_pos_as_xyz
  'x, y, z'

loop_
  _atom_site_label
  _atom_site_occupancy
  _atom_site_fract_x
  _atom_site_fract_y
  _atom_site_fract_z
  _atom_site_thermal_displace_type
  _atom_site_B_iso_or_equiv
  _atom_site_type_symbol
  Sm1      1.0000 0.50082  0.43320  0.89650  Biso   1.000  Sm
  O1       1.0000 0.57530  0.33240  0.00010  Biso   1.000  O
  O2       1.0000 0.40500  0.32460  0.92270  Biso   1.000  O
  O3       1.0000 0.91110  0.07490  0.27940  Biso   1.000  O
  O4       1.0000 0.91460  0.03150  0.16560  Biso   1.000  O
  O5       1.0000 0.57900  0.40900  0.11140  Biso   1.000  O
  O6       1.0000 0.42250  0.42960  0.02480  Biso   1.000  O
  N1       1.0000 0.66800  0.30010  0.23900  Biso   1.000  N
  N2       1.0000 0.30180  0.15010  0.88970  Biso   1.000  N
  C1       1.0000 0.60290  0.33960  0.07100  Biso   1.000  C
  C2       1.0000 0.66970  0.26200  0.10910  Biso   1.000  C
  C3       1.0000 0.69960  0.25030  0.18850  Biso   1.000  C
  C4       1.0000 0.76760  0.18550  0.21900  Biso   1.000  C
  H1       1.0000 0.78800  0.17660  0.27180  Biso   1.000  H
  C5       1.0000 0.70620  0.20350  0.06500  Biso   1.000  C
  H2       1.0000 0.68440  0.20630  0.01200  Biso   1.000  H
  C6       1.0000 0.38710  0.35380  0.98020  Biso   1.000  C
  C7       1.0000 0.31630  0.29760  0.98940  Biso   1.000  C
  C8       1.0000 0.27730  0.20300  0.94440  Biso   1.000  C
  C9       1.0000 0.28840  0.34110  0.04520  Biso   1.000  C
  H3       1.0000 0.31560  0.40260  0.07670  Biso   1.000  H
  C10      1.0000 0.88250  0.07660  0.20940  Biso   1.000  C
  C11      1.0000 0.80560  0.13440  0.17440  Biso   1.000  C
  C12      1.0000 0.77380  0.14150  0.09690  Biso   1.000  C
  H4       1.0000 0.79840  0.10360  0.06590  Biso   1.000  H
  Sm2      1.0000 0.00082  0.93320  0.89650  Biso   1.000  Sm
  O7       1.0000 0.07530  0.83240  0.00010  Biso   1.000  O
  O8       1.0000 0.90500  0.82460  0.92270  Biso   1.000  O
  O9       1.0000 0.41110  0.57490  0.27940  Biso   1.000  O
  O10      1.0000 0.41460  0.53150  0.16560  Biso   1.000  O
  O11      1.0000 0.07900  0.90900  0.11140  Biso   1.000  O
  O12      1.0000 0.92250  0.92960  0.02480  Biso   1.000  O
  N3       1.0000 0.16800  0.80010  0.23900  Biso   1.000  N
  N4       1.0000 0.80180  0.65010  0.88970  Biso   1.000  N
  C13      1.0000 0.10290  0.83960  0.07100  Biso   1.000  C
  C14      1.0000 0.16970  0.76200  0.10910  Biso   1.000  C
  C15      1.0000 0.19960  0.75030  0.18850  Biso   1.000  C
  C16      1.0000 0.26760  0.68550  0.21900  Biso   1.000  C
  H5       1.0000 0.28800  0.67660  0.27180  Biso   1.000  H
  C17      1.0000 0.20620  0.70350  0.06500  Biso   1.000  C
  H6       1.0000 0.18440  0.70630  0.01200  Biso   1.000  H
  C18      1.0000 0.88710  0.85380  0.98020  Biso   1.000  C
  C19      1.0000 0.81630  0.79760  0.98940  Biso   1.000  C
  C20      1.0000 0.77730  0.70300  0.94440  Biso   1.000  C
  C21      1.0000 0.78840  0.84110  0.04520  Biso   1.000  C
  H7       1.0000 0.81560  0.90260  0.07670  Biso   1.000  H
  C22      1.0000 0.38250  0.57660  0.20940  Biso   1.000  C
  C23      1.0000 0.30560  0.63440  0.17440  Biso   1.000  C
  C24      1.0000 0.27380  0.64150  0.09690  Biso   1.000  C
  H8       1.0000 0.29840  0.60360  0.06590  Biso   1.000  H
  Sm3      1.0000 0.49918  0.43320  0.60350  Biso   1.000  Sm
  O13      1.0000 0.42470  0.33240  0.49990  Biso   1.000  O
  O14      1.0000 0.59500  0.32460  0.57730  Biso   1.000  O
  O15      1.0000 0.08890  0.07490  0.22060  Biso   1.000  O
  O16      1.0000 0.08540  0.03150  0.33440  Biso   1.000  O
  O17      1.0000 0.42100  0.40900  0.38860  Biso   1.000  O
  O18      1.0000 0.57750  0.42960  0.47520  Biso   1.000  O
  N5       1.0000 0.33200  0.30010  0.26100  Biso   1.000  N
  N6       1.0000 0.69820  0.15010  0.61030  Biso   1.000  N
  C25      1.0000 0.39710  0.33960  0.42900  Biso   1.000  C
  C26      1.0000 0.33030  0.26200  0.39090  Biso   1.000  C
  C27      1.0000 0.30040  0.25030  0.31150  Biso   1.000  C
  C28      1.0000 0.23240  0.18550  0.28100  Biso   1.000  C
  H9       1.0000 0.21200  0.17660  0.22820  Biso   1.000  H
  C29      1.0000 0.29380  0.20350  0.43500  Biso   1.000  C
  H10      1.0000 0.31560  0.20630  0.48800  Biso   1.000  H
  C30      1.0000 0.61290  0.35380  0.51980  Biso   1.000  C
  C31      1.0000 0.68370  0.29760  0.51060  Biso   1.000  C
  C32      1.0000 0.72270  0.20300  0.55560  Biso   1.000  C
  C33      1.0000 0.71160  0.34110  0.45480  Biso   1.000  C
  H11      1.0000 0.68440  0.40260  0.42330  Biso   1.000  H
  C34      1.0000 0.11750  0.07660  0.29060  Biso   1.000  C
  C35      1.0000 0.19440  0.13440  0.32560  Biso   1.000  C
  C36      1.0000 0.22620  0.14150  0.40310  Biso   1.000  C
  H12      1.0000 0.20160  0.10360  0.43410  Biso   1.000  H
  Sm4      1.0000 0.99918  0.93320  0.60350  Biso   1.000  Sm
  O19      1.0000 0.92470  0.83240  0.49990  Biso   1.000  O
  O20      1.0000 0.09500  0.82460  0.57730  Biso   1.000  O
  O21      1.0000 0.58890  0.57490  0.22060  Biso   1.000  O
  O22      1.0000 0.58540  0.53150  0.33440  Biso   1.000  O
  O23      1.0000 0.92100  0.90900  0.38860  Biso   1.000  O
  O24      1.0000 0.07750  0.92960  0.47520  Biso   1.000  O
  N7       1.0000 0.83200  0.80010  0.26100  Biso   1.000  N
  N8       1.0000 0.19820  0.65010  0.61030  Biso   1.000  N
  C37      1.0000 0.89710  0.83960  0.42900  Biso   1.000  C
  C38      1.0000 0.83030  0.76200  0.39090  Biso   1.000  C
  C39      1.0000 0.80040  0.75030  0.31150  Biso   1.000  C
  C40      1.0000 0.73240  0.68550  0.28100  Biso   1.000  C
  H13      1.0000 0.71200  0.67660  0.22820  Biso   1.000  H
  C41      1.0000 0.79380  0.70350  0.43500  Biso   1.000  C
  H14      1.0000 0.81560  0.70630  0.48800  Biso   1.000  H
  C42      1.0000 0.11290  0.85380  0.51980  Biso   1.000  C
  C43      1.0000 0.18370  0.79760  0.51060  Biso   1.000  C
  C44      1.0000 0.22270  0.70300  0.55560  Biso   1.000  C
  C45      1.0000 0.21160  0.84110  0.45480  Biso   1.000  C
  H15      1.0000 0.18440  0.90260  0.42330  Biso   1.000  H
  C46      1.0000 0.61750  0.57660  0.29060  Biso   1.000  C
  C47      1.0000 0.69440  0.63440  0.32560  Biso   1.000  C
  C48      1.0000 0.72620  0.64150  0.40310  Biso   1.000  C
  H16      1.0000 0.70160  0.60360  0.43410  Biso   1.000  H
  Sm5      1.0000 0.49918  0.56680  0.10350  Biso   1.000  Sm
  O25      1.0000 0.42470  0.66760  0.99990  Biso   1.000  O
  O26      1.0000 0.59500  0.67540  0.07730  Biso   1.000  O
  O27      1.0000 0.08890  0.92510  0.72060  Biso   1.000  O
  O28      1.0000 0.08540  0.96850  0.83440  Biso   1.000  O
  O29      1.0000 0.42100  0.59100  0.88860  Biso   1.000  O
  O30      1.0000 0.57750  0.57040  0.97520  Biso   1.000  O
  N9       1.0000 0.33200  0.69990  0.76100  Biso   1.000  N
  N10      1.0000 0.69820  0.84990  0.11030  Biso   1.000  N
  C49      1.0000 0.39710  0.66040  0.92900  Biso   1.000  C
  C50      1.0000 0.33030  0.73800  0.89090  Biso   1.000  C
  C51      1.0000 0.30040  0.74970  0.81150  Biso   1.000  C
  C52      1.0000 0.23240  0.81450  0.78100  Biso   1.000  C
  H17      1.0000 0.21200  0.82340  0.72820  Biso   1.000  H
  C53      1.0000 0.29380  0.79650  0.93500  Biso   1.000  C
  H18      1.0000 0.31560  0.79370  0.98800  Biso   1.000  H
  C54      1.0000 0.61290  0.64620  0.01980  Biso   1.000  C
  C55      1.0000 0.68370  0.70240  0.01060  Biso   1.000  C
  C56      1.0000 0.72270  0.79700  0.05560  Biso   1.000  C
  C57      1.0000 0.71160  0.65890  0.95480  Biso   1.000  C
  H19      1.0000 0.68440  0.59740  0.92330  Biso   1.000  H
  C58      1.0000 0.11750  0.92340  0.79060  Biso   1.000  C
  C59      1.0000 0.19440  0.86560  0.82560  Biso   1.000  C
  C60      1.0000 0.22620  0.85850  0.90310  Biso   1.000  C
  H20      1.0000 0.20160  0.89640  0.93410  Biso   1.000  H
  Sm6      1.0000 0.99918  0.06680  0.10350  Biso   1.000  Sm
  O31      1.0000 0.92470  0.16760  0.99990  Biso   1.000  O
  O32      1.0000 0.09500  0.17540  0.07730  Biso   1.000  O
  O33      1.0000 0.58890  0.42510  0.72060  Biso   1.000  O
  O34      1.0000 0.58540  0.46850  0.83440  Biso   1.000  O
  O35      1.0000 0.92100  0.09100  0.88860  Biso   1.000  O
  O36      1.0000 0.07750  0.07040  0.97520  Biso   1.000  O
  N11      1.0000 0.83200  0.19990  0.76100  Biso   1.000  N
  N12      1.0000 0.19820  0.34990  0.11030  Biso   1.000  N
  C61      1.0000 0.89710  0.16040  0.92900  Biso   1.000  C
  C62      1.0000 0.83030  0.23800  0.89090  Biso   1.000  C
  C63      1.0000 0.80040  0.24970  0.81150  Biso   1.000  C
  C64      1.0000 0.73240  0.31450  0.78100  Biso   1.000  C
  H21      1.0000 0.71200  0.32340  0.72820  Biso   1.000  H
  C65      1.0000 0.79380  0.29650  0.93500  Biso   1.000  C
  H22      1.0000 0.81560  0.29370  0.98800  Biso   1.000  H
  C66      1.0000 0.11290  0.14620  0.01980  Biso   1.000  C
  C67      1.0000 0.18370  0.20240  0.01060  Biso   1.000  C
  C68      1.0000 0.22270  0.29700  0.05560  Biso   1.000  C
  C69      1.0000 0.21160  0.15890  0.95480  Biso   1.000  C
  H23      1.0000 0.18440  0.09740  0.92330  Biso   1.000  H
  C70      1.0000 0.61750  0.42340  0.79060  Biso   1.000  C
  C71      1.0000 0.69440  0.36560  0.82560  Biso   1.000  C
  C72      1.0000 0.72620  0.35850  0.90310  Biso   1.000  C
  H24      1.0000 0.70160  0.39640  0.93410  Biso   1.000  H
  Sm7      1.0000 0.50082  0.56680  0.39650  Biso   1.000  Sm
  O37      1.0000 0.57530  0.66760  0.50010  Biso   1.000  O
  O38      1.0000 0.40500  0.67540  0.42270  Biso   1.000  O
  O39      1.0000 0.91110  0.92510  0.77940  Biso   1.000  O
  O40      1.0000 0.91460  0.96850  0.66560  Biso   1.000  O
  O41      1.0000 0.57900  0.59100  0.61140  Biso   1.000  O
  O42      1.0000 0.42250  0.57040  0.52480  Biso   1.000  O
  N13      1.0000 0.66800  0.69990  0.73900  Biso   1.000  N
  N14      1.0000 0.30180  0.84990  0.38970  Biso   1.000  N
  C73      1.0000 0.60290  0.66040  0.57100  Biso   1.000  C
  C74      1.0000 0.66970  0.73800  0.60910  Biso   1.000  C
  C75      1.0000 0.69960  0.74970  0.68850  Biso   1.000  C
  C76      1.0000 0.76760  0.81450  0.71900  Biso   1.000  C
  H25      1.0000 0.78800  0.82340  0.77180  Biso   1.000  H
  C77      1.0000 0.70620  0.79650  0.56500  Biso   1.000  C
  H26      1.0000 0.68440  0.79370  0.51200  Biso   1.000  H
  C78      1.0000 0.38710  0.64620  0.48020  Biso   1.000  C
  C79      1.0000 0.31630  0.70240  0.48940  Biso   1.000  C
  C80      1.0000 0.27730  0.79700  0.44440  Biso   1.000  C
  C81      1.0000 0.28840  0.65890  0.54520  Biso   1.000  C
  H27      1.0000 0.31560  0.59740  0.57670  Biso   1.000  H
  C82      1.0000 0.88250  0.92340  0.70940  Biso   1.000  C
  C83      1.0000 0.80560  0.86560  0.67440  Biso   1.000  C
  C84      1.0000 0.77380  0.85850  0.59690  Biso   1.000  C
  H28      1.0000 0.79840  0.89640  0.56590  Biso   1.000  H
  Sm8      1.0000 0.00082  0.06680  0.39650  Biso   1.000  Sm
  O43      1.0000 0.07530  0.16760  0.50010  Biso   1.000  O
  O44      1.0000 0.90500  0.17540  0.42270  Biso   1.000  O
  O45      1.0000 0.41110  0.42510  0.77940  Biso   1.000  O
  O46      1.0000 0.41460  0.46850  0.66560  Biso   1.000  O
  O47      1.0000 0.07900  0.09100  0.61140  Biso   1.000  O
  O48      1.0000 0.92250  0.07040  0.52480  Biso   1.000  O
  N15      1.0000 0.16800  0.19990  0.73900  Biso   1.000  N
  N16      1.0000 0.80180  0.34990  0.38970  Biso   1.000  N
  C85      1.0000 0.10290  0.16040  0.57100  Biso   1.000  C
  C86      1.0000 0.16970  0.23800  0.60910  Biso   1.000  C
  C87      1.0000 0.19960  0.24970  0.68850  Biso   1.000  C
  C88      1.0000 0.26760  0.31450  0.71900  Biso   1.000  C
  H29      1.0000 0.28800  0.32340  0.77180  Biso   1.000  H
  C89      1.0000 0.20620  0.29650  0.56500  Biso   1.000  C
  H30      1.0000 0.18440  0.29370  0.51200  Biso   1.000  H
  C90      1.0000 0.88710  0.14620  0.48020  Biso   1.000  C
  C91      1.0000 0.81630  0.20240  0.48940  Biso   1.000  C
  C92      1.0000 0.77730  0.29700  0.44440  Biso   1.000  C
  C93      1.0000 0.78840  0.15890  0.54520  Biso   1.000  C
  H31      1.0000 0.81560  0.09740  0.57670  Biso   1.000  H
  C94      1.0000 0.38250  0.42340  0.70940  Biso   1.000  C
  C95      1.0000 0.30560  0.36560  0.67440  Biso   1.000  C
  C96      1.0000 0.27380  0.35850  0.59690  Biso   1.000  C
  H32      1.0000 0.29840  0.39640  0.56590  Biso   1.000  H
