data_image0
_cell_length_a       18.378
_cell_length_b       11.4146
_cell_length_c       18.8736
_cell_angle_alpha    90
_cell_angle_beta     108.426
_cell_angle_gamma    90

_symmetry_space_group_name_H-M    "P 1"
_symmetry_int_tables_number       1

loop_
  _symmetry_equiv_pos_as_xyz
  'x, y, z'

loop_
  _atom_site_label
  _atom_site_occupancy
  _atom_site_fract_x
  _atom_site_fract_y
  _atom_site_fract_z
  _atom_site_thermal_displace_type
  _atom_site_B_iso_or_equiv
  _atom_site_type_symbol
  Dy1      1.0000 0.00090  0.93449  0.39795  Biso   1.000  Dy
  O1       1.0000 0.92330  0.10040  0.38820  Biso   1.000  O
  O2       1.0000 0.90340  0.81140  0.41820  Biso   1.000  O
  O3       1.0000 0.58730  0.47640  0.33580  Biso   1.000  O
  O4       1.0000 0.92100  0.92850  0.51410  Biso   1.000  O
  O5       1.0000 0.92450  0.17340  0.49810  Biso   1.000  O
  O6       1.0000 0.58910  0.42880  0.22190  Biso   1.000  O
  N1       1.0000 0.83300  0.20880  0.26130  Biso   1.000  N
  C1       1.0000 0.89760  0.16710  0.42790  Biso   1.000  C
  C2       1.0000 0.83060  0.24460  0.39020  Biso   1.000  C
  C3       1.0000 0.80070  0.25560  0.31090  Biso   1.000  C
  C4       1.0000 0.73250  0.31880  0.28090  Biso   1.000  C
  H1       1.0000 0.71170  0.32730  0.22830  Biso   1.000  H
  C5       1.0000 0.79340  0.30000  0.43440  Biso   1.000  C
  H2       1.0000 0.81460  0.29530  0.48720  Biso   1.000  H
  C6       1.0000 0.72670  0.36160  0.40340  Biso   1.000  C
  H3       1.0000 0.70230  0.39900  0.43480  Biso   1.000  H
  C7       1.0000 0.88430  0.84830  0.47300  Biso   1.000  C
  C8       1.0000 0.81500  0.79540  0.48690  Biso   1.000  C
  C9       1.0000 0.77560  0.70110  0.44340  Biso   1.000  C
  C10      1.0000 0.79000  0.84120  0.54340  Biso   1.000  C
  H4       1.0000 0.81830  0.90280  0.57360  Biso   1.000  H
  C11      1.0000 0.61880  0.42910  0.29180  Biso   1.000  C
  C12      1.0000 0.69480  0.36920  0.32610  Biso   1.000  C
  N2       1.0000 0.79700  0.64770  0.38850  Biso   1.000  N
  Dy2      1.0000 0.50090  0.43449  0.39795  Biso   1.000  Dy
  O7       1.0000 0.42330  0.60040  0.38820  Biso   1.000  O
  O8       1.0000 0.40340  0.31140  0.41820  Biso   1.000  O
  O9       1.0000 0.08730  0.97640  0.33580  Biso   1.000  O
  O10      1.0000 0.42100  0.42850  0.51410  Biso   1.000  O
  O11      1.0000 0.42450  0.67340  0.49810  Biso   1.000  O
  O12      1.0000 0.08910  0.92880  0.22190  Biso   1.000  O
  N3       1.0000 0.33300  0.70880  0.26130  Biso   1.000  N
  C13      1.0000 0.39760  0.66710  0.42790  Biso   1.000  C
  C14      1.0000 0.33060  0.74460  0.39020  Biso   1.000  C
  C15      1.0000 0.30070  0.75560  0.31090  Biso   1.000  C
  C16      1.0000 0.23250  0.81880  0.28090  Biso   1.000  C
  H5       1.0000 0.21170  0.82730  0.22830  Biso   1.000  H
  C17      1.0000 0.29340  0.80000  0.43440  Biso   1.000  C
  H6       1.0000 0.31460  0.79530  0.48720  Biso   1.000  H
  C18      1.0000 0.22670  0.86160  0.40340  Biso   1.000  C
  H7       1.0000 0.20230  0.89900  0.43480  Biso   1.000  H
  C19      1.0000 0.38430  0.34830  0.47300  Biso   1.000  C
  C20      1.0000 0.31500  0.29540  0.48690  Biso   1.000  C
  C21      1.0000 0.27560  0.20110  0.44340  Biso   1.000  C
  C22      1.0000 0.29000  0.34120  0.54340  Biso   1.000  C
  H8       1.0000 0.31830  0.40280  0.57360  Biso   1.000  H
  C23      1.0000 0.11880  0.92910  0.29180  Biso   1.000  C
  C24      1.0000 0.19480  0.86920  0.32610  Biso   1.000  C
  N4       1.0000 0.29700  0.14770  0.38850  Biso   1.000  N
  Dy3      1.0000 0.99910  0.93449  0.10205  Biso   1.000  Dy
  O13      1.0000 0.07670  0.10040  0.11180  Biso   1.000  O
  O14      1.0000 0.09660  0.81140  0.08180  Biso   1.000  O
  O15      1.0000 0.41270  0.47640  0.16420  Biso   1.000  O
  O16      1.0000 0.07900  0.92850  0.98590  Biso   1.000  O
  O17      1.0000 0.07550  0.17340  0.00190  Biso   1.000  O
  O18      1.0000 0.41090  0.42880  0.27810  Biso   1.000  O
  N5       1.0000 0.16700  0.20880  0.23870  Biso   1.000  N
  C25      1.0000 0.10240  0.16710  0.07210  Biso   1.000  C
  C26      1.0000 0.16940  0.24460  0.10980  Biso   1.000  C
  C27      1.0000 0.19930  0.25560  0.18910  Biso   1.000  C
  C28      1.0000 0.26750  0.31880  0.21910  Biso   1.000  C
  H9       1.0000 0.28830  0.32730  0.27170  Biso   1.000  H
  C29      1.0000 0.20660  0.30000  0.06560  Biso   1.000  C
  H10      1.0000 0.18540  0.29530  0.01280  Biso   1.000  H
  C30      1.0000 0.27330  0.36160  0.09660  Biso   1.000  C
  H11      1.0000 0.29770  0.39900  0.06520  Biso   1.000  H
  C31      1.0000 0.11570  0.84830  0.02700  Biso   1.000  C
  C32      1.0000 0.18500  0.79540  0.01310  Biso   1.000  C
  C33      1.0000 0.22440  0.70110  0.05660  Biso   1.000  C
  C34      1.0000 0.21000  0.84120  0.95660  Biso   1.000  C
  H12      1.0000 0.18170  0.90280  0.92640  Biso   1.000  H
  C35      1.0000 0.38120  0.42910  0.20820  Biso   1.000  C
  C36      1.0000 0.30520  0.36920  0.17390  Biso   1.000  C
  N6       1.0000 0.20300  0.64770  0.11150  Biso   1.000  N
  Dy4      1.0000 0.49910  0.43449  0.10205  Biso   1.000  Dy
  O19      1.0000 0.57670  0.60040  0.11180  Biso   1.000  O
  O20      1.0000 0.59660  0.31140  0.08180  Biso   1.000  O
  O21      1.0000 0.91270  0.97640  0.16420  Biso   1.000  O
  O22      1.0000 0.57900  0.42850  0.98590  Biso   1.000  O
  O23      1.0000 0.57550  0.67340  0.00190  Biso   1.000  O
  O24      1.0000 0.91090  0.92880  0.27810  Biso   1.000  O
  N7       1.0000 0.66700  0.70880  0.23870  Biso   1.000  N
  C37      1.0000 0.60240  0.66710  0.07210  Biso   1.000  C
  C38      1.0000 0.66940  0.74460  0.10980  Biso   1.000  C
  C39      1.0000 0.69930  0.75560  0.18910  Biso   1.000  C
  C40      1.0000 0.76750  0.81880  0.21910  Biso   1.000  C
  H13      1.0000 0.78830  0.82730  0.27170  Biso   1.000  H
  C41      1.0000 0.70660  0.80000  0.06560  Biso   1.000  C
  H14      1.0000 0.68540  0.79530  0.01280  Biso   1.000  H
  C42      1.0000 0.77330  0.86160  0.09660  Biso   1.000  C
  H15      1.0000 0.79770  0.89900  0.06520  Biso   1.000  H
  C43      1.0000 0.61570  0.34830  0.02700  Biso   1.000  C
  C44      1.0000 0.68500  0.29540  0.01310  Biso   1.000  C
  C45      1.0000 0.72440  0.20110  0.05660  Biso   1.000  C
  C46      1.0000 0.71000  0.34120  0.95660  Biso   1.000  C
  H16      1.0000 0.68170  0.40280  0.92640  Biso   1.000  H
  C47      1.0000 0.88120  0.92910  0.20820  Biso   1.000  C
  C48      1.0000 0.80520  0.86920  0.17390  Biso   1.000  C
  N8       1.0000 0.70300  0.14770  0.11150  Biso   1.000  N
  Dy5      1.0000 0.99910  0.06551  0.60205  Biso   1.000  Dy
  O25      1.0000 0.07670  0.89960  0.61180  Biso   1.000  O
  O26      1.0000 0.09660  0.18860  0.58180  Biso   1.000  O
  O27      1.0000 0.41270  0.52360  0.66420  Biso   1.000  O
  O28      1.0000 0.07900  0.07150  0.48590  Biso   1.000  O
  O29      1.0000 0.07550  0.82660  0.50190  Biso   1.000  O
  O30      1.0000 0.41090  0.57120  0.77810  Biso   1.000  O
  N9       1.0000 0.16700  0.79120  0.73870  Biso   1.000  N
  C49      1.0000 0.10240  0.83290  0.57210  Biso   1.000  C
  C50      1.0000 0.16940  0.75540  0.60980  Biso   1.000  C
  C51      1.0000 0.19930  0.74440  0.68910  Biso   1.000  C
  C52      1.0000 0.26750  0.68120  0.71910  Biso   1.000  C
  H17      1.0000 0.28830  0.67270  0.77170  Biso   1.000  H
  C53      1.0000 0.20660  0.70000  0.56560  Biso   1.000  C
  H18      1.0000 0.18540  0.70470  0.51280  Biso   1.000  H
  C54      1.0000 0.27330  0.63840  0.59660  Biso   1.000  C
  H19      1.0000 0.29770  0.60100  0.56520  Biso   1.000  H
  C55      1.0000 0.11570  0.15170  0.52700  Biso   1.000  C
  C56      1.0000 0.18500  0.20460  0.51310  Biso   1.000  C
  C57      1.0000 0.22440  0.29890  0.55660  Biso   1.000  C
  C58      1.0000 0.21000  0.15880  0.45660  Biso   1.000  C
  H20      1.0000 0.18170  0.09720  0.42640  Biso   1.000  H
  C59      1.0000 0.38120  0.57090  0.70820  Biso   1.000  C
  C60      1.0000 0.30520  0.63080  0.67390  Biso   1.000  C
  N10      1.0000 0.20300  0.35230  0.61150  Biso   1.000  N
  Dy6      1.0000 0.49910  0.56551  0.60205  Biso   1.000  Dy
  O31      1.0000 0.57670  0.39960  0.61180  Biso   1.000  O
  O32      1.0000 0.59660  0.68860  0.58180  Biso   1.000  O
  O33      1.0000 0.91270  0.02360  0.66420  Biso   1.000  O
  O34      1.0000 0.57900  0.57150  0.48590  Biso   1.000  O
  O35      1.0000 0.57550  0.32660  0.50190  Biso   1.000  O
  O36      1.0000 0.91090  0.07120  0.77810  Biso   1.000  O
  N11      1.0000 0.66700  0.29120  0.73870  Biso   1.000  N
  C61      1.0000 0.60240  0.33290  0.57210  Biso   1.000  C
  C62      1.0000 0.66940  0.25540  0.60980  Biso   1.000  C
  C63      1.0000 0.69930  0.24440  0.68910  Biso   1.000  C
  C64      1.0000 0.76750  0.18120  0.71910  Biso   1.000  C
  H21      1.0000 0.78830  0.17270  0.77170  Biso   1.000  H
  C65      1.0000 0.70660  0.20000  0.56560  Biso   1.000  C
  H22      1.0000 0.68540  0.20470  0.51280  Biso   1.000  H
  C66      1.0000 0.77330  0.13840  0.59660  Biso   1.000  C
  H23      1.0000 0.79770  0.10100  0.56520  Biso   1.000  H
  C67      1.0000 0.61570  0.65170  0.52700  Biso   1.000  C
  C68      1.0000 0.68500  0.70460  0.51310  Biso   1.000  C
  C69      1.0000 0.72440  0.79890  0.55660  Biso   1.000  C
  C70      1.0000 0.71000  0.65880  0.45660  Biso   1.000  C
  H24      1.0000 0.68170  0.59720  0.42640  Biso   1.000  H
  C71      1.0000 0.88120  0.07090  0.70820  Biso   1.000  C
  C72      1.0000 0.80520  0.13080  0.67390  Biso   1.000  C
  N12      1.0000 0.70300  0.85230  0.61150  Biso   1.000  N
  Dy7      1.0000 0.00090  0.06551  0.89795  Biso   1.000  Dy
  O37      1.0000 0.92330  0.89960  0.88820  Biso   1.000  O
  O38      1.0000 0.90340  0.18860  0.91820  Biso   1.000  O
  O39      1.0000 0.58730  0.52360  0.83580  Biso   1.000  O
  O40      1.0000 0.92100  0.07150  0.01410  Biso   1.000  O
  O41      1.0000 0.92450  0.82660  0.99810  Biso   1.000  O
  O42      1.0000 0.58910  0.57120  0.72190  Biso   1.000  O
  N13      1.0000 0.83300  0.79120  0.76130  Biso   1.000  N
  C73      1.0000 0.89760  0.83290  0.92790  Biso   1.000  C
  C74      1.0000 0.83060  0.75540  0.89020  Biso   1.000  C
  C75      1.0000 0.80070  0.74440  0.81090  Biso   1.000  C
  C76      1.0000 0.73250  0.68120  0.78090  Biso   1.000  C
  H25      1.0000 0.71170  0.67270  0.72830  Biso   1.000  H
  C77      1.0000 0.79340  0.70000  0.93440  Biso   1.000  C
  H26      1.0000 0.81460  0.70470  0.98720  Biso   1.000  H
  C78      1.0000 0.72670  0.63840  0.90340  Biso   1.000  C
  H27      1.0000 0.70230  0.60100  0.93480  Biso   1.000  H
  C79      1.0000 0.88430  0.15170  0.97300  Biso   1.000  C
  C80      1.0000 0.81500  0.20460  0.98690  Biso   1.000  C
  C81      1.0000 0.77560  0.29890  0.94340  Biso   1.000  C
  C82      1.0000 0.79000  0.15880  0.04340  Biso   1.000  C
  H28      1.0000 0.81830  0.09720  0.07360  Biso   1.000  H
  C83      1.0000 0.61880  0.57090  0.79180  Biso   1.000  C
  C84      1.0000 0.69480  0.63080  0.82610  Biso   1.000  C
  N14      1.0000 0.79700  0.35230  0.88850  Biso   1.000  N
  Dy8      1.0000 0.50090  0.56551  0.89795  Biso   1.000  Dy
  O43      1.0000 0.42330  0.39960  0.88820  Biso   1.000  O
  O44      1.0000 0.40340  0.68860  0.91820  Biso   1.000  O
  O45      1.0000 0.08730  0.02360  0.83580  Biso   1.000  O
  O46      1.0000 0.42100  0.57150  0.01410  Biso   1.000  O
  O47      1.0000 0.42450  0.32660  0.99810  Biso   1.000  O
  O48      1.0000 0.08910  0.07120  0.72190  Biso   1.000  O
  N15      1.0000 0.33300  0.29120  0.76130  Biso   1.000  N
  C85      1.0000 0.39760  0.33290  0.92790  Biso   1.000  C
  C86      1.0000 0.33060  0.25540  0.89020  Biso   1.000  C
  C87      1.0000 0.30070  0.24440  0.81090  Biso   1.000  C
  C88      1.0000 0.23250  0.18120  0.78090  Biso   1.000  C
  H29      1.0000 0.21170  0.17270  0.72830  Biso   1.000  H
  C89      1.0000 0.29340  0.20000  0.93440  Biso   1.000  C
  H30      1.0000 0.31460  0.20470  0.98720  Biso   1.000  H
  C90      1.0000 0.22670  0.13840  0.90340  Biso   1.000  C
  H31      1.0000 0.20230  0.10100  0.93480  Biso   1.000  H
  C91      1.0000 0.38430  0.65170  0.97300  Biso   1.000  C
  C92      1.0000 0.31500  0.70460  0.98690  Biso   1.000  C
  C93      1.0000 0.27560  0.79890  0.94340  Biso   1.000  C
  C94      1.0000 0.29000  0.65880  0.04340  Biso   1.000  C
  H32      1.0000 0.31830  0.59720  0.07360  Biso   1.000  H
  C95      1.0000 0.11880  0.07090  0.79180  Biso   1.000  C
  C96      1.0000 0.19480  0.13080  0.82610  Biso   1.000  C
  N16      1.0000 0.29700  0.85230  0.88850  Biso   1.000  N
