data_image0
_cell_length_a       18.2337
_cell_length_b       11.3228
_cell_length_c       18.7067
_cell_angle_alpha    90
_cell_angle_beta     108.39
_cell_angle_gamma    90

_symmetry_space_group_name_H-M    "P 1"
_symmetry_int_tables_number       1

loop_
  _symmetry_equiv_pos_as_xyz
  'x, y, z'

loop_
  _atom_site_label
  _atom_site_occupancy
  _atom_site_fract_x
  _atom_site_fract_y
  _atom_site_fract_z
  _atom_site_thermal_displace_type
  _atom_site_B_iso_or_equiv
  _atom_site_type_symbol
  Ho1      1.0000 0.50129  0.93406  0.39693  Biso   1.000  Ho
  O1       1.0000 0.58860  0.92670  0.22140  Biso   1.000  O
  O2       1.0000 0.57760  0.06990  0.47980  Biso   1.000  O
  O3       1.0000 0.58650  0.97530  0.33610  Biso   1.000  O
  O4       1.0000 0.92190  0.59390  0.38840  Biso   1.000  O
  O5       1.0000 0.92610  0.67120  0.49920  Biso   1.000  O
  C1       1.0000 0.61730  0.92690  0.29100  Biso   1.000  C
  C2       1.0000 0.79460  0.79960  0.43520  Biso   1.000  C
  H1       1.0000 0.81640  0.79700  0.48740  Biso   1.000  H
  C3       1.0000 0.89870  0.66410  0.42900  Biso   1.000  C
  C4       1.0000 0.72620  0.86010  0.40410  Biso   1.000  C
  H2       1.0000 0.70140  0.89520  0.43510  Biso   1.000  H
  C5       1.0000 0.69460  0.86850  0.32610  Biso   1.000  C
  C6       1.0000 0.83150  0.74270  0.39060  Biso   1.000  C
  C7       1.0000 0.73310  0.81820  0.28040  Biso   1.000  C
  H3       1.0000 0.71330  0.82650  0.22840  Biso   1.000  H
  C8       1.0000 0.80180  0.75480  0.31230  Biso   1.000  C
  N1       1.0000 0.83480  0.70530  0.26140  Biso   1.000  N
  H4       1.0000 0.80470  0.71480  0.21580  Biso   1.000  H
  O6       1.0000 0.59490  0.18090  0.58010  Biso   1.000  O
  C9       1.0000 0.68340  0.20340  0.51160  Biso   1.000  C
  C10      1.0000 0.72320  0.29710  0.55660  Biso   1.000  C
  C11      1.0000 0.71050  0.15890  0.45530  Biso   1.000  C
  H5       1.0000 0.68340  0.09800  0.42490  Biso   1.000  H
  C12      1.0000 0.61420  0.14910  0.52430  Biso   1.000  C
  N2       1.0000 0.70020  0.35560  0.61030  Biso   1.000  N
  H6       1.0000 0.69440  0.30640  0.64370  Biso   1.000  H
  H7       1.0000 0.73560  0.40610  0.63290  Biso   1.000  H
  H8       1.0000 0.87300  0.63500  0.27500  Biso   1.000  H
  Ho2      1.0000 0.00129  0.43406  0.39693  Biso   1.000  Ho
  O7       1.0000 0.08860  0.42670  0.22140  Biso   1.000  O
  O8       1.0000 0.07760  0.56990  0.47980  Biso   1.000  O
  O9       1.0000 0.08650  0.47530  0.33610  Biso   1.000  O
  O10      1.0000 0.42190  0.09390  0.38840  Biso   1.000  O
  O11      1.0000 0.42610  0.17120  0.49920  Biso   1.000  O
  C13      1.0000 0.11730  0.42690  0.29100  Biso   1.000  C
  C14      1.0000 0.29460  0.29960  0.43520  Biso   1.000  C
  H9       1.0000 0.31640  0.29700  0.48740  Biso   1.000  H
  C15      1.0000 0.39870  0.16410  0.42900  Biso   1.000  C
  C16      1.0000 0.22620  0.36010  0.40410  Biso   1.000  C
  H10      1.0000 0.20140  0.39520  0.43510  Biso   1.000  H
  C17      1.0000 0.19460  0.36850  0.32610  Biso   1.000  C
  C18      1.0000 0.33150  0.24270  0.39060  Biso   1.000  C
  C19      1.0000 0.23310  0.31820  0.28040  Biso   1.000  C
  H11      1.0000 0.21330  0.32650  0.22840  Biso   1.000  H
  C20      1.0000 0.30180  0.25480  0.31230  Biso   1.000  C
  N3       1.0000 0.33480  0.20530  0.26140  Biso   1.000  N
  H12      1.0000 0.30470  0.21480  0.21580  Biso   1.000  H
  O12      1.0000 0.09490  0.68090  0.58010  Biso   1.000  O
  C21      1.0000 0.18340  0.70340  0.51160  Biso   1.000  C
  C22      1.0000 0.22320  0.79710  0.55660  Biso   1.000  C
  C23      1.0000 0.21050  0.65890  0.45530  Biso   1.000  C
  H13      1.0000 0.18340  0.59800  0.42490  Biso   1.000  H
  C24      1.0000 0.11420  0.64910  0.52430  Biso   1.000  C
  N4       1.0000 0.20020  0.85560  0.61030  Biso   1.000  N
  H14      1.0000 0.19440  0.80640  0.64370  Biso   1.000  H
  H15      1.0000 0.23560  0.90610  0.63290  Biso   1.000  H
  H16      1.0000 0.37300  0.13500  0.27500  Biso   1.000  H
  Ho3      1.0000 0.49871  0.93406  0.10307  Biso   1.000  Ho
  O13      1.0000 0.41140  0.92670  0.27860  Biso   1.000  O
  O14      1.0000 0.42240  0.06990  0.02020  Biso   1.000  O
  O15      1.0000 0.41350  0.97530  0.16390  Biso   1.000  O
  O16      1.0000 0.07810  0.59390  0.11160  Biso   1.000  O
  O17      1.0000 0.07390  0.67120  0.00080  Biso   1.000  O
  C25      1.0000 0.38270  0.92690  0.20900  Biso   1.000  C
  C26      1.0000 0.20540  0.79960  0.06480  Biso   1.000  C
  H17      1.0000 0.18360  0.79700  0.01260  Biso   1.000  H
  C27      1.0000 0.10130  0.66410  0.07100  Biso   1.000  C
  C28      1.0000 0.27380  0.86010  0.09590  Biso   1.000  C
  H18      1.0000 0.29860  0.89520  0.06490  Biso   1.000  H
  C29      1.0000 0.30540  0.86850  0.17390  Biso   1.000  C
  C30      1.0000 0.16850  0.74270  0.10940  Biso   1.000  C
  C31      1.0000 0.26690  0.81820  0.21960  Biso   1.000  C
  H19      1.0000 0.28670  0.82650  0.27160  Biso   1.000  H
  C32      1.0000 0.19820  0.75480  0.18770  Biso   1.000  C
  N5       1.0000 0.16520  0.70530  0.23860  Biso   1.000  N
  H20      1.0000 0.19530  0.71480  0.28420  Biso   1.000  H
  O18      1.0000 0.40510  0.18090  0.91990  Biso   1.000  O
  C33      1.0000 0.31660  0.20340  0.98840  Biso   1.000  C
  C34      1.0000 0.27680  0.29710  0.94340  Biso   1.000  C
  C35      1.0000 0.28950  0.15890  0.04470  Biso   1.000  C
  H21      1.0000 0.31660  0.09800  0.07510  Biso   1.000  H
  C36      1.0000 0.38580  0.14910  0.97570  Biso   1.000  C
  N6       1.0000 0.29980  0.35560  0.88970  Biso   1.000  N
  H22      1.0000 0.30560  0.30640  0.85630  Biso   1.000  H
  H23      1.0000 0.26440  0.40610  0.86710  Biso   1.000  H
  H24      1.0000 0.12700  0.63500  0.22500  Biso   1.000  H
  Ho4      1.0000 0.99871  0.43406  0.10307  Biso   1.000  Ho
  O19      1.0000 0.91140  0.42670  0.27860  Biso   1.000  O
  O20      1.0000 0.92240  0.56990  0.02020  Biso   1.000  O
  O21      1.0000 0.91350  0.47530  0.16390  Biso   1.000  O
  O22      1.0000 0.57810  0.09390  0.11160  Biso   1.000  O
  O23      1.0000 0.57390  0.17120  0.00080  Biso   1.000  O
  C37      1.0000 0.88270  0.42690  0.20900  Biso   1.000  C
  C38      1.0000 0.70540  0.29960  0.06480  Biso   1.000  C
  H25      1.0000 0.68360  0.29700  0.01260  Biso   1.000  H
  C39      1.0000 0.60130  0.16410  0.07100  Biso   1.000  C
  C40      1.0000 0.77380  0.36010  0.09590  Biso   1.000  C
  H26      1.0000 0.79860  0.39520  0.06490  Biso   1.000  H
  C41      1.0000 0.80540  0.36850  0.17390  Biso   1.000  C
  C42      1.0000 0.66850  0.24270  0.10940  Biso   1.000  C
  C43      1.0000 0.76690  0.31820  0.21960  Biso   1.000  C
  H27      1.0000 0.78670  0.32650  0.27160  Biso   1.000  H
  C44      1.0000 0.69820  0.25480  0.18770  Biso   1.000  C
  N7       1.0000 0.66520  0.20530  0.23860  Biso   1.000  N
  H28      1.0000 0.69530  0.21480  0.28420  Biso   1.000  H
  O24      1.0000 0.90510  0.68090  0.91990  Biso   1.000  O
  C45      1.0000 0.81660  0.70340  0.98840  Biso   1.000  C
  C46      1.0000 0.77680  0.79710  0.94340  Biso   1.000  C
  C47      1.0000 0.78950  0.65890  0.04470  Biso   1.000  C
  H29      1.0000 0.81660  0.59800  0.07510  Biso   1.000  H
  C48      1.0000 0.88580  0.64910  0.97570  Biso   1.000  C
  N8       1.0000 0.79980  0.85560  0.88970  Biso   1.000  N
  H30      1.0000 0.80560  0.80640  0.85630  Biso   1.000  H
  H31      1.0000 0.76440  0.90610  0.86710  Biso   1.000  H
  H32      1.0000 0.62700  0.13500  0.22500  Biso   1.000  H
  Ho5      1.0000 0.49871  0.06594  0.60307  Biso   1.000  Ho
  O25      1.0000 0.41140  0.07330  0.77860  Biso   1.000  O
  O26      1.0000 0.42240  0.93010  0.52020  Biso   1.000  O
  O27      1.0000 0.41350  0.02470  0.66390  Biso   1.000  O
  O28      1.0000 0.07810  0.40610  0.61160  Biso   1.000  O
  O29      1.0000 0.07390  0.32880  0.50080  Biso   1.000  O
  C49      1.0000 0.38270  0.07310  0.70900  Biso   1.000  C
  C50      1.0000 0.20540  0.20040  0.56480  Biso   1.000  C
  H33      1.0000 0.18360  0.20300  0.51260  Biso   1.000  H
  C51      1.0000 0.10130  0.33590  0.57100  Biso   1.000  C
  C52      1.0000 0.27380  0.13990  0.59590  Biso   1.000  C
  H34      1.0000 0.29860  0.10480  0.56490  Biso   1.000  H
  C53      1.0000 0.30540  0.13150  0.67390  Biso   1.000  C
  C54      1.0000 0.16850  0.25730  0.60940  Biso   1.000  C
  C55      1.0000 0.26690  0.18180  0.71960  Biso   1.000  C
  H35      1.0000 0.28670  0.17350  0.77160  Biso   1.000  H
  C56      1.0000 0.19820  0.24520  0.68770  Biso   1.000  C
  N9       1.0000 0.16520  0.29470  0.73860  Biso   1.000  N
  H36      1.0000 0.19530  0.28520  0.78420  Biso   1.000  H
  O30      1.0000 0.40510  0.81910  0.41990  Biso   1.000  O
  C57      1.0000 0.31660  0.79660  0.48840  Biso   1.000  C
  C58      1.0000 0.27680  0.70290  0.44340  Biso   1.000  C
  C59      1.0000 0.28950  0.84110  0.54470  Biso   1.000  C
  H37      1.0000 0.31660  0.90200  0.57510  Biso   1.000  H
  C60      1.0000 0.38580  0.85090  0.47570  Biso   1.000  C
  N10      1.0000 0.29980  0.64440  0.38970  Biso   1.000  N
  H38      1.0000 0.30560  0.69360  0.35630  Biso   1.000  H
  H39      1.0000 0.26440  0.59390  0.36710  Biso   1.000  H
  H40      1.0000 0.12700  0.36500  0.72500  Biso   1.000  H
  Ho6      1.0000 0.99871  0.56594  0.60307  Biso   1.000  Ho
  O31      1.0000 0.91140  0.57330  0.77860  Biso   1.000  O
  O32      1.0000 0.92240  0.43010  0.52020  Biso   1.000  O
  O33      1.0000 0.91350  0.52470  0.66390  Biso   1.000  O
  O34      1.0000 0.57810  0.90610  0.61160  Biso   1.000  O
  O35      1.0000 0.57390  0.82880  0.50080  Biso   1.000  O
  C61      1.0000 0.88270  0.57310  0.70900  Biso   1.000  C
  C62      1.0000 0.70540  0.70040  0.56480  Biso   1.000  C
  H41      1.0000 0.68360  0.70300  0.51260  Biso   1.000  H
  C63      1.0000 0.60130  0.83590  0.57100  Biso   1.000  C
  C64      1.0000 0.77380  0.63990  0.59590  Biso   1.000  C
  H42      1.0000 0.79860  0.60480  0.56490  Biso   1.000  H
  C65      1.0000 0.80540  0.63150  0.67390  Biso   1.000  C
  C66      1.0000 0.66850  0.75730  0.60940  Biso   1.000  C
  C67      1.0000 0.76690  0.68180  0.71960  Biso   1.000  C
  H43      1.0000 0.78670  0.67350  0.77160  Biso   1.000  H
  C68      1.0000 0.69820  0.74520  0.68770  Biso   1.000  C
  N11      1.0000 0.66520  0.79470  0.73860  Biso   1.000  N
  H44      1.0000 0.69530  0.78520  0.78420  Biso   1.000  H
  O36      1.0000 0.90510  0.31910  0.41990  Biso   1.000  O
  C69      1.0000 0.81660  0.29660  0.48840  Biso   1.000  C
  C70      1.0000 0.77680  0.20290  0.44340  Biso   1.000  C
  C71      1.0000 0.78950  0.34110  0.54470  Biso   1.000  C
  H45      1.0000 0.81660  0.40200  0.57510  Biso   1.000  H
  C72      1.0000 0.88580  0.35090  0.47570  Biso   1.000  C
  N12      1.0000 0.79980  0.14440  0.38970  Biso   1.000  N
  H46      1.0000 0.80560  0.19360  0.35630  Biso   1.000  H
  H47      1.0000 0.76440  0.09390  0.36710  Biso   1.000  H
  H48      1.0000 0.62700  0.86500  0.72500  Biso   1.000  H
  Ho7      1.0000 0.50129  0.06594  0.89693  Biso   1.000  Ho
  O37      1.0000 0.58860  0.07330  0.72140  Biso   1.000  O
  O38      1.0000 0.57760  0.93010  0.97980  Biso   1.000  O
  O39      1.0000 0.58650  0.02470  0.83610  Biso   1.000  O
  O40      1.0000 0.92190  0.40610  0.88840  Biso   1.000  O
  O41      1.0000 0.92610  0.32880  0.99920  Biso   1.000  O
  C73      1.0000 0.61730  0.07310  0.79100  Biso   1.000  C
  C74      1.0000 0.79460  0.20040  0.93520  Biso   1.000  C
  H49      1.0000 0.81640  0.20300  0.98740  Biso   1.000  H
  C75      1.0000 0.89870  0.33590  0.92900  Biso   1.000  C
  C76      1.0000 0.72620  0.13990  0.90410  Biso   1.000  C
  H50      1.0000 0.70140  0.10480  0.93510  Biso   1.000  H
  C77      1.0000 0.69460  0.13150  0.82610  Biso   1.000  C
  C78      1.0000 0.83150  0.25730  0.89060  Biso   1.000  C
  C79      1.0000 0.73310  0.18180  0.78040  Biso   1.000  C
  H51      1.0000 0.71330  0.17350  0.72840  Biso   1.000  H
  C80      1.0000 0.80180  0.24520  0.81230  Biso   1.000  C
  N13      1.0000 0.83480  0.29470  0.76140  Biso   1.000  N
  H52      1.0000 0.80470  0.28520  0.71580  Biso   1.000  H
  O42      1.0000 0.59490  0.81910  0.08010  Biso   1.000  O
  C81      1.0000 0.68340  0.79660  0.01160  Biso   1.000  C
  C82      1.0000 0.72320  0.70290  0.05660  Biso   1.000  C
  C83      1.0000 0.71050  0.84110  0.95530  Biso   1.000  C
  H53      1.0000 0.68340  0.90200  0.92490  Biso   1.000  H
  C84      1.0000 0.61420  0.85090  0.02430  Biso   1.000  C
  N14      1.0000 0.70020  0.64440  0.11030  Biso   1.000  N
  H54      1.0000 0.69440  0.69360  0.14370  Biso   1.000  H
  H55      1.0000 0.73560  0.59390  0.13290  Biso   1.000  H
  H56      1.0000 0.87300  0.36500  0.77500  Biso   1.000  H
  Ho8      1.0000 0.00129  0.56594  0.89693  Biso   1.000  Ho
  O43      1.0000 0.08860  0.57330  0.72140  Biso   1.000  O
  O44      1.0000 0.07760  0.43010  0.97980  Biso   1.000  O
  O45      1.0000 0.08650  0.52470  0.83610  Biso   1.000  O
  O46      1.0000 0.42190  0.90610  0.88840  Biso   1.000  O
  O47      1.0000 0.42610  0.82880  0.99920  Biso   1.000  O
  C85      1.0000 0.11730  0.57310  0.79100  Biso   1.000  C
  C86      1.0000 0.29460  0.70040  0.93520  Biso   1.000  C
  H57      1.0000 0.31640  0.70300  0.98740  Biso   1.000  H
  C87      1.0000 0.39870  0.83590  0.92900  Biso   1.000  C
  C88      1.0000 0.22620  0.63990  0.90410  Biso   1.000  C
  H58      1.0000 0.20140  0.60480  0.93510  Biso   1.000  H
  C89      1.0000 0.19460  0.63150  0.82610  Biso   1.000  C
  C90      1.0000 0.33150  0.75730  0.89060  Biso   1.000  C
  C91      1.0000 0.23310  0.68180  0.78040  Biso   1.000  C
  H59      1.0000 0.21330  0.67350  0.72840  Biso   1.000  H
  C92      1.0000 0.30180  0.74520  0.81230  Biso   1.000  C
  N15      1.0000 0.33480  0.79470  0.76140  Biso   1.000  N
  H60      1.0000 0.30470  0.78520  0.71580  Biso   1.000  H
  O48      1.0000 0.09490  0.31910  0.08010  Biso   1.000  O
  C93      1.0000 0.18340  0.29660  0.01160  Biso   1.000  C
  C94      1.0000 0.22320  0.20290  0.05660  Biso   1.000  C
  C95      1.0000 0.21050  0.34110  0.95530  Biso   1.000  C
  H61      1.0000 0.18340  0.40200  0.92490  Biso   1.000  H
  C96      1.0000 0.11420  0.35090  0.02430  Biso   1.000  C
  N16      1.0000 0.20020  0.14440  0.11030  Biso   1.000  N
  H62      1.0000 0.19440  0.19360  0.14370  Biso   1.000  H
  H63      1.0000 0.23560  0.09390  0.13290  Biso   1.000  H
  H64      1.0000 0.37300  0.86500  0.77500  Biso   1.000  H
