data_image0
_cell_length_a       18.1887
_cell_length_b       11.3416
_cell_length_c       18.6835
_cell_angle_alpha    90
_cell_angle_beta     108.663
_cell_angle_gamma    90

_symmetry_space_group_name_H-M    "P 1"
_symmetry_int_tables_number       1

loop_
  _symmetry_equiv_pos_as_xyz
  'x, y, z'

loop_
  _atom_site_label
  _atom_site_occupancy
  _atom_site_fract_x
  _atom_site_fract_y
  _atom_site_fract_z
  _atom_site_thermal_displace_type
  _atom_site_B_iso_or_equiv
  _atom_site_type_symbol
  Y1       1.0000 0.50124  0.06707  0.39611  Biso   1.000  Y
  O1       1.0000 0.91140  0.42570  0.77850  Biso   1.000  O
  O2       1.0000 0.42200  0.06740  0.52670  Biso   1.000  O
  O3       1.0000 0.57910  0.08510  0.61230  Biso   1.000  O
  O4       1.0000 0.91460  0.47020  0.66530  Biso   1.000  O
  O5       1.0000 0.57480  0.16590  0.49960  Biso   1.000  O
  O6       1.0000 0.40580  0.17160  0.42150  Biso   1.000  O
  C1       1.0000 0.69800  0.24790  0.68920  Biso   1.000  C
  C2       1.0000 0.31660  0.20170  0.48980  Biso   1.000  C
  C3       1.0000 0.70630  0.29760  0.56400  Biso   1.000  C
  H1       1.0000 0.68500  0.29490  0.51170  Biso   1.000  H
  C4       1.0000 0.77380  0.35890  0.59600  Biso   1.000  C
  H2       1.0000 0.79790  0.39810  0.56580  Biso   1.000  H
  C5       1.0000 0.80630  0.36170  0.67550  Biso   1.000  C
  C6       1.0000 0.28840  0.16080  0.54480  Biso   1.000  C
  H3       1.0000 0.31500  0.10020  0.57590  Biso   1.000  H
  C7       1.0000 0.66780  0.23730  0.60970  Biso   1.000  C
  C8       1.0000 0.22230  0.20510  0.55650  Biso   1.000  C
  C9       1.0000 0.38530  0.14370  0.47840  Biso   1.000  C
  C10      1.0000 0.60230  0.15860  0.57100  Biso   1.000  C
  C11      1.0000 0.76860  0.31600  0.71960  Biso   1.000  C
  H4       1.0000 0.78820  0.32830  0.77140  Biso   1.000  H
  C12      1.0000 0.88540  0.42500  0.70920  Biso   1.000  C
  N1       1.0000 0.66550  0.20200  0.73840  Biso   1.000  N
  H5       1.0000 0.68580  0.13300  0.75310  Biso   1.000  H
  H6       1.0000 0.67360  0.24640  0.77780  Biso   1.000  H
  N2       1.0000 0.19700  0.16500  0.61300  Biso   1.000  N
  H7       1.0000 0.23540  0.14460  0.65400  Biso   1.000  H
  H8       1.0000 0.16710  0.21560  0.62920  Biso   1.000  H
  Y2       1.0000 0.00124  0.56707  0.39611  Biso   1.000  Y
  O7       1.0000 0.41140  0.92570  0.77850  Biso   1.000  O
  O8       1.0000 0.92200  0.56740  0.52670  Biso   1.000  O
  O9       1.0000 0.07910  0.58510  0.61230  Biso   1.000  O
  O10      1.0000 0.41460  0.97020  0.66530  Biso   1.000  O
  O11      1.0000 0.07480  0.66590  0.49960  Biso   1.000  O
  O12      1.0000 0.90580  0.67160  0.42150  Biso   1.000  O
  C13      1.0000 0.19800  0.74790  0.68920  Biso   1.000  C
  C14      1.0000 0.81660  0.70170  0.48980  Biso   1.000  C
  C15      1.0000 0.20630  0.79760  0.56400  Biso   1.000  C
  H9       1.0000 0.18500  0.79490  0.51170  Biso   1.000  H
  C16      1.0000 0.27380  0.85890  0.59600  Biso   1.000  C
  H10      1.0000 0.29790  0.89810  0.56580  Biso   1.000  H
  C17      1.0000 0.30630  0.86170  0.67550  Biso   1.000  C
  C18      1.0000 0.78840  0.66080  0.54480  Biso   1.000  C
  H11      1.0000 0.81500  0.60020  0.57590  Biso   1.000  H
  C19      1.0000 0.16780  0.73730  0.60970  Biso   1.000  C
  C20      1.0000 0.72230  0.70510  0.55650  Biso   1.000  C
  C21      1.0000 0.88530  0.64370  0.47840  Biso   1.000  C
  C22      1.0000 0.10230  0.65860  0.57100  Biso   1.000  C
  C23      1.0000 0.26860  0.81600  0.71960  Biso   1.000  C
  H12      1.0000 0.28820  0.82830  0.77140  Biso   1.000  H
  C24      1.0000 0.38540  0.92500  0.70920  Biso   1.000  C
  N3       1.0000 0.16550  0.70200  0.73840  Biso   1.000  N
  H13      1.0000 0.18580  0.63300  0.75310  Biso   1.000  H
  H14      1.0000 0.17360  0.74640  0.77780  Biso   1.000  H
  N4       1.0000 0.69700  0.66500  0.61300  Biso   1.000  N
  H15      1.0000 0.73540  0.64460  0.65400  Biso   1.000  H
  H16      1.0000 0.66710  0.71560  0.62920  Biso   1.000  H
  Y3       1.0000 0.49876  0.06707  0.10389  Biso   1.000  Y
  O13      1.0000 0.08860  0.42570  0.72150  Biso   1.000  O
  O14      1.0000 0.57800  0.06740  0.97330  Biso   1.000  O
  O15      1.0000 0.42090  0.08510  0.88770  Biso   1.000  O
  O16      1.0000 0.08540  0.47020  0.83470  Biso   1.000  O
  O17      1.0000 0.42520  0.16590  0.00040  Biso   1.000  O
  O18      1.0000 0.59420  0.17160  0.07850  Biso   1.000  O
  C25      1.0000 0.30200  0.24790  0.81080  Biso   1.000  C
  C26      1.0000 0.68340  0.20170  0.01020  Biso   1.000  C
  C27      1.0000 0.29370  0.29760  0.93600  Biso   1.000  C
  H17      1.0000 0.31500  0.29490  0.98830  Biso   1.000  H
  C28      1.0000 0.22620  0.35890  0.90400  Biso   1.000  C
  H18      1.0000 0.20210  0.39810  0.93420  Biso   1.000  H
  C29      1.0000 0.19370  0.36170  0.82450  Biso   1.000  C
  C30      1.0000 0.71160  0.16080  0.95520  Biso   1.000  C
  H19      1.0000 0.68500  0.10020  0.92410  Biso   1.000  H
  C31      1.0000 0.33220  0.23730  0.89030  Biso   1.000  C
  C32      1.0000 0.77770  0.20510  0.94350  Biso   1.000  C
  C33      1.0000 0.61470  0.14370  0.02160  Biso   1.000  C
  C34      1.0000 0.39770  0.15860  0.92900  Biso   1.000  C
  C35      1.0000 0.23140  0.31600  0.78040  Biso   1.000  C
  H20      1.0000 0.21180  0.32830  0.72860  Biso   1.000  H
  C36      1.0000 0.11460  0.42500  0.79080  Biso   1.000  C
  N5       1.0000 0.33450  0.20200  0.76160  Biso   1.000  N
  H21      1.0000 0.31420  0.13300  0.74690  Biso   1.000  H
  H22      1.0000 0.32640  0.24640  0.72220  Biso   1.000  H
  N6       1.0000 0.80300  0.16500  0.88700  Biso   1.000  N
  H23      1.0000 0.76460  0.14460  0.84600  Biso   1.000  H
  H24      1.0000 0.83290  0.21560  0.87080  Biso   1.000  H
  Y4       1.0000 0.99876  0.56707  0.10389  Biso   1.000  Y
  O19      1.0000 0.58860  0.92570  0.72150  Biso   1.000  O
  O20      1.0000 0.07800  0.56740  0.97330  Biso   1.000  O
  O21      1.0000 0.92090  0.58510  0.88770  Biso   1.000  O
  O22      1.0000 0.58540  0.97020  0.83470  Biso   1.000  O
  O23      1.0000 0.92520  0.66590  0.00040  Biso   1.000  O
  O24      1.0000 0.09420  0.67160  0.07850  Biso   1.000  O
  C37      1.0000 0.80200  0.74790  0.81080  Biso   1.000  C
  C38      1.0000 0.18340  0.70170  0.01020  Biso   1.000  C
  C39      1.0000 0.79370  0.79760  0.93600  Biso   1.000  C
  H25      1.0000 0.81500  0.79490  0.98830  Biso   1.000  H
  C40      1.0000 0.72620  0.85890  0.90400  Biso   1.000  C
  H26      1.0000 0.70210  0.89810  0.93420  Biso   1.000  H
  C41      1.0000 0.69370  0.86170  0.82450  Biso   1.000  C
  C42      1.0000 0.21160  0.66080  0.95520  Biso   1.000  C
  H27      1.0000 0.18500  0.60020  0.92410  Biso   1.000  H
  C43      1.0000 0.83220  0.73730  0.89030  Biso   1.000  C
  C44      1.0000 0.27770  0.70510  0.94350  Biso   1.000  C
  C45      1.0000 0.11470  0.64370  0.02160  Biso   1.000  C
  C46      1.0000 0.89770  0.65860  0.92900  Biso   1.000  C
  C47      1.0000 0.73140  0.81600  0.78040  Biso   1.000  C
  H28      1.0000 0.71180  0.82830  0.72860  Biso   1.000  H
  C48      1.0000 0.61460  0.92500  0.79080  Biso   1.000  C
  N7       1.0000 0.83450  0.70200  0.76160  Biso   1.000  N
  H29      1.0000 0.81420  0.63300  0.74690  Biso   1.000  H
  H30      1.0000 0.82640  0.74640  0.72220  Biso   1.000  H
  N8       1.0000 0.30300  0.66500  0.88700  Biso   1.000  N
  H31      1.0000 0.26460  0.64460  0.84600  Biso   1.000  H
  H32      1.0000 0.33290  0.71560  0.87080  Biso   1.000  H
  Y5       1.0000 0.49876  0.93293  0.60389  Biso   1.000  Y
  O25      1.0000 0.08860  0.57430  0.22150  Biso   1.000  O
  O26      1.0000 0.57800  0.93260  0.47330  Biso   1.000  O
  O27      1.0000 0.42090  0.91490  0.38770  Biso   1.000  O
  O28      1.0000 0.08540  0.52980  0.33470  Biso   1.000  O
  O29      1.0000 0.42520  0.83410  0.50040  Biso   1.000  O
  O30      1.0000 0.59420  0.82840  0.57850  Biso   1.000  O
  C49      1.0000 0.30200  0.75210  0.31080  Biso   1.000  C
  C50      1.0000 0.68340  0.79830  0.51020  Biso   1.000  C
  C51      1.0000 0.29370  0.70240  0.43600  Biso   1.000  C
  H33      1.0000 0.31500  0.70510  0.48830  Biso   1.000  H
  C52      1.0000 0.22620  0.64110  0.40400  Biso   1.000  C
  H34      1.0000 0.20210  0.60190  0.43420  Biso   1.000  H
  C53      1.0000 0.19370  0.63830  0.32450  Biso   1.000  C
  C54      1.0000 0.71160  0.83920  0.45520  Biso   1.000  C
  H35      1.0000 0.68500  0.89980  0.42410  Biso   1.000  H
  C55      1.0000 0.33220  0.76270  0.39030  Biso   1.000  C
  C56      1.0000 0.77770  0.79490  0.44350  Biso   1.000  C
  C57      1.0000 0.61470  0.85630  0.52160  Biso   1.000  C
  C58      1.0000 0.39770  0.84140  0.42900  Biso   1.000  C
  C59      1.0000 0.23140  0.68400  0.28040  Biso   1.000  C
  H36      1.0000 0.21180  0.67170  0.22860  Biso   1.000  H
  C60      1.0000 0.11460  0.57500  0.29080  Biso   1.000  C
  N9       1.0000 0.33450  0.79800  0.26160  Biso   1.000  N
  H37      1.0000 0.31420  0.86700  0.24690  Biso   1.000  H
  H38      1.0000 0.32640  0.75360  0.22220  Biso   1.000  H
  N10      1.0000 0.80300  0.83500  0.38700  Biso   1.000  N
  H39      1.0000 0.76460  0.85540  0.34600  Biso   1.000  H
  H40      1.0000 0.83290  0.78440  0.37080  Biso   1.000  H
  Y6       1.0000 0.99876  0.43293  0.60389  Biso   1.000  Y
  O31      1.0000 0.58860  0.07430  0.22150  Biso   1.000  O
  O32      1.0000 0.07800  0.43260  0.47330  Biso   1.000  O
  O33      1.0000 0.92090  0.41490  0.38770  Biso   1.000  O
  O34      1.0000 0.58540  0.02980  0.33470  Biso   1.000  O
  O35      1.0000 0.92520  0.33410  0.50040  Biso   1.000  O
  O36      1.0000 0.09420  0.32840  0.57850  Biso   1.000  O
  C61      1.0000 0.80200  0.25210  0.31080  Biso   1.000  C
  C62      1.0000 0.18340  0.29830  0.51020  Biso   1.000  C
  C63      1.0000 0.79370  0.20240  0.43600  Biso   1.000  C
  H41      1.0000 0.81500  0.20510  0.48830  Biso   1.000  H
  C64      1.0000 0.72620  0.14110  0.40400  Biso   1.000  C
  H42      1.0000 0.70210  0.10190  0.43420  Biso   1.000  H
  C65      1.0000 0.69370  0.13830  0.32450  Biso   1.000  C
  C66      1.0000 0.21160  0.33920  0.45520  Biso   1.000  C
  H43      1.0000 0.18500  0.39980  0.42410  Biso   1.000  H
  C67      1.0000 0.83220  0.26270  0.39030  Biso   1.000  C
  C68      1.0000 0.27770  0.29490  0.44350  Biso   1.000  C
  C69      1.0000 0.11470  0.35630  0.52160  Biso   1.000  C
  C70      1.0000 0.89770  0.34140  0.42900  Biso   1.000  C
  C71      1.0000 0.73140  0.18400  0.28040  Biso   1.000  C
  H44      1.0000 0.71180  0.17170  0.22860  Biso   1.000  H
  C72      1.0000 0.61460  0.07500  0.29080  Biso   1.000  C
  N11      1.0000 0.83450  0.29800  0.26160  Biso   1.000  N
  H45      1.0000 0.81420  0.36700  0.24690  Biso   1.000  H
  H46      1.0000 0.82640  0.25360  0.22220  Biso   1.000  H
  N12      1.0000 0.30300  0.33500  0.38700  Biso   1.000  N
  H47      1.0000 0.26460  0.35540  0.34600  Biso   1.000  H
  H48      1.0000 0.33290  0.28440  0.37080  Biso   1.000  H
  Y7       1.0000 0.50124  0.93293  0.89611  Biso   1.000  Y
  O37      1.0000 0.91140  0.57430  0.27850  Biso   1.000  O
  O38      1.0000 0.42200  0.93260  0.02670  Biso   1.000  O
  O39      1.0000 0.57910  0.91490  0.11230  Biso   1.000  O
  O40      1.0000 0.91460  0.52980  0.16530  Biso   1.000  O
  O41      1.0000 0.57480  0.83410  0.99960  Biso   1.000  O
  O42      1.0000 0.40580  0.82840  0.92150  Biso   1.000  O
  C73      1.0000 0.69800  0.75210  0.18920  Biso   1.000  C
  C74      1.0000 0.31660  0.79830  0.98980  Biso   1.000  C
  C75      1.0000 0.70630  0.70240  0.06400  Biso   1.000  C
  H49      1.0000 0.68500  0.70510  0.01170  Biso   1.000  H
  C76      1.0000 0.77380  0.64110  0.09600  Biso   1.000  C
  H50      1.0000 0.79790  0.60190  0.06580  Biso   1.000  H
  C77      1.0000 0.80630  0.63830  0.17550  Biso   1.000  C
  C78      1.0000 0.28840  0.83920  0.04480  Biso   1.000  C
  H51      1.0000 0.31500  0.89980  0.07590  Biso   1.000  H
  C79      1.0000 0.66780  0.76270  0.10970  Biso   1.000  C
  C80      1.0000 0.22230  0.79490  0.05650  Biso   1.000  C
  C81      1.0000 0.38530  0.85630  0.97840  Biso   1.000  C
  C82      1.0000 0.60230  0.84140  0.07100  Biso   1.000  C
  C83      1.0000 0.76860  0.68400  0.21960  Biso   1.000  C
  H52      1.0000 0.78820  0.67170  0.27140  Biso   1.000  H
  C84      1.0000 0.88540  0.57500  0.20920  Biso   1.000  C
  N13      1.0000 0.66550  0.79800  0.23840  Biso   1.000  N
  H53      1.0000 0.68580  0.86700  0.25310  Biso   1.000  H
  H54      1.0000 0.67360  0.75360  0.27780  Biso   1.000  H
  N14      1.0000 0.19700  0.83500  0.11300  Biso   1.000  N
  H55      1.0000 0.23540  0.85540  0.15400  Biso   1.000  H
  H56      1.0000 0.16710  0.78440  0.12920  Biso   1.000  H
  Y8       1.0000 0.00124  0.43293  0.89611  Biso   1.000  Y
  O43      1.0000 0.41140  0.07430  0.27850  Biso   1.000  O
  O44      1.0000 0.92200  0.43260  0.02670  Biso   1.000  O
  O45      1.0000 0.07910  0.41490  0.11230  Biso   1.000  O
  O46      1.0000 0.41460  0.02980  0.16530  Biso   1.000  O
  O47      1.0000 0.07480  0.33410  0.99960  Biso   1.000  O
  O48      1.0000 0.90580  0.32840  0.92150  Biso   1.000  O
  C85      1.0000 0.19800  0.25210  0.18920  Biso   1.000  C
  C86      1.0000 0.81660  0.29830  0.98980  Biso   1.000  C
  C87      1.0000 0.20630  0.20240  0.06400  Biso   1.000  C
  H57      1.0000 0.18500  0.20510  0.01170  Biso   1.000  H
  C88      1.0000 0.27380  0.14110  0.09600  Biso   1.000  C
  H58      1.0000 0.29790  0.10190  0.06580  Biso   1.000  H
  C89      1.0000 0.30630  0.13830  0.17550  Biso   1.000  C
  C90      1.0000 0.78840  0.33920  0.04480  Biso   1.000  C
  H59      1.0000 0.81500  0.39980  0.07590  Biso   1.000  H
  C91      1.0000 0.16780  0.26270  0.10970  Biso   1.000  C
  C92      1.0000 0.72230  0.29490  0.05650  Biso   1.000  C
  C93      1.0000 0.88530  0.35630  0.97840  Biso   1.000  C
  C94      1.0000 0.10230  0.34140  0.07100  Biso   1.000  C
  C95      1.0000 0.26860  0.18400  0.21960  Biso   1.000  C
  H60      1.0000 0.28820  0.17170  0.27140  Biso   1.000  H
  C96      1.0000 0.38540  0.07500  0.20920  Biso   1.000  C
  N15      1.0000 0.16550  0.29800  0.23840  Biso   1.000  N
  H61      1.0000 0.18580  0.36700  0.25310  Biso   1.000  H
  H62      1.0000 0.17360  0.25360  0.27780  Biso   1.000  H
  N16      1.0000 0.69700  0.33500  0.11300  Biso   1.000  N
  H63      1.0000 0.73540  0.35540  0.15400  Biso   1.000  H
  H64      1.0000 0.66710  0.28440  0.12920  Biso   1.000  H
