data_image0
_cell_length_a       13.809
_cell_length_b       13.809
_cell_length_c       14.836
_cell_angle_alpha    90
_cell_angle_beta     90
_cell_angle_gamma    120

_symmetry_space_group_name_H-M    "P 1"
_symmetry_int_tables_number       1

loop_
  _symmetry_equiv_pos_as_xyz
  'x, y, z'

loop_
  _atom_site_label
  _atom_site_occupancy
  _atom_site_fract_x
  _atom_site_fract_y
  _atom_site_fract_z
  _atom_site_thermal_displace_type
  _atom_site_B_iso_or_equiv
  _atom_site_type_symbol
  Al1      1.0000 0.99690  0.22560  0.10340  Biso   1.000  Al
  P1       1.0000 0.99650  0.22450  0.89120  Biso   1.000  P
  O1       1.0000 0.99600  0.25510  0.99090  Biso   1.000  O
  O2       1.0000 0.88380  0.12270  0.86460  Biso   1.000  O
  O3       1.0000 0.08920  0.19560  0.87290  Biso   1.000  O
  O4       1.0000 0.01400  0.32380  0.83220  Biso   1.000  O
  Al2      1.0000 0.66357  0.55893  0.43673  Biso   1.000  Al
  P2       1.0000 0.66317  0.55783  0.22453  Biso   1.000  P
  O5       1.0000 0.66267  0.58843  0.32423  Biso   1.000  O
  O6       1.0000 0.55047  0.45603  0.19793  Biso   1.000  O
  O7       1.0000 0.75587  0.52893  0.20623  Biso   1.000  O
  O8       1.0000 0.68067  0.65713  0.16553  Biso   1.000  O
  Al3      1.0000 0.33023  0.89227  0.77007  Biso   1.000  Al
  P3       1.0000 0.32983  0.89117  0.55787  Biso   1.000  P
  O9       1.0000 0.32933  0.92177  0.65757  Biso   1.000  O
  O10      1.0000 0.21713  0.78937  0.53127  Biso   1.000  O
  O11      1.0000 0.42253  0.86227  0.53957  Biso   1.000  O
  O12      1.0000 0.34733  0.99047  0.49887  Biso   1.000  O
  Al4      1.0000 0.77440  0.77130  0.10340  Biso   1.000  Al
  P4       1.0000 0.77550  0.77200  0.89120  Biso   1.000  P
  O13      1.0000 0.74490  0.74090  0.99090  Biso   1.000  O
  O14      1.0000 0.87730  0.76110  0.86460  Biso   1.000  O
  O15      1.0000 0.80440  0.89360  0.87290  Biso   1.000  O
  O16      1.0000 0.67620  0.69020  0.83220  Biso   1.000  O
  Al5      1.0000 0.44107  0.10463  0.43673  Biso   1.000  Al
  P5       1.0000 0.44217  0.10533  0.22453  Biso   1.000  P
  O17      1.0000 0.41157  0.07423  0.32423  Biso   1.000  O
  O18      1.0000 0.54397  0.09443  0.19793  Biso   1.000  O
  O19      1.0000 0.47107  0.22693  0.20623  Biso   1.000  O
  O20      1.0000 0.34287  0.02353  0.16553  Biso   1.000  O
  Al6      1.0000 0.10773  0.43797  0.77007  Biso   1.000  Al
  P6       1.0000 0.10883  0.43867  0.55787  Biso   1.000  P
  O21      1.0000 0.07823  0.40757  0.65757  Biso   1.000  O
  O22      1.0000 0.21063  0.42777  0.53127  Biso   1.000  O
  O23      1.0000 0.13773  0.56027  0.53957  Biso   1.000  O
  O24      1.0000 0.00953  0.35687  0.49887  Biso   1.000  O
  Al7      1.0000 0.22870  0.00310  0.10340  Biso   1.000  Al
  P7       1.0000 0.22800  0.00350  0.89120  Biso   1.000  P
  O25      1.0000 0.25910  0.00400  0.99090  Biso   1.000  O
  O26      1.0000 0.23890  0.11620  0.86460  Biso   1.000  O
  O27      1.0000 0.10640  0.91080  0.87290  Biso   1.000  O
  O28      1.0000 0.30980  0.98600  0.83220  Biso   1.000  O
  Al8      1.0000 0.89537  0.33643  0.43673  Biso   1.000  Al
  P8       1.0000 0.89467  0.33683  0.22453  Biso   1.000  P
  O29      1.0000 0.92577  0.33733  0.32423  Biso   1.000  O
  O30      1.0000 0.90557  0.44953  0.19793  Biso   1.000  O
  O31      1.0000 0.77307  0.24413  0.20623  Biso   1.000  O
  O32      1.0000 0.97647  0.31933  0.16553  Biso   1.000  O
  Al9      1.0000 0.56203  0.66977  0.77007  Biso   1.000  Al
  P9       1.0000 0.56133  0.67017  0.55787  Biso   1.000  P
  O33      1.0000 0.59243  0.67067  0.65757  Biso   1.000  O
  O34      1.0000 0.57223  0.78287  0.53127  Biso   1.000  O
  O35      1.0000 0.43973  0.57747  0.53957  Biso   1.000  O
  O36      1.0000 0.64313  0.65267  0.49887  Biso   1.000  O
  Al10     1.0000 0.00310  0.77440  0.89660  Biso   1.000  Al
  P10      1.0000 0.00350  0.77550  0.10880  Biso   1.000  P
  O37      1.0000 0.00400  0.74490  0.00910  Biso   1.000  O
  O38      1.0000 0.11620  0.87730  0.13540  Biso   1.000  O
  O39      1.0000 0.91080  0.80440  0.12710  Biso   1.000  O
  O40      1.0000 0.98600  0.67620  0.16780  Biso   1.000  O
  Al11     1.0000 0.66977  0.10773  0.22993  Biso   1.000  Al
  P11      1.0000 0.67017  0.10883  0.44213  Biso   1.000  P
  O41      1.0000 0.67067  0.07823  0.34243  Biso   1.000  O
  O42      1.0000 0.78287  0.21063  0.46873  Biso   1.000  O
  O43      1.0000 0.57747  0.13773  0.46043  Biso   1.000  O
  O44      1.0000 0.65267  0.00953  0.50113  Biso   1.000  O
  Al12     1.0000 0.33643  0.44107  0.56327  Biso   1.000  Al
  P12      1.0000 0.33683  0.44217  0.77547  Biso   1.000  P
  O45      1.0000 0.33733  0.41157  0.67577  Biso   1.000  O
  O46      1.0000 0.44953  0.54397  0.80207  Biso   1.000  O
  O47      1.0000 0.24413  0.47107  0.79377  Biso   1.000  O
  O48      1.0000 0.31933  0.34287  0.83447  Biso   1.000  O
  Al13     1.0000 0.22560  0.22870  0.89660  Biso   1.000  Al
  P13      1.0000 0.22450  0.22800  0.10880  Biso   1.000  P
  O49      1.0000 0.25510  0.25910  0.00910  Biso   1.000  O
  O50      1.0000 0.12270  0.23890  0.13540  Biso   1.000  O
  O51      1.0000 0.19560  0.10640  0.12710  Biso   1.000  O
  O52      1.0000 0.32380  0.30980  0.16780  Biso   1.000  O
  Al14     1.0000 0.89227  0.56203  0.22993  Biso   1.000  Al
  P14      1.0000 0.89117  0.56133  0.44213  Biso   1.000  P
  O53      1.0000 0.92177  0.59243  0.34243  Biso   1.000  O
  O54      1.0000 0.78937  0.57223  0.46873  Biso   1.000  O
  O55      1.0000 0.86227  0.43973  0.46043  Biso   1.000  O
  O56      1.0000 0.99047  0.64313  0.50113  Biso   1.000  O
  Al15     1.0000 0.55893  0.89537  0.56327  Biso   1.000  Al
  P15      1.0000 0.55783  0.89467  0.77547  Biso   1.000  P
  O57      1.0000 0.58843  0.92577  0.67577  Biso   1.000  O
  O58      1.0000 0.45603  0.90557  0.80207  Biso   1.000  O
  O59      1.0000 0.52893  0.77307  0.79377  Biso   1.000  O
  O60      1.0000 0.65713  0.97647  0.83447  Biso   1.000  O
  Al16     1.0000 0.77130  0.99690  0.89660  Biso   1.000  Al
  P16      1.0000 0.77200  0.99650  0.10880  Biso   1.000  P
  O61      1.0000 0.74090  0.99600  0.00910  Biso   1.000  O
  O62      1.0000 0.76110  0.88380  0.13540  Biso   1.000  O
  O63      1.0000 0.89360  0.08920  0.12710  Biso   1.000  O
  O64      1.0000 0.69020  0.01400  0.16780  Biso   1.000  O
  Al17     1.0000 0.43797  0.33023  0.22993  Biso   1.000  Al
  P17      1.0000 0.43867  0.32983  0.44213  Biso   1.000  P
  O65      1.0000 0.40757  0.32933  0.34243  Biso   1.000  O
  O66      1.0000 0.42777  0.21713  0.46873  Biso   1.000  O
  O67      1.0000 0.56027  0.42253  0.46043  Biso   1.000  O
  O68      1.0000 0.35687  0.34733  0.50113  Biso   1.000  O
  Al18     1.0000 0.10463  0.66357  0.56327  Biso   1.000  Al
  P18      1.0000 0.10533  0.66317  0.77547  Biso   1.000  P
  O69      1.0000 0.07423  0.66267  0.67577  Biso   1.000  O
  O70      1.0000 0.09443  0.55047  0.80207  Biso   1.000  O
  O71      1.0000 0.22693  0.75587  0.79377  Biso   1.000  O
  O72      1.0000 0.02353  0.68067  0.83447  Biso   1.000  O
