data_SAQQOR_clean_h
_audit_creation_date              2014-07-02
_audit_creation_method            'Materials Studio'
_symmetry_space_group_name_H-M    'P1'
_symmetry_Int_Tables_number       1
_symmetry_cell_setting            triclinic
loop_
_symmetry_equiv_pos_as_xyz
  x,y,z
_cell_length_a                    15.2265
_cell_length_b                    15.2265
_cell_length_c                    18.5799
_cell_angle_alpha                 76.1765
_cell_angle_beta                  76.1765
_cell_angle_gamma                 68.3777
loop_
_atom_site_label
_atom_site_type_symbol
_atom_site_fract_x
_atom_site_fract_y
_atom_site_fract_z
_atom_site_U_iso_or_equiv
_atom_site_adp_type
_atom_site_occupancy
Y1     Y     0.46193   0.54357   0.10460   0.01267  Uiso   1.00
Y2     Y     0.45643   0.53807   0.39540   0.01267  Uiso   1.00
Y3     Y     0.53807   0.45643   0.89540   0.01267  Uiso   1.00
Y4     Y     0.54357   0.46193   0.60460   0.01267  Uiso   1.00
C1     C     0.47660   0.91220   0.80740   0.01267  Uiso   1.00
C2     C     0.46890   0.96390   0.86110   0.01267  Uiso   1.00
C3     C     0.46500   0.06620   0.84170   0.01267  Uiso   1.00
C4     C     0.51520   0.09760   0.77020   0.01267  Uiso   1.00
C5     C     0.51530   0.19050   0.75250   0.01267  Uiso   1.00
C6     C     0.47360   0.25320   0.80360   0.01267  Uiso   1.00
C7     C     0.42500   0.22180   0.87260   0.01267  Uiso   1.00
C8     C     0.42080   0.13020   0.89030   0.01267  Uiso   1.00
C9     C     0.48251   0.35111   0.78500   0.01267  Uiso   1.00
C10    C     0.95430   0.49550   0.00030   0.01267  Uiso   1.00
C11    C     0.87680   0.51900   0.05850   0.01267  Uiso   1.00
C12    C     0.78990   0.50930   0.05820   0.01267  Uiso   1.00
C13    C     0.77580   0.47500   0.00210   0.01267  Uiso   1.00
C14    C     0.85470   0.44490   0.94600   0.01267  Uiso   1.00
C15    C     0.93980   0.45660   0.94520   0.01267  Uiso   1.00
C16    C     0.68050   0.46870   0.00020   0.01267  Uiso   1.00
C17    C     0.46660   0.91780   0.93500   0.01267  Uiso   1.00
C18    C     0.47070   0.82350   0.95490   0.01267  Uiso   1.00
C19    C     0.48090   0.76970   0.90070   0.01267  Uiso   1.00
C20    C     0.48190   0.81610   0.82530   0.01267  Uiso   1.00
C21    C     0.50890   0.33230   0.07960   0.01267  Uiso   1.00
C22    C     0.08780   0.52340   0.69260   0.01267  Uiso   1.00
C23    C     0.03610   0.53110   0.63890   0.01267  Uiso   1.00
C24    C     0.93380   0.53500   0.65830   0.01267  Uiso   1.00
C25    C     0.90240   0.48480   0.72980   0.01267  Uiso   1.00
C26    C     0.80950   0.48470   0.74750   0.01267  Uiso   1.00
C27    C     0.74680   0.52640   0.69640   0.01267  Uiso   1.00
C28    C     0.77820   0.57500   0.62740   0.01267  Uiso   1.00
C29    C     0.86980   0.57920   0.60970   0.01267  Uiso   1.00
C30    C     0.64889   0.51749   0.71500   0.01267  Uiso   1.00
C31    C     0.50450   0.04570   0.49970   0.01267  Uiso   1.00
C32    C     0.48100   0.12320   0.44150   0.01267  Uiso   1.00
C33    C     0.49070   0.21010   0.44180   0.01267  Uiso   1.00
C34    C     0.52500   0.22420   0.49790   0.01267  Uiso   1.00
C35    C     0.55510   0.14530   0.55400   0.01267  Uiso   1.00
C36    C     0.54340   0.06020   0.55480   0.01267  Uiso   1.00
C37    C     0.53130   0.31950   0.49980   0.01267  Uiso   1.00
C38    C     0.08220   0.53340   0.56500   0.01267  Uiso   1.00
C39    C     0.17650   0.52930   0.54510   0.01267  Uiso   1.00
C40    C     0.23030   0.51910   0.59930   0.01267  Uiso   1.00
C41    C     0.18390   0.51810   0.67470   0.01267  Uiso   1.00
C42    C     0.66770   0.49110   0.42040   0.01267  Uiso   1.00
C43    C     0.52340   0.08780   0.19260   0.01267  Uiso   1.00
C44    C     0.53110   0.03610   0.13890   0.01267  Uiso   1.00
C45    C     0.53500   0.93380   0.15830   0.01267  Uiso   1.00
C46    C     0.48480   0.90240   0.22980   0.01267  Uiso   1.00
C47    C     0.48470   0.80950   0.24750   0.01267  Uiso   1.00
C48    C     0.52640   0.74680   0.19640   0.01267  Uiso   1.00
C49    C     0.57500   0.77820   0.12740   0.01267  Uiso   1.00
C50    C     0.57920   0.86980   0.10970   0.01267  Uiso   1.00
C51    C     0.51749   0.64889   0.21500   0.01267  Uiso   1.00
C52    C     0.04570   0.50450   0.99970   0.01267  Uiso   1.00
C53    C     0.12320   0.48100   0.94150   0.01267  Uiso   1.00
C54    C     0.21010   0.49070   0.94180   0.01267  Uiso   1.00
C55    C     0.22420   0.52500   0.99790   0.01267  Uiso   1.00
C56    C     0.14530   0.55510   0.05400   0.01267  Uiso   1.00
C57    C     0.06020   0.54340   0.05480   0.01267  Uiso   1.00
C58    C     0.31950   0.53130   0.99980   0.01267  Uiso   1.00
C59    C     0.53340   0.08220   0.06500   0.01267  Uiso   1.00
C60    C     0.52930   0.17650   0.04510   0.01267  Uiso   1.00
C61    C     0.51910   0.23030   0.09930   0.01267  Uiso   1.00
C62    C     0.51810   0.18390   0.17470   0.01267  Uiso   1.00
C63    C     0.49110   0.66770   0.92040   0.01267  Uiso   1.00
C64    C     0.91220   0.47660   0.30740   0.01267  Uiso   1.00
C65    C     0.96390   0.46890   0.36110   0.01267  Uiso   1.00
C66    C     0.06620   0.46500   0.34170   0.01267  Uiso   1.00
C67    C     0.09760   0.51520   0.27020   0.01267  Uiso   1.00
C68    C     0.19050   0.51530   0.25250   0.01267  Uiso   1.00
C69    C     0.25320   0.47360   0.30360   0.01267  Uiso   1.00
C70    C     0.22180   0.42500   0.37260   0.01267  Uiso   1.00
C71    C     0.13020   0.42080   0.39030   0.01267  Uiso   1.00
C72    C     0.35111   0.48251   0.28500   0.01267  Uiso   1.00
C73    C     0.49550   0.95430   0.50030   0.01267  Uiso   1.00
C74    C     0.51900   0.87680   0.55850   0.01267  Uiso   1.00
C75    C     0.50930   0.78990   0.55820   0.01267  Uiso   1.00
C76    C     0.47500   0.77580   0.50210   0.01267  Uiso   1.00
C77    C     0.44490   0.85470   0.44600   0.01267  Uiso   1.00
C78    C     0.45660   0.93980   0.44520   0.01267  Uiso   1.00
C79    C     0.46870   0.68050   0.50020   0.01267  Uiso   1.00
C80    C     0.91780   0.46660   0.43500   0.01267  Uiso   1.00
C81    C     0.82350   0.47070   0.45490   0.01267  Uiso   1.00
C82    C     0.76970   0.48090   0.40070   0.01267  Uiso   1.00
C83    C     0.81610   0.48190   0.32530   0.01267  Uiso   1.00
C84    C     0.33230   0.50890   0.57960   0.01267  Uiso   1.00
O1     O     0.49107   0.37927   0.13070   0.01267  Uiso   1.00
O2     O     0.51761   0.37761   0.71930   0.01267  Uiso   1.00
O3     O     0.62145   0.47645   0.05880   0.01267  Uiso   1.00
O4     O     0.46034   0.39754   0.83760   0.01267  Uiso   1.00
O5     O     0.48455   0.63015   0.98870   0.01267  Uiso   1.00
O6     O     0.66828   0.45568   0.93910   0.01267  Uiso   1.00
O7     O     0.62073   0.50893   0.36930   0.01267  Uiso   1.00
O8     O     0.62239   0.48239   0.78070   0.01267  Uiso   1.00
O9     O     0.52355   0.37855   0.44120   0.01267  Uiso   1.00
O10    O     0.60246   0.53966   0.66240   0.01267  Uiso   1.00
O11    O     0.36985   0.51545   0.51130   0.01267  Uiso   1.00
O12    O     0.54432   0.33172   0.56090   0.01267  Uiso   1.00
O13    O     0.50893   0.62073   0.86930   0.01267  Uiso   1.00
O14    O     0.48239   0.62239   0.28070   0.01267  Uiso   1.00
O15    O     0.37855   0.52355   0.94120   0.01267  Uiso   1.00
O16    O     0.53966   0.60246   0.16240   0.01267  Uiso   1.00
O17    O     0.51545   0.36985   0.01130   0.01267  Uiso   1.00
O18    O     0.33172   0.54432   0.06090   0.01267  Uiso   1.00
O19    O     0.37927   0.49107   0.63070   0.01267  Uiso   1.00
O20    O     0.37761   0.51761   0.21930   0.01267  Uiso   1.00
O21    O     0.47645   0.62145   0.55880   0.01267  Uiso   1.00
O22    O     0.39754   0.46034   0.33760   0.01267  Uiso   1.00
O23    O     0.63015   0.48455   0.48870   0.01267  Uiso   1.00
O24    O     0.45568   0.66828   0.43910   0.01267  Uiso   1.00
H1     H     0.47886   0.94753   0.74584   0.01267  Uiso   1.00
H2     H     0.55448   0.04565   0.72872   0.01267  Uiso   1.00
H3     H     0.55041   0.21782   0.69434   0.01267  Uiso   1.00
H4     H     0.38789   0.27219   0.91546   0.01267  Uiso   1.00
H5     H     0.37964   0.10607   0.94676   0.01267  Uiso   1.00
H6     H     0.88424   0.54688   0.10772   0.01267  Uiso   1.00
H7     H     0.72751   0.53031   0.10590   0.01267  Uiso   1.00
H8     H     0.84840   0.41020   0.90031   0.01267  Uiso   1.00
H9     H     0.00258   0.43414   0.89807   0.01267  Uiso   1.00
H10    H     0.46118   0.95801   0.98123   0.01267  Uiso   1.00
H11    H     0.46572   0.78839   0.01656   0.01267  Uiso   1.00
H12    H     0.48700   0.77522   0.77961   0.01267  Uiso   1.00
H13    H     0.05247   0.52114   0.75416   0.01267  Uiso   1.00
H14    H     0.95435   0.44552   0.77128   0.01267  Uiso   1.00
H15    H     0.78218   0.44959   0.80566   0.01267  Uiso   1.00
H16    H     0.72781   0.61211   0.58454   0.01267  Uiso   1.00
H17    H     0.89174   0.62092   0.55280   0.01267  Uiso   1.00
H18    H     0.45312   0.11576   0.39228   0.01267  Uiso   1.00
H19    H     0.46969   0.27249   0.39410   0.01267  Uiso   1.00
H20    H     0.58980   0.15160   0.59969   0.01267  Uiso   1.00
H21    H     0.56586   0.99742   0.60193   0.01267  Uiso   1.00
H22    H     0.04199   0.53882   0.51877   0.01267  Uiso   1.00
H23    H     0.21161   0.53428   0.48344   0.01267  Uiso   1.00
H24    H     0.22403   0.51303   0.72088   0.01267  Uiso   1.00
H25    H     0.52114   0.05247   0.25416   0.01267  Uiso   1.00
H26    H     0.44552   0.95435   0.27128   0.01267  Uiso   1.00
H27    H     0.44959   0.78218   0.30566   0.01267  Uiso   1.00
H28    H     0.61211   0.72781   0.08454   0.01267  Uiso   1.00
H29    H     0.62036   0.89393   0.05324   0.01267  Uiso   1.00
H30    H     0.11576   0.45312   0.89228   0.01267  Uiso   1.00
H31    H     0.27249   0.46969   0.89410   0.01267  Uiso   1.00
H32    H     0.15160   0.58980   0.09969   0.01267  Uiso   1.00
H33    H     0.99969   0.56700   0.10315   0.01267  Uiso   1.00
H34    H     0.53882   0.04199   0.01877   0.01267  Uiso   1.00
H35    H     0.53428   0.21161   0.98344   0.01267  Uiso   1.00
H36    H     0.51303   0.22403   0.22088   0.01267  Uiso   1.00
H37    H     0.94753   0.47886   0.24584   0.01267  Uiso   1.00
H38    H     0.04565   0.55448   0.22872   0.01267  Uiso   1.00
H39    H     0.21782   0.55041   0.19434   0.01267  Uiso   1.00
H40    H     0.27219   0.38789   0.41546   0.01267  Uiso   1.00
H41    H     0.10826   0.37908   0.44720   0.01267  Uiso   1.00
H42    H     0.54688   0.88424   0.60772   0.01267  Uiso   1.00
H43    H     0.53031   0.72751   0.60590   0.01267  Uiso   1.00
H44    H     0.41020   0.84840   0.40031   0.01267  Uiso   1.00
H45    H     0.43300   0.00031   0.39685   0.01267  Uiso   1.00
H46    H     0.95801   0.46118   0.48123   0.01267  Uiso   1.00
H47    H     0.78839   0.46572   0.51656   0.01267  Uiso   1.00
H48    H     0.77597   0.48697   0.27912   0.01267  Uiso   1.00
