data_SAQQIL_clean
_audit_creation_date              2014-07-02
_audit_creation_method            'Materials Studio'
_symmetry_space_group_name_H-M    'P1'
_symmetry_Int_Tables_number       1
_symmetry_cell_setting            triclinic
loop_
_symmetry_equiv_pos_as_xyz
  x,y,z
_cell_length_a                    15.2040
_cell_length_b                    15.2040
_cell_length_c                    18.5354
_cell_angle_alpha                 76.2724
_cell_angle_beta                  76.2724
_cell_angle_gamma                 68.3932
loop_
_atom_site_label
_atom_site_type_symbol
_atom_site_fract_x
_atom_site_fract_y
_atom_site_fract_z
_atom_site_U_iso_or_equiv
_atom_site_adp_type
_atom_site_occupancy
Er1    Er    0.04343   0.96215   0.10455   0.01267  Uiso   1.00
Er2    Er    0.03785   0.95657   0.39545   0.01267  Uiso   1.00
Er3    Er    0.95657   0.03785   0.89545   0.01267  Uiso   1.00
Er4    Er    0.96215   0.04343   0.60455   0.01267  Uiso   1.00
H1     H     0.07750   0.65430   0.09330   0.01267  Uiso   1.00
H2     H     0.06860   0.50700   0.09130   0.01267  Uiso   1.00
H3     H     0.95330   0.61710   0.90410   0.01267  Uiso   1.00
H4     H     0.97360   0.76080   0.90220   0.01267  Uiso   1.00
H5     H     0.29290   0.97010   0.00500   0.01267  Uiso   1.00
H6     H     0.45410   0.95610   0.97240   0.01267  Uiso   1.00
H7     H     0.44060   0.97880   0.75720   0.01267  Uiso   1.00
H8     H     0.28260   0.98740   0.78890   0.01267  Uiso   1.00
H9     H     0.76590   0.89210   0.90640   0.01267  Uiso   1.00
H10    H     0.61300   0.88440   0.93620   0.01267  Uiso   1.00
H11    H     0.55500   0.04520   0.73530   0.01267  Uiso   1.00
H12    H     0.71100   0.04860   0.70530   0.01267  Uiso   1.00
H13    H     0.34570   0.92250   0.40670   0.01267  Uiso   1.00
H14    H     0.49300   0.93140   0.40870   0.01267  Uiso   1.00
H15    H     0.38290   0.04670   0.59590   0.01267  Uiso   1.00
H16    H     0.23920   0.02640   0.59780   0.01267  Uiso   1.00
H17    H     0.02990   0.70710   0.49500   0.01267  Uiso   1.00
H18    H     0.04390   0.54590   0.52760   0.01267  Uiso   1.00
H19    H     0.02120   0.55940   0.74280   0.01267  Uiso   1.00
H20    H     0.01260   0.71740   0.71110   0.01267  Uiso   1.00
H21    H     0.10790   0.23410   0.59360   0.01267  Uiso   1.00
H22    H     0.11560   0.38700   0.56380   0.01267  Uiso   1.00
H23    H     0.95480   0.44500   0.76470   0.01267  Uiso   1.00
H24    H     0.95140   0.28900   0.79470   0.01267  Uiso   1.00
H25    H     0.92250   0.34570   0.90670   0.01267  Uiso   1.00
H26    H     0.93140   0.49300   0.90870   0.01267  Uiso   1.00
H27    H     0.04670   0.38290   0.09590   0.01267  Uiso   1.00
H28    H     0.02640   0.23920   0.09780   0.01267  Uiso   1.00
H29    H     0.70710   0.02990   0.99500   0.01267  Uiso   1.00
H30    H     0.54590   0.04390   0.02760   0.01267  Uiso   1.00
H31    H     0.55940   0.02120   0.24280   0.01267  Uiso   1.00
H32    H     0.71740   0.01260   0.21110   0.01267  Uiso   1.00
H33    H     0.23410   0.10790   0.09360   0.01267  Uiso   1.00
H34    H     0.38700   0.11560   0.06380   0.01267  Uiso   1.00
H35    H     0.44500   0.95480   0.26470   0.01267  Uiso   1.00
H36    H     0.28900   0.95140   0.29470   0.01267  Uiso   1.00
H37    H     0.65430   0.07750   0.59330   0.01267  Uiso   1.00
H38    H     0.50700   0.06860   0.59130   0.01267  Uiso   1.00
H39    H     0.61710   0.95330   0.40410   0.01267  Uiso   1.00
H40    H     0.76080   0.97360   0.40220   0.01267  Uiso   1.00
H41    H     0.97010   0.29290   0.50500   0.01267  Uiso   1.00
H42    H     0.95610   0.45410   0.47240   0.01267  Uiso   1.00
H43    H     0.97880   0.44060   0.25720   0.01267  Uiso   1.00
H44    H     0.98740   0.28260   0.28890   0.01267  Uiso   1.00
H45    H     0.89210   0.76590   0.40640   0.01267  Uiso   1.00
H46    H     0.88440   0.61300   0.43620   0.01267  Uiso   1.00
H47    H     0.04520   0.55500   0.23530   0.01267  Uiso   1.00
H48    H     0.04860   0.71100   0.20530   0.01267  Uiso   1.00
C1     C     0.03100   0.82000   0.99970   0.01267  Uiso   1.00
C2     C     0.02500   0.72400   0.99880   0.01267  Uiso   1.00
C3     C     0.05310   0.64710   0.05440   0.01267  Uiso   1.00
C4     C     0.04610   0.55850   0.05410   0.01267  Uiso   1.00
C5     C     0.00600   0.54620   0.99930   0.01267  Uiso   1.00
C6     C     0.97910   0.62350   0.94250   0.01267  Uiso   1.00
C7     C     0.99020   0.71080   0.94190   0.01267  Uiso   1.00
C8     C     0.16700   0.99200   0.92080   0.01267  Uiso   1.00
C9     C     0.27030   0.98170   0.90030   0.01267  Uiso   1.00
C10    C     0.32220   0.97180   0.95480   0.01267  Uiso   1.00
C11    C     0.41940   0.96440   0.93480   0.01267  Uiso   1.00
C12    C     0.46470   0.96910   0.86030   0.01267  Uiso   1.00
C13    C     0.41160   0.97720   0.80750   0.01267  Uiso   1.00
C14    C     0.31620   0.98280   0.82630   0.01267  Uiso   1.00
C15    C     0.85140   0.98340   0.78510   0.01267  Uiso   1.00
C16    C     0.75370   0.97410   0.80320   0.01267  Uiso   1.00
C17    C     0.72360   0.92320   0.87230   0.01267  Uiso   1.00
C18    C     0.63150   0.91910   0.89020   0.01267  Uiso   1.00
C19    C     0.56630   0.96550   0.84100   0.01267  Uiso   1.00
C20    C     0.59680   0.01480   0.76990   0.01267  Uiso   1.00
C21    C     0.69060   0.01720   0.75230   0.01267  Uiso   1.00
C22    C     0.18000   0.96900   0.50030   0.01267  Uiso   1.00
C23    C     0.27600   0.97500   0.50120   0.01267  Uiso   1.00
C24    C     0.35290   0.94690   0.44560   0.01267  Uiso   1.00
C25    C     0.44150   0.95390   0.44590   0.01267  Uiso   1.00
C26    C     0.45380   0.99400   0.50070   0.01267  Uiso   1.00
C27    C     0.37650   0.02090   0.55750   0.01267  Uiso   1.00
C28    C     0.28920   0.00980   0.55810   0.01267  Uiso   1.00
C29    C     0.00800   0.83300   0.57920   0.01267  Uiso   1.00
C30    C     0.01830   0.72970   0.59970   0.01267  Uiso   1.00
C31    C     0.02820   0.67780   0.54520   0.01267  Uiso   1.00
C32    C     0.03560   0.58060   0.56520   0.01267  Uiso   1.00
C33    C     0.03090   0.53530   0.63970   0.01267  Uiso   1.00
C34    C     0.02280   0.58840   0.69250   0.01267  Uiso   1.00
C35    C     0.01720   0.68380   0.67370   0.01267  Uiso   1.00
C36    C     0.01660   0.14860   0.71490   0.01267  Uiso   1.00
C37    C     0.02590   0.24630   0.69680   0.01267  Uiso   1.00
C38    C     0.07680   0.27640   0.62770   0.01267  Uiso   1.00
C39    C     0.08090   0.36850   0.60980   0.01267  Uiso   1.00
C40    C     0.03450   0.43370   0.65900   0.01267  Uiso   1.00
C41    C     0.98520   0.40320   0.73010   0.01267  Uiso   1.00
C42    C     0.98280   0.30940   0.74770   0.01267  Uiso   1.00
C43    C     0.96900   0.18000   0.00030   0.01267  Uiso   1.00
C44    C     0.97500   0.27600   0.00120   0.01267  Uiso   1.00
C45    C     0.94690   0.35290   0.94560   0.01267  Uiso   1.00
C46    C     0.95390   0.44150   0.94590   0.01267  Uiso   1.00
C47    C     0.99400   0.45380   0.00070   0.01267  Uiso   1.00
C48    C     0.02090   0.37650   0.05750   0.01267  Uiso   1.00
C49    C     0.00980   0.28920   0.05810   0.01267  Uiso   1.00
C50    C     0.83300   0.00800   0.07920   0.01267  Uiso   1.00
C51    C     0.72970   0.01830   0.09970   0.01267  Uiso   1.00
C52    C     0.67780   0.02820   0.04520   0.01267  Uiso   1.00
C53    C     0.58060   0.03560   0.06520   0.01267  Uiso   1.00
C54    C     0.53530   0.03090   0.13970   0.01267  Uiso   1.00
C55    C     0.58840   0.02280   0.19250   0.01267  Uiso   1.00
C56    C     0.68380   0.01720   0.17370   0.01267  Uiso   1.00
C57    C     0.14860   0.01660   0.21490   0.01267  Uiso   1.00
C58    C     0.24630   0.02590   0.19680   0.01267  Uiso   1.00
C59    C     0.27640   0.07680   0.12770   0.01267  Uiso   1.00
C60    C     0.36850   0.08090   0.10980   0.01267  Uiso   1.00
C61    C     0.43370   0.03450   0.15900   0.01267  Uiso   1.00
C62    C     0.40320   0.98520   0.23010   0.01267  Uiso   1.00
C63    C     0.30940   0.98280   0.24770   0.01267  Uiso   1.00
C64    C     0.82000   0.03100   0.49970   0.01267  Uiso   1.00
C65    C     0.72400   0.02500   0.49880   0.01267  Uiso   1.00
C66    C     0.64710   0.05310   0.55440   0.01267  Uiso   1.00
C67    C     0.55850   0.04610   0.55410   0.01267  Uiso   1.00
C68    C     0.54620   0.00600   0.49930   0.01267  Uiso   1.00
C69    C     0.62350   0.97910   0.44250   0.01267  Uiso   1.00
C70    C     0.71080   0.99020   0.44190   0.01267  Uiso   1.00
C71    C     0.99200   0.16700   0.42080   0.01267  Uiso   1.00
C72    C     0.98170   0.27030   0.40030   0.01267  Uiso   1.00
C73    C     0.97180   0.32220   0.45480   0.01267  Uiso   1.00
C74    C     0.96440   0.41940   0.43480   0.01267  Uiso   1.00
C75    C     0.96910   0.46470   0.36030   0.01267  Uiso   1.00
C76    C     0.97720   0.41160   0.30750   0.01267  Uiso   1.00
C77    C     0.98280   0.31620   0.32630   0.01267  Uiso   1.00
C78    C     0.98340   0.85140   0.28510   0.01267  Uiso   1.00
C79    C     0.97410   0.75370   0.30320   0.01267  Uiso   1.00
C80    C     0.92320   0.72360   0.37230   0.01267  Uiso   1.00
C81    C     0.91910   0.63150   0.39020   0.01267  Uiso   1.00
C82    C     0.96550   0.56630   0.34100   0.01267  Uiso   1.00
C83    C     0.01480   0.59680   0.26990   0.01267  Uiso   1.00
C84    C     0.01720   0.69060   0.25230   0.01267  Uiso   1.00
O1     O     0.04280   0.83360   0.06040   0.01267  Uiso   1.00
O2     O     0.97590   0.12090   0.05960   0.01267  Uiso   1.00
O3     O     0.12910   0.98710   0.98920   0.01267  Uiso   1.00
O4     O     0.12140   0.00980   0.86860   0.01267  Uiso   1.00
O5     O     0.90032   0.95792   0.83790   0.01267  Uiso   1.00
O6     O     0.87850   0.01730   0.71900   0.01267  Uiso   1.00
O7     O     0.16640   0.95720   0.43960   0.01267  Uiso   1.00
O8     O     0.87910   0.02410   0.44040   0.01267  Uiso   1.00
O9     O     0.01290   0.87090   0.51080   0.01267  Uiso   1.00
O10    O     0.99020   0.87860   0.63140   0.01267  Uiso   1.00
O11    O     0.04208   0.09968   0.66210   0.01267  Uiso   1.00
O12    O     0.98270   0.12150   0.78100   0.01267  Uiso   1.00
O13    O     0.95720   0.16640   0.93960   0.01267  Uiso   1.00
O14    O     0.02410   0.87910   0.94040   0.01267  Uiso   1.00
O15    O     0.87090   0.01290   0.01080   0.01267  Uiso   1.00
O16    O     0.87860   0.99020   0.13140   0.01267  Uiso   1.00
O17    O     0.09968   0.04208   0.16210   0.01267  Uiso   1.00
O18    O     0.12150   0.98270   0.28100   0.01267  Uiso   1.00
O19    O     0.83360   0.04280   0.56040   0.01267  Uiso   1.00
O20    O     0.12090   0.97590   0.55960   0.01267  Uiso   1.00
O21    O     0.98710   0.12910   0.48920   0.01267  Uiso   1.00
O22    O     0.00980   0.12140   0.36860   0.01267  Uiso   1.00
O23    O     0.95792   0.90032   0.33790   0.01267  Uiso   1.00
O24    O     0.01730   0.87850   0.21900   0.01267  Uiso   1.00
