data_SAQQAD_clean
_audit_creation_date              2014-07-02
_audit_creation_method            'Materials Studio'
_symmetry_space_group_name_H-M    'P1'
_symmetry_Int_Tables_number       1
_symmetry_cell_setting            triclinic
loop_
_symmetry_equiv_pos_as_xyz
  x,y,z
_cell_length_a                    15.2994
_cell_length_b                    15.2994
_cell_length_c                    18.4904
_cell_angle_alpha                 75.7184
_cell_angle_beta                  75.7184
_cell_angle_gamma                 68.1324
loop_
_atom_site_label
_atom_site_type_symbol
_atom_site_fract_x
_atom_site_fract_y
_atom_site_fract_z
_atom_site_U_iso_or_equiv
_atom_site_adp_type
_atom_site_occupancy
Tb1    Tb    0.96142   0.04354   0.10404   0.01267  Uiso   1.00
Tb2    Tb    0.95646   0.03858   0.39596   0.01267  Uiso   1.00
Tb3    Tb    0.03858   0.95646   0.89596   0.01267  Uiso   1.00
Tb4    Tb    0.04354   0.96142   0.60404   0.01267  Uiso   1.00
H1     H     0.01570   0.71310   0.21530   0.01267  Uiso   1.00
H2     H     0.01920   0.55780   0.24500   0.01267  Uiso   1.00
H3     H     0.03490   0.55590   0.02730   0.01267  Uiso   1.00
H4     H     0.03070   0.71050   0.99760   0.01267  Uiso   1.00
H5     H     0.34950   0.92050   0.90710   0.01267  Uiso   1.00
H6     H     0.49480   0.92980   0.90910   0.01267  Uiso   1.00
H7     H     0.38140   0.04740   0.09600   0.01267  Uiso   1.00
H8     H     0.23890   0.02970   0.09680   0.01267  Uiso   1.00
H9     H     0.10630   0.23930   0.09170   0.01267  Uiso   1.00
H10    H     0.11430   0.39290   0.06280   0.01267  Uiso   1.00
H11    H     0.95370   0.44530   0.26410   0.01267  Uiso   1.00
H12    H     0.94290   0.29430   0.29250   0.01267  Uiso   1.00
H13    H     0.28690   0.98430   0.28470   0.01267  Uiso   1.00
H14    H     0.44220   0.98080   0.25500   0.01267  Uiso   1.00
H15    H     0.44410   0.96510   0.47270   0.01267  Uiso   1.00
H16    H     0.28950   0.96930   0.50240   0.01267  Uiso   1.00
H17    H     0.07950   0.65050   0.59290   0.01267  Uiso   1.00
H18    H     0.07020   0.50520   0.59090   0.01267  Uiso   1.00
H19    H     0.95260   0.61860   0.40400   0.01267  Uiso   1.00
H20    H     0.97030   0.76110   0.40320   0.01267  Uiso   1.00
H21    H     0.76070   0.89370   0.40830   0.01267  Uiso   1.00
H22    H     0.60710   0.88570   0.43720   0.01267  Uiso   1.00
H23    H     0.55470   0.04630   0.23590   0.01267  Uiso   1.00
H24    H     0.70570   0.05710   0.20750   0.01267  Uiso   1.00
H25    H     0.98430   0.28690   0.78470   0.01267  Uiso   1.00
H26    H     0.98080   0.44220   0.75500   0.01267  Uiso   1.00
H27    H     0.96510   0.44410   0.97270   0.01267  Uiso   1.00
H28    H     0.96930   0.28950   0.00240   0.01267  Uiso   1.00
H29    H     0.65050   0.07950   0.09290   0.01267  Uiso   1.00
H30    H     0.50520   0.07020   0.09090   0.01267  Uiso   1.00
H31    H     0.61860   0.95260   0.90400   0.01267  Uiso   1.00
H32    H     0.76110   0.97030   0.90320   0.01267  Uiso   1.00
H33    H     0.89370   0.76070   0.90830   0.01267  Uiso   1.00
H34    H     0.88570   0.60710   0.93720   0.01267  Uiso   1.00
H35    H     0.04630   0.55470   0.73590   0.01267  Uiso   1.00
H36    H     0.05710   0.70570   0.70750   0.01267  Uiso   1.00
H37    H     0.71310   0.01570   0.71530   0.01267  Uiso   1.00
H38    H     0.55780   0.01920   0.74500   0.01267  Uiso   1.00
H39    H     0.55590   0.03490   0.52730   0.01267  Uiso   1.00
H40    H     0.71050   0.03070   0.49760   0.01267  Uiso   1.00
H41    H     0.92050   0.34950   0.40710   0.01267  Uiso   1.00
H42    H     0.92980   0.49480   0.40910   0.01267  Uiso   1.00
H43    H     0.04740   0.38140   0.59600   0.01267  Uiso   1.00
H44    H     0.02970   0.23890   0.59680   0.01267  Uiso   1.00
H45    H     0.23930   0.10630   0.59170   0.01267  Uiso   1.00
H46    H     0.39290   0.11430   0.56280   0.01267  Uiso   1.00
H47    H     0.44530   0.95370   0.76410   0.01267  Uiso   1.00
H48    H     0.29430   0.94290   0.79250   0.01267  Uiso   1.00
C1     C     0.00830   0.83330   0.08450   0.01267  Uiso   1.00
C2     C     0.01720   0.73040   0.10310   0.01267  Uiso   1.00
C3     C     0.01790   0.68190   0.17730   0.01267  Uiso   1.00
C4     C     0.02160   0.58820   0.19470   0.01267  Uiso   1.00
C5     C     0.02890   0.53750   0.14010   0.01267  Uiso   1.00
C6     C     0.03080   0.58720   0.06570   0.01267  Uiso   1.00
C7     C     0.02680   0.68040   0.04790   0.01267  Uiso   1.00
C8     C     0.18213   0.96853   0.00030   0.01267  Uiso   1.00
C9     C     0.27630   0.97650   0.00100   0.01267  Uiso   1.00
C10    C     0.35560   0.94620   0.94560   0.01267  Uiso   1.00
C11    C     0.44280   0.95300   0.94590   0.01267  Uiso   1.00
C12    C     0.45380   0.99420   0.00030   0.01267  Uiso   1.00
C13    C     0.37550   0.02190   0.05740   0.01267  Uiso   1.00
C14    C     0.28950   0.01190   0.05740   0.01267  Uiso   1.00
C15    C     0.01466   0.15286   0.21280   0.01267  Uiso   1.00
C16    C     0.02390   0.24970   0.19540   0.01267  Uiso   1.00
C17    C     0.07490   0.28070   0.12640   0.01267  Uiso   1.00
C18    C     0.07950   0.37350   0.10880   0.01267  Uiso   1.00
C19    C     0.03290   0.43630   0.15880   0.01267  Uiso   1.00
C20    C     0.98330   0.40450   0.22890   0.01267  Uiso   1.00
C21    C     0.97780   0.31340   0.24640   0.01267  Uiso   1.00
C22    C     0.16670   0.99170   0.41550   0.01267  Uiso   1.00
C23    C     0.26960   0.98280   0.39690   0.01267  Uiso   1.00
C24    C     0.31810   0.98210   0.32270   0.01267  Uiso   1.00
C25    C     0.41180   0.97840   0.30530   0.01267  Uiso   1.00
C26    C     0.46250   0.97110   0.35990   0.01267  Uiso   1.00
C27    C     0.41280   0.96920   0.43430   0.01267  Uiso   1.00
C28    C     0.31960   0.97320   0.45210   0.01267  Uiso   1.00
C29    C     0.03147   0.81787   0.49970   0.01267  Uiso   1.00
C30    C     0.02350   0.72370   0.49900   0.01267  Uiso   1.00
C31    C     0.05380   0.64440   0.55440   0.01267  Uiso   1.00
C32    C     0.04700   0.55720   0.55410   0.01267  Uiso   1.00
C33    C     0.00580   0.54620   0.49970   0.01267  Uiso   1.00
C34    C     0.97810   0.62450   0.44260   0.01267  Uiso   1.00
C35    C     0.98810   0.71050   0.44260   0.01267  Uiso   1.00
C36    C     0.84714   0.98534   0.28720   0.01267  Uiso   1.00
C37    C     0.75030   0.97610   0.30460   0.01267  Uiso   1.00
C38    C     0.71930   0.92510   0.37360   0.01267  Uiso   1.00
C39    C     0.62650   0.92050   0.39120   0.01267  Uiso   1.00
C40    C     0.56370   0.96710   0.34120   0.01267  Uiso   1.00
C41    C     0.59550   0.01670   0.27110   0.01267  Uiso   1.00
C42    C     0.68660   0.02220   0.25360   0.01267  Uiso   1.00
C43    C     0.99170   0.16670   0.91550   0.01267  Uiso   1.00
C44    C     0.98280   0.26960   0.89690   0.01267  Uiso   1.00
C45    C     0.98210   0.31810   0.82270   0.01267  Uiso   1.00
C46    C     0.97840   0.41180   0.80530   0.01267  Uiso   1.00
C47    C     0.97110   0.46250   0.85990   0.01267  Uiso   1.00
C48    C     0.96920   0.41280   0.93430   0.01267  Uiso   1.00
C49    C     0.97320   0.31960   0.95210   0.01267  Uiso   1.00
C50    C     0.81787   0.03147   0.99970   0.01267  Uiso   1.00
C51    C     0.72370   0.02350   0.99900   0.01267  Uiso   1.00
C52    C     0.64440   0.05380   0.05440   0.01267  Uiso   1.00
C53    C     0.55720   0.04700   0.05410   0.01267  Uiso   1.00
C54    C     0.54620   0.00580   0.99970   0.01267  Uiso   1.00
C55    C     0.62450   0.97810   0.94260   0.01267  Uiso   1.00
C56    C     0.71050   0.98810   0.94260   0.01267  Uiso   1.00
C57    C     0.98534   0.84714   0.78720   0.01267  Uiso   1.00
C58    C     0.97610   0.75030   0.80460   0.01267  Uiso   1.00
C59    C     0.92510   0.71930   0.87360   0.01267  Uiso   1.00
C60    C     0.92050   0.62650   0.89120   0.01267  Uiso   1.00
C61    C     0.96710   0.56370   0.84120   0.01267  Uiso   1.00
C62    C     0.01670   0.59550   0.77110   0.01267  Uiso   1.00
C63    C     0.02220   0.68660   0.75360   0.01267  Uiso   1.00
C64    C     0.83330   0.00830   0.58450   0.01267  Uiso   1.00
C65    C     0.73040   0.01720   0.60310   0.01267  Uiso   1.00
C66    C     0.68190   0.01790   0.67730   0.01267  Uiso   1.00
C67    C     0.58820   0.02160   0.69470   0.01267  Uiso   1.00
C68    C     0.53750   0.02890   0.64010   0.01267  Uiso   1.00
C69    C     0.58720   0.03080   0.56570   0.01267  Uiso   1.00
C70    C     0.68040   0.02680   0.54790   0.01267  Uiso   1.00
C71    C     0.96853   0.18213   0.50030   0.01267  Uiso   1.00
C72    C     0.97650   0.27630   0.50100   0.01267  Uiso   1.00
C73    C     0.94620   0.35560   0.44560   0.01267  Uiso   1.00
C74    C     0.95300   0.44280   0.44590   0.01267  Uiso   1.00
C75    C     0.99420   0.45380   0.50030   0.01267  Uiso   1.00
C76    C     0.02190   0.37550   0.55740   0.01267  Uiso   1.00
C77    C     0.01190   0.28950   0.55740   0.01267  Uiso   1.00
C78    C     0.15286   0.01466   0.71280   0.01267  Uiso   1.00
C79    C     0.24970   0.02390   0.69540   0.01267  Uiso   1.00
C80    C     0.28070   0.07490   0.62640   0.01267  Uiso   1.00
C81    C     0.37350   0.07950   0.60880   0.01267  Uiso   1.00
C82    C     0.43630   0.03290   0.65880   0.01267  Uiso   1.00
C83    C     0.40450   0.98330   0.72890   0.01267  Uiso   1.00
C84    C     0.31340   0.97780   0.74640   0.01267  Uiso   1.00
O1     O     0.99061   0.87701   0.13760   0.01267  Uiso   1.00
O2     O     0.01114   0.87534   0.01700   0.01267  Uiso   1.00
O3     O     0.12262   0.97522   0.05980   0.01267  Uiso   1.00
O4     O     0.16943   0.95643   0.93930   0.01267  Uiso   1.00
O5     O     0.04066   0.10446   0.15960   0.01267  Uiso   1.00
O6     O     0.97721   0.12721   0.27910   0.01267  Uiso   1.00
O7     O     0.12299   0.00939   0.36240   0.01267  Uiso   1.00
O8     O     0.12466   0.98886   0.48300   0.01267  Uiso   1.00
O9     O     0.02478   0.87738   0.44020   0.01267  Uiso   1.00
O10    O     0.04357   0.83057   0.56070   0.01267  Uiso   1.00
O11    O     0.89554   0.95934   0.34040   0.01267  Uiso   1.00
O12    O     0.87279   0.02279   0.22090   0.01267  Uiso   1.00
O13    O     0.00939   0.12299   0.86240   0.01267  Uiso   1.00
O14    O     0.98886   0.12466   0.98300   0.01267  Uiso   1.00
O15    O     0.87738   0.02478   0.94020   0.01267  Uiso   1.00
O16    O     0.83057   0.04357   0.06070   0.01267  Uiso   1.00
O17    O     0.95934   0.89554   0.84040   0.01267  Uiso   1.00
O18    O     0.02279   0.87279   0.72090   0.01267  Uiso   1.00
O19    O     0.87701   0.99061   0.63760   0.01267  Uiso   1.00
O20    O     0.87534   0.01114   0.51700   0.01267  Uiso   1.00
O21    O     0.97522   0.12262   0.55980   0.01267  Uiso   1.00
O22    O     0.95643   0.16943   0.43930   0.01267  Uiso   1.00
O23    O     0.10446   0.04066   0.65960   0.01267  Uiso   1.00
O24    O     0.12721   0.97721   0.77910   0.01267  Uiso   1.00
