data_image0
_cell_length_a       15.165
_cell_length_b       26.907
_cell_length_c       23.715
_cell_angle_alpha    90
_cell_angle_beta     106.91
_cell_angle_gamma    90

_symmetry_space_group_name_H-M    "P 1"
_symmetry_int_tables_number       1

loop_
  _symmetry_equiv_pos_as_xyz
  'x, y, z'

loop_
  _atom_site_label
  _atom_site_occupancy
  _atom_site_fract_x
  _atom_site_fract_y
  _atom_site_fract_z
  _atom_site_thermal_displace_type
  _atom_site_B_iso_or_equiv
  _atom_site_type_symbol
  W1       1.0000 0.36878  0.62042  0.54343  Biso   1.000  W
  Cu1      1.0000 0.27167  0.55000  0.57722  Biso   1.000  Cu
  Cu2      1.0000 0.26015  0.65649  0.60510  Biso   1.000  Cu
  Cu3      1.0000 0.19231  0.62327  0.48064  Biso   1.000  Cu
  S1       1.0000 0.28350  0.55822  0.48705  Biso   1.000  S
  Cu4      1.0000 0.16079  0.76883  0.74164  Biso   1.000  Cu
  S2       1.0000 0.37164  0.60023  0.63817  Biso   1.000  S
  S3       1.0000 0.27451  0.68886  0.52167  Biso   1.000  S
  Cu5      1.0000 0.13589  0.39661  0.63495  Biso   1.000  Cu
  N1       1.0000 0.57560  0.58550  0.55400  Biso   1.000  N
  N2       1.0000 0.48520  0.67670  0.58560  Biso   1.000  N
  N3       1.0000 0.51160  0.64290  0.46950  Biso   1.000  N
  N4       1.0000 0.49270  0.56850  0.55780  Biso   1.000  N
  C1       1.0000 0.06930  0.61990  0.43100  Biso   1.000  C
  N5       1.0000 0.21660  0.49180  0.59810  Biso   1.000  N
  C2       1.0000 0.18450  0.45600  0.61140  Biso   1.000  C
  N6       1.0000 0.41850  0.63950  0.46400  Biso   1.000  N
  N7       1.0000 0.56750  0.67610  0.57120  Biso   1.000  N
  N8       1.0000 0.24160  0.82080  0.78420  Biso   1.000  N
  N9       1.0000 0.99500  0.61360  0.40330  Biso   1.000  N
  N10      1.0000 0.19790  0.72180  0.69210  Biso   1.000  N
  C3       1.0000 0.21900  0.69520  0.65910  Biso   1.000  C
  C4       1.0000 0.64240  0.55130  0.57300  Biso   1.000  C
  C5       1.0000 0.28930  0.85070  0.81250  Biso   1.000  C
  C6       1.0000 0.60130  0.50930  0.58790  Biso   1.000  C
  H1       1.0000 0.62990  0.47910  0.60110  Biso   1.000  H
  C7       1.0000 0.50930  0.52080  0.57900  Biso   1.000  C
  C8       1.0000 0.62390  0.71210  0.60150  Biso   1.000  C
  C9       1.0000 0.52340  0.65160  0.41620  Biso   1.000  C
  C10      1.0000 0.44040  0.48600  0.59000  Biso   1.000  C
  H2       1.0000 0.41460  0.49990  0.61890  Biso   1.000  H
  H3       1.0000 0.46970  0.45490  0.60410  Biso   1.000  H
  H4       1.0000 0.39230  0.48050  0.55390  Biso   1.000  H
  C11      1.0000 0.37380  0.64700  0.40670  Biso   1.000  C
  C12      1.0000 0.43780  0.65540  0.37610  Biso   1.000  C
  H5       1.0000 0.42510  0.66230  0.33610  Biso   1.000  H
  C13      1.0000 0.49380  0.71450  0.62480  Biso   1.000  C
  C14      1.0000 0.74080  0.55890  0.57500  Biso   1.000  C
  H6       1.0000 0.74520  0.56170  0.53550  Biso   1.000  H
  H7       1.0000 0.77680  0.53100  0.59420  Biso   1.000  H
  H8       1.0000 0.76360  0.58870  0.59640  Biso   1.000  H
  C15      1.0000 0.42290  0.73040  0.65440  Biso   1.000  C
  H9       1.0000 0.37160  0.74550  0.62580  Biso   1.000  H
  H10      1.0000 0.44990  0.75400  0.68490  Biso   1.000  H
  H11      1.0000 0.40200  0.70190  0.67120  Biso   1.000  H
  C16      1.0000 0.03730  0.76840  0.74790  Biso   1.000  C
  B1       1.0000 0.58440  0.63760  0.52860  Biso   1.000  B
  C17      1.0000 0.27180  0.64910  0.37960  Biso   1.000  C
  H12      1.0000 0.24650  0.61630  0.37830  Biso   1.000  H
  H13      1.0000 0.25830  0.66200  0.34020  Biso   1.000  H
  H14      1.0000 0.24500  0.67030  0.40270  Biso   1.000  H
  C18      1.0000 0.57910  0.73560  0.63520  Biso   1.000  C
  H15      1.0000 0.60210  0.76170  0.66100  Biso   1.000  H
  C19      1.0000 0.61580  0.65960  0.40720  Biso   1.000  C
  H16      1.0000 0.64220  0.68980  0.42640  Biso   1.000  H
  H17      1.0000 0.60920  0.66210  0.36580  Biso   1.000  H
  H18      1.0000 0.65540  0.63220  0.42350  Biso   1.000  H
  C20      1.0000 0.71790  0.72100  0.59380  Biso   1.000  C
  H19      1.0000 0.73870  0.75370  0.60750  Biso   1.000  H
  H20      1.0000 0.71450  0.71800  0.55290  Biso   1.000  H
  H21      1.0000 0.76050  0.69680  0.61620  Biso   1.000  H
  W2       1.0000 0.86878  0.12042  0.54343  Biso   1.000  W
  Cu6      1.0000 0.77167  0.05000  0.57722  Biso   1.000  Cu
  Cu7      1.0000 0.76015  0.15649  0.60510  Biso   1.000  Cu
  Cu8      1.0000 0.69231  0.12327  0.48064  Biso   1.000  Cu
  S4       1.0000 0.78350  0.05822  0.48705  Biso   1.000  S
  Cu9      1.0000 0.66079  0.26883  0.74164  Biso   1.000  Cu
  S5       1.0000 0.87164  0.10023  0.63817  Biso   1.000  S
  S6       1.0000 0.77451  0.18886  0.52167  Biso   1.000  S
  Cu10     1.0000 0.63589  0.89661  0.63495  Biso   1.000  Cu
  N11      1.0000 0.07560  0.08550  0.55400  Biso   1.000  N
  N12      1.0000 0.98520  0.17670  0.58560  Biso   1.000  N
  N13      1.0000 0.01160  0.14290  0.46950  Biso   1.000  N
  N14      1.0000 0.99270  0.06850  0.55780  Biso   1.000  N
  C21      1.0000 0.56930  0.11990  0.43100  Biso   1.000  C
  N15      1.0000 0.71660  0.99180  0.59810  Biso   1.000  N
  C22      1.0000 0.68450  0.95600  0.61140  Biso   1.000  C
  N16      1.0000 0.91850  0.13950  0.46400  Biso   1.000  N
  N17      1.0000 0.06750  0.17610  0.57120  Biso   1.000  N
  N18      1.0000 0.74160  0.32080  0.78420  Biso   1.000  N
  N19      1.0000 0.49500  0.11360  0.40330  Biso   1.000  N
  N20      1.0000 0.69790  0.22180  0.69210  Biso   1.000  N
  C23      1.0000 0.71900  0.19520  0.65910  Biso   1.000  C
  C24      1.0000 0.14240  0.05130  0.57300  Biso   1.000  C
  C25      1.0000 0.78930  0.35070  0.81250  Biso   1.000  C
  C26      1.0000 0.10130  0.00930  0.58790  Biso   1.000  C
  H22      1.0000 0.12990  0.97910  0.60110  Biso   1.000  H
  C27      1.0000 0.00930  0.02080  0.57900  Biso   1.000  C
  C28      1.0000 0.12390  0.21210  0.60150  Biso   1.000  C
  C29      1.0000 0.02340  0.15160  0.41620  Biso   1.000  C
  C30      1.0000 0.94040  0.98600  0.59000  Biso   1.000  C
  H23      1.0000 0.91460  0.99990  0.61890  Biso   1.000  H
  H24      1.0000 0.96970  0.95490  0.60410  Biso   1.000  H
  H25      1.0000 0.89230  0.98050  0.55390  Biso   1.000  H
  C31      1.0000 0.87380  0.14700  0.40670  Biso   1.000  C
  C32      1.0000 0.93780  0.15540  0.37610  Biso   1.000  C
  H26      1.0000 0.92510  0.16230  0.33610  Biso   1.000  H
  C33      1.0000 0.99380  0.21450  0.62480  Biso   1.000  C
  C34      1.0000 0.24080  0.05890  0.57500  Biso   1.000  C
  H27      1.0000 0.24520  0.06170  0.53550  Biso   1.000  H
  H28      1.0000 0.27680  0.03100  0.59420  Biso   1.000  H
  H29      1.0000 0.26360  0.08870  0.59640  Biso   1.000  H
  C35      1.0000 0.92290  0.23040  0.65440  Biso   1.000  C
  H30      1.0000 0.87160  0.24550  0.62580  Biso   1.000  H
  H31      1.0000 0.94990  0.25400  0.68490  Biso   1.000  H
  H32      1.0000 0.90200  0.20190  0.67120  Biso   1.000  H
  C36      1.0000 0.53730  0.26840  0.74790  Biso   1.000  C
  B2       1.0000 0.08440  0.13760  0.52860  Biso   1.000  B
  C37      1.0000 0.77180  0.14910  0.37960  Biso   1.000  C
  H33      1.0000 0.74650  0.11630  0.37830  Biso   1.000  H
  H34      1.0000 0.75830  0.16200  0.34020  Biso   1.000  H
  H35      1.0000 0.74500  0.17030  0.40270  Biso   1.000  H
  C38      1.0000 0.07910  0.23560  0.63520  Biso   1.000  C
  H36      1.0000 0.10210  0.26170  0.66100  Biso   1.000  H
  C39      1.0000 0.11580  0.15960  0.40720  Biso   1.000  C
  H37      1.0000 0.14220  0.18980  0.42640  Biso   1.000  H
  H38      1.0000 0.10920  0.16210  0.36580  Biso   1.000  H
  H39      1.0000 0.15540  0.13220  0.42350  Biso   1.000  H
  C40      1.0000 0.21790  0.22100  0.59380  Biso   1.000  C
  H40      1.0000 0.23870  0.25370  0.60750  Biso   1.000  H
  H41      1.0000 0.21450  0.21800  0.55290  Biso   1.000  H
  H42      1.0000 0.26050  0.19680  0.61620  Biso   1.000  H
  W3       1.0000 0.63122  0.62042  0.95657  Biso   1.000  W
  Cu11     1.0000 0.72833  0.55000  0.92278  Biso   1.000  Cu
  Cu12     1.0000 0.73985  0.65649  0.89490  Biso   1.000  Cu
  Cu13     1.0000 0.80769  0.62327  0.01936  Biso   1.000  Cu
  S7       1.0000 0.71650  0.55822  0.01295  Biso   1.000  S
  Cu14     1.0000 0.83921  0.76883  0.75836  Biso   1.000  Cu
  S8       1.0000 0.62836  0.60023  0.86183  Biso   1.000  S
  S9       1.0000 0.72549  0.68886  0.97833  Biso   1.000  S
  Cu15     1.0000 0.86411  0.39661  0.86505  Biso   1.000  Cu
  N21      1.0000 0.42440  0.58550  0.94600  Biso   1.000  N
  N22      1.0000 0.51480  0.67670  0.91440  Biso   1.000  N
  N23      1.0000 0.48840  0.64290  0.03050  Biso   1.000  N
  N24      1.0000 0.50730  0.56850  0.94220  Biso   1.000  N
  C41      1.0000 0.93070  0.61990  0.06900  Biso   1.000  C
  N25      1.0000 0.78340  0.49180  0.90190  Biso   1.000  N
  C42      1.0000 0.81550  0.45600  0.88860  Biso   1.000  C
  N26      1.0000 0.58150  0.63950  0.03600  Biso   1.000  N
  N27      1.0000 0.43250  0.67610  0.92880  Biso   1.000  N
  N28      1.0000 0.75840  0.82080  0.71580  Biso   1.000  N
  N29      1.0000 0.00500  0.61360  0.09670  Biso   1.000  N
  N30      1.0000 0.80210  0.72180  0.80790  Biso   1.000  N
  C43      1.0000 0.78100  0.69520  0.84090  Biso   1.000  C
  C44      1.0000 0.35760  0.55130  0.92700  Biso   1.000  C
  C45      1.0000 0.71070  0.85070  0.68750  Biso   1.000  C
  C46      1.0000 0.39870  0.50930  0.91210  Biso   1.000  C
  H43      1.0000 0.37010  0.47910  0.89890  Biso   1.000  H
  C47      1.0000 0.49070  0.52080  0.92100  Biso   1.000  C
  C48      1.0000 0.37610  0.71210  0.89850  Biso   1.000  C
  C49      1.0000 0.47660  0.65160  0.08380  Biso   1.000  C
  C50      1.0000 0.55960  0.48600  0.91000  Biso   1.000  C
  H44      1.0000 0.58540  0.49990  0.88110  Biso   1.000  H
  H45      1.0000 0.53030  0.45490  0.89590  Biso   1.000  H
  H46      1.0000 0.60770  0.48050  0.94610  Biso   1.000  H
  C51      1.0000 0.62620  0.64700  0.09330  Biso   1.000  C
  C52      1.0000 0.56220  0.65540  0.12390  Biso   1.000  C
  H47      1.0000 0.57490  0.66230  0.16390  Biso   1.000  H
  C53      1.0000 0.50620  0.71450  0.87520  Biso   1.000  C
  C54      1.0000 0.25920  0.55890  0.92500  Biso   1.000  C
  H48      1.0000 0.25480  0.56170  0.96450  Biso   1.000  H
  H49      1.0000 0.22320  0.53100  0.90580  Biso   1.000  H
  H50      1.0000 0.23640  0.58870  0.90360  Biso   1.000  H
  C55      1.0000 0.57710  0.73040  0.84560  Biso   1.000  C
  H51      1.0000 0.62840  0.74550  0.87420  Biso   1.000  H
  H52      1.0000 0.55010  0.75400  0.81510  Biso   1.000  H
  H53      1.0000 0.59800  0.70190  0.82880  Biso   1.000  H
  C56      1.0000 0.96270  0.76840  0.75210  Biso   1.000  C
  B3       1.0000 0.41560  0.63760  0.97140  Biso   1.000  B
  C57      1.0000 0.72820  0.64910  0.12040  Biso   1.000  C
  H54      1.0000 0.75350  0.61630  0.12170  Biso   1.000  H
  H55      1.0000 0.74170  0.66200  0.15980  Biso   1.000  H
  H56      1.0000 0.75500  0.67030  0.09730  Biso   1.000  H
  C58      1.0000 0.42090  0.73560  0.86480  Biso   1.000  C
  H57      1.0000 0.39790  0.76170  0.83900  Biso   1.000  H
  C59      1.0000 0.38420  0.65960  0.09280  Biso   1.000  C
  H58      1.0000 0.35780  0.68980  0.07360  Biso   1.000  H
  H59      1.0000 0.39080  0.66210  0.13420  Biso   1.000  H
  H60      1.0000 0.34460  0.63220  0.07650  Biso   1.000  H
  C60      1.0000 0.28210  0.72100  0.90620  Biso   1.000  C
  H61      1.0000 0.26130  0.75370  0.89250  Biso   1.000  H
  H62      1.0000 0.28550  0.71800  0.94710  Biso   1.000  H
  H63      1.0000 0.23950  0.69680  0.88380  Biso   1.000  H
  W4       1.0000 0.13122  0.12042  0.95657  Biso   1.000  W
  Cu16     1.0000 0.22833  0.05000  0.92278  Biso   1.000  Cu
  Cu17     1.0000 0.23985  0.15649  0.89490  Biso   1.000  Cu
  Cu18     1.0000 0.30769  0.12327  0.01936  Biso   1.000  Cu
  S10      1.0000 0.21650  0.05822  0.01295  Biso   1.000  S
  Cu19     1.0000 0.33921  0.26883  0.75836  Biso   1.000  Cu
  S11      1.0000 0.12836  0.10023  0.86183  Biso   1.000  S
  S12      1.0000 0.22549  0.18886  0.97833  Biso   1.000  S
  Cu20     1.0000 0.36411  0.89661  0.86505  Biso   1.000  Cu
  N31      1.0000 0.92440  0.08550  0.94600  Biso   1.000  N
  N32      1.0000 0.01480  0.17670  0.91440  Biso   1.000  N
  N33      1.0000 0.98840  0.14290  0.03050  Biso   1.000  N
  N34      1.0000 0.00730  0.06850  0.94220  Biso   1.000  N
  C61      1.0000 0.43070  0.11990  0.06900  Biso   1.000  C
  N35      1.0000 0.28340  0.99180  0.90190  Biso   1.000  N
  C62      1.0000 0.31550  0.95600  0.88860  Biso   1.000  C
  N36      1.0000 0.08150  0.13950  0.03600  Biso   1.000  N
  N37      1.0000 0.93250  0.17610  0.92880  Biso   1.000  N
  N38      1.0000 0.25840  0.32080  0.71580  Biso   1.000  N
  N39      1.0000 0.50500  0.11360  0.09670  Biso   1.000  N
  N40      1.0000 0.30210  0.22180  0.80790  Biso   1.000  N
  C63      1.0000 0.28100  0.19520  0.84090  Biso   1.000  C
  C64      1.0000 0.85760  0.05130  0.92700  Biso   1.000  C
  C65      1.0000 0.21070  0.35070  0.68750  Biso   1.000  C
  C66      1.0000 0.89870  0.00930  0.91210  Biso   1.000  C
  H64      1.0000 0.87010  0.97910  0.89890  Biso   1.000  H
  C67      1.0000 0.99070  0.02080  0.92100  Biso   1.000  C
  C68      1.0000 0.87610  0.21210  0.89850  Biso   1.000  C
  C69      1.0000 0.97660  0.15160  0.08380  Biso   1.000  C
  C70      1.0000 0.05960  0.98600  0.91000  Biso   1.000  C
  H65      1.0000 0.08540  0.99990  0.88110  Biso   1.000  H
  H66      1.0000 0.03030  0.95490  0.89590  Biso   1.000  H
  H67      1.0000 0.10770  0.98050  0.94610  Biso   1.000  H
  C71      1.0000 0.12620  0.14700  0.09330  Biso   1.000  C
  C72      1.0000 0.06220  0.15540  0.12390  Biso   1.000  C
  H68      1.0000 0.07490  0.16230  0.16390  Biso   1.000  H
  C73      1.0000 0.00620  0.21450  0.87520  Biso   1.000  C
  C74      1.0000 0.75920  0.05890  0.92500  Biso   1.000  C
  H69      1.0000 0.75480  0.06170  0.96450  Biso   1.000  H
  H70      1.0000 0.72320  0.03100  0.90580  Biso   1.000  H
  H71      1.0000 0.73640  0.08870  0.90360  Biso   1.000  H
  C75      1.0000 0.07710  0.23040  0.84560  Biso   1.000  C
  H72      1.0000 0.12840  0.24550  0.87420  Biso   1.000  H
  H73      1.0000 0.05010  0.25400  0.81510  Biso   1.000  H
  H74      1.0000 0.09800  0.20190  0.82880  Biso   1.000  H
  C76      1.0000 0.46270  0.26840  0.75210  Biso   1.000  C
  B4       1.0000 0.91560  0.13760  0.97140  Biso   1.000  B
  C77      1.0000 0.22820  0.14910  0.12040  Biso   1.000  C
  H75      1.0000 0.25350  0.11630  0.12170  Biso   1.000  H
  H76      1.0000 0.24170  0.16200  0.15980  Biso   1.000  H
  H77      1.0000 0.25500  0.17030  0.09730  Biso   1.000  H
  C78      1.0000 0.92090  0.23560  0.86480  Biso   1.000  C
  H78      1.0000 0.89790  0.26170  0.83900  Biso   1.000  H
  C79      1.0000 0.88420  0.15960  0.09280  Biso   1.000  C
  H79      1.0000 0.85780  0.18980  0.07360  Biso   1.000  H
  H80      1.0000 0.89080  0.16210  0.13420  Biso   1.000  H
  H81      1.0000 0.84460  0.13220  0.07650  Biso   1.000  H
  C80      1.0000 0.78210  0.22100  0.90620  Biso   1.000  C
  H82      1.0000 0.76130  0.25370  0.89250  Biso   1.000  H
  H83      1.0000 0.78550  0.21800  0.94710  Biso   1.000  H
  H84      1.0000 0.73950  0.19680  0.88380  Biso   1.000  H
  W5       1.0000 0.63122  0.37958  0.45657  Biso   1.000  W
  Cu21     1.0000 0.72833  0.45000  0.42278  Biso   1.000  Cu
  Cu22     1.0000 0.73985  0.34351  0.39490  Biso   1.000  Cu
  Cu23     1.0000 0.80769  0.37673  0.51936  Biso   1.000  Cu
  S13      1.0000 0.71650  0.44178  0.51295  Biso   1.000  S
  Cu24     1.0000 0.83921  0.23117  0.25836  Biso   1.000  Cu
  S14      1.0000 0.62836  0.39977  0.36183  Biso   1.000  S
  S15      1.0000 0.72549  0.31114  0.47833  Biso   1.000  S
  Cu25     1.0000 0.86411  0.60339  0.36505  Biso   1.000  Cu
  N41      1.0000 0.42440  0.41450  0.44600  Biso   1.000  N
  N42      1.0000 0.51480  0.32330  0.41440  Biso   1.000  N
  N43      1.0000 0.48840  0.35710  0.53050  Biso   1.000  N
  N44      1.0000 0.50730  0.43150  0.44220  Biso   1.000  N
  C81      1.0000 0.93070  0.38010  0.56900  Biso   1.000  C
  N45      1.0000 0.78340  0.50820  0.40190  Biso   1.000  N
  C82      1.0000 0.81550  0.54400  0.38860  Biso   1.000  C
  N46      1.0000 0.58150  0.36050  0.53600  Biso   1.000  N
  N47      1.0000 0.43250  0.32390  0.42880  Biso   1.000  N
  N48      1.0000 0.75840  0.17920  0.21580  Biso   1.000  N
  N49      1.0000 0.00500  0.38640  0.59670  Biso   1.000  N
  N50      1.0000 0.80210  0.27820  0.30790  Biso   1.000  N
  C83      1.0000 0.78100  0.30480  0.34090  Biso   1.000  C
  C84      1.0000 0.35760  0.44870  0.42700  Biso   1.000  C
  C85      1.0000 0.71070  0.14930  0.18750  Biso   1.000  C
  C86      1.0000 0.39870  0.49070  0.41210  Biso   1.000  C
  H85      1.0000 0.37010  0.52090  0.39890  Biso   1.000  H
  C87      1.0000 0.49070  0.47920  0.42100  Biso   1.000  C
  C88      1.0000 0.37610  0.28790  0.39850  Biso   1.000  C
  C89      1.0000 0.47660  0.34840  0.58380  Biso   1.000  C
  C90      1.0000 0.55960  0.51400  0.41000  Biso   1.000  C
  H86      1.0000 0.58540  0.50010  0.38110  Biso   1.000  H
  H87      1.0000 0.53030  0.54510  0.39590  Biso   1.000  H
  H88      1.0000 0.60770  0.51950  0.44610  Biso   1.000  H
  C91      1.0000 0.62620  0.35300  0.59330  Biso   1.000  C
  C92      1.0000 0.56220  0.34460  0.62390  Biso   1.000  C
  H89      1.0000 0.57490  0.33770  0.66390  Biso   1.000  H
  C93      1.0000 0.50620  0.28550  0.37520  Biso   1.000  C
  C94      1.0000 0.25920  0.44110  0.42500  Biso   1.000  C
  H90      1.0000 0.25480  0.43830  0.46450  Biso   1.000  H
  H91      1.0000 0.22320  0.46900  0.40580  Biso   1.000  H
  H92      1.0000 0.23640  0.41130  0.40360  Biso   1.000  H
  C95      1.0000 0.57710  0.26960  0.34560  Biso   1.000  C
  H93      1.0000 0.62840  0.25450  0.37420  Biso   1.000  H
  H94      1.0000 0.55010  0.24600  0.31510  Biso   1.000  H
  H95      1.0000 0.59800  0.29810  0.32880  Biso   1.000  H
  C96      1.0000 0.96270  0.23160  0.25210  Biso   1.000  C
  B5       1.0000 0.41560  0.36240  0.47140  Biso   1.000  B
  C97      1.0000 0.72820  0.35090  0.62040  Biso   1.000  C
  H96      1.0000 0.75350  0.38370  0.62170  Biso   1.000  H
  H97      1.0000 0.74170  0.33800  0.65980  Biso   1.000  H
  H98      1.0000 0.75500  0.32970  0.59730  Biso   1.000  H
  C98      1.0000 0.42090  0.26440  0.36480  Biso   1.000  C
  H99      1.0000 0.39790  0.23830  0.33900  Biso   1.000  H
  C99      1.0000 0.38420  0.34040  0.59280  Biso   1.000  C
  H100     1.0000 0.35780  0.31020  0.57360  Biso   1.000  H
  H101     1.0000 0.39080  0.33790  0.63420  Biso   1.000  H
  H102     1.0000 0.34460  0.36780  0.57650  Biso   1.000  H
  C100     1.0000 0.28210  0.27900  0.40620  Biso   1.000  C
  H103     1.0000 0.26130  0.24630  0.39250  Biso   1.000  H
  H104     1.0000 0.28550  0.28200  0.44710  Biso   1.000  H
  H105     1.0000 0.23950  0.30320  0.38380  Biso   1.000  H
  W6       1.0000 0.13122  0.87958  0.45657  Biso   1.000  W
  Cu26     1.0000 0.22833  0.95000  0.42278  Biso   1.000  Cu
  Cu27     1.0000 0.23985  0.84351  0.39490  Biso   1.000  Cu
  Cu28     1.0000 0.30769  0.87673  0.51936  Biso   1.000  Cu
  S16      1.0000 0.21650  0.94178  0.51295  Biso   1.000  S
  Cu29     1.0000 0.33921  0.73117  0.25836  Biso   1.000  Cu
  S17      1.0000 0.12836  0.89977  0.36183  Biso   1.000  S
  S18      1.0000 0.22549  0.81114  0.47833  Biso   1.000  S
  Cu30     1.0000 0.36411  0.10339  0.36505  Biso   1.000  Cu
  N51      1.0000 0.92440  0.91450  0.44600  Biso   1.000  N
  N52      1.0000 0.01480  0.82330  0.41440  Biso   1.000  N
  N53      1.0000 0.98840  0.85710  0.53050  Biso   1.000  N
  N54      1.0000 0.00730  0.93150  0.44220  Biso   1.000  N
  C101     1.0000 0.43070  0.88010  0.56900  Biso   1.000  C
  N55      1.0000 0.28340  0.00820  0.40190  Biso   1.000  N
  C102     1.0000 0.31550  0.04400  0.38860  Biso   1.000  C
  N56      1.0000 0.08150  0.86050  0.53600  Biso   1.000  N
  N57      1.0000 0.93250  0.82390  0.42880  Biso   1.000  N
  N58      1.0000 0.25840  0.67920  0.21580  Biso   1.000  N
  N59      1.0000 0.50500  0.88640  0.59670  Biso   1.000  N
  N60      1.0000 0.30210  0.77820  0.30790  Biso   1.000  N
  C103     1.0000 0.28100  0.80480  0.34090  Biso   1.000  C
  C104     1.0000 0.85760  0.94870  0.42700  Biso   1.000  C
  C105     1.0000 0.21070  0.64930  0.18750  Biso   1.000  C
  C106     1.0000 0.89870  0.99070  0.41210  Biso   1.000  C
  H106     1.0000 0.87010  0.02090  0.39890  Biso   1.000  H
  C107     1.0000 0.99070  0.97920  0.42100  Biso   1.000  C
  C108     1.0000 0.87610  0.78790  0.39850  Biso   1.000  C
  C109     1.0000 0.97660  0.84840  0.58380  Biso   1.000  C
  C110     1.0000 0.05960  0.01400  0.41000  Biso   1.000  C
  H107     1.0000 0.08540  0.00010  0.38110  Biso   1.000  H
  H108     1.0000 0.03030  0.04510  0.39590  Biso   1.000  H
  H109     1.0000 0.10770  0.01950  0.44610  Biso   1.000  H
  C111     1.0000 0.12620  0.85300  0.59330  Biso   1.000  C
  C112     1.0000 0.06220  0.84460  0.62390  Biso   1.000  C
  H110     1.0000 0.07490  0.83770  0.66390  Biso   1.000  H
  C113     1.0000 0.00620  0.78550  0.37520  Biso   1.000  C
  C114     1.0000 0.75920  0.94110  0.42500  Biso   1.000  C
  H111     1.0000 0.75480  0.93830  0.46450  Biso   1.000  H
  H112     1.0000 0.72320  0.96900  0.40580  Biso   1.000  H
  H113     1.0000 0.73640  0.91130  0.40360  Biso   1.000  H
  C115     1.0000 0.07710  0.76960  0.34560  Biso   1.000  C
  H114     1.0000 0.12840  0.75450  0.37420  Biso   1.000  H
  H115     1.0000 0.05010  0.74600  0.31510  Biso   1.000  H
  H116     1.0000 0.09800  0.79810  0.32880  Biso   1.000  H
  C116     1.0000 0.46270  0.73160  0.25210  Biso   1.000  C
  B6       1.0000 0.91560  0.86240  0.47140  Biso   1.000  B
  C117     1.0000 0.22820  0.85090  0.62040  Biso   1.000  C
  H117     1.0000 0.25350  0.88370  0.62170  Biso   1.000  H
  H118     1.0000 0.24170  0.83800  0.65980  Biso   1.000  H
  H119     1.0000 0.25500  0.82970  0.59730  Biso   1.000  H
  C118     1.0000 0.92090  0.76440  0.36480  Biso   1.000  C
  H120     1.0000 0.89790  0.73830  0.33900  Biso   1.000  H
  C119     1.0000 0.88420  0.84040  0.59280  Biso   1.000  C
  H121     1.0000 0.85780  0.81020  0.57360  Biso   1.000  H
  H122     1.0000 0.89080  0.83790  0.63420  Biso   1.000  H
  H123     1.0000 0.84460  0.86780  0.57650  Biso   1.000  H
  C120     1.0000 0.78210  0.77900  0.40620  Biso   1.000  C
  H124     1.0000 0.76130  0.74630  0.39250  Biso   1.000  H
  H125     1.0000 0.78550  0.78200  0.44710  Biso   1.000  H
  H126     1.0000 0.73950  0.80320  0.38380  Biso   1.000  H
  W7       1.0000 0.36878  0.37958  0.04343  Biso   1.000  W
  Cu31     1.0000 0.27167  0.45000  0.07722  Biso   1.000  Cu
  Cu32     1.0000 0.26015  0.34351  0.10510  Biso   1.000  Cu
  Cu33     1.0000 0.19231  0.37673  0.98064  Biso   1.000  Cu
  S19      1.0000 0.28350  0.44178  0.98705  Biso   1.000  S
  Cu34     1.0000 0.16079  0.23117  0.24164  Biso   1.000  Cu
  S20      1.0000 0.37164  0.39977  0.13817  Biso   1.000  S
  S21      1.0000 0.27451  0.31114  0.02167  Biso   1.000  S
  Cu35     1.0000 0.13589  0.60339  0.13495  Biso   1.000  Cu
  N61      1.0000 0.57560  0.41450  0.05400  Biso   1.000  N
  N62      1.0000 0.48520  0.32330  0.08560  Biso   1.000  N
  N63      1.0000 0.51160  0.35710  0.96950  Biso   1.000  N
  N64      1.0000 0.49270  0.43150  0.05780  Biso   1.000  N
  C121     1.0000 0.06930  0.38010  0.93100  Biso   1.000  C
  N65      1.0000 0.21660  0.50820  0.09810  Biso   1.000  N
  C122     1.0000 0.18450  0.54400  0.11140  Biso   1.000  C
  N66      1.0000 0.41850  0.36050  0.96400  Biso   1.000  N
  N67      1.0000 0.56750  0.32390  0.07120  Biso   1.000  N
  N68      1.0000 0.24160  0.17920  0.28420  Biso   1.000  N
  N69      1.0000 0.99500  0.38640  0.90330  Biso   1.000  N
  N70      1.0000 0.19790  0.27820  0.19210  Biso   1.000  N
  C123     1.0000 0.21900  0.30480  0.15910  Biso   1.000  C
  C124     1.0000 0.64240  0.44870  0.07300  Biso   1.000  C
  C125     1.0000 0.28930  0.14930  0.31250  Biso   1.000  C
  C126     1.0000 0.60130  0.49070  0.08790  Biso   1.000  C
  H127     1.0000 0.62990  0.52090  0.10110  Biso   1.000  H
  C127     1.0000 0.50930  0.47920  0.07900  Biso   1.000  C
  C128     1.0000 0.62390  0.28790  0.10150  Biso   1.000  C
  C129     1.0000 0.52340  0.34840  0.91620  Biso   1.000  C
  C130     1.0000 0.44040  0.51400  0.09000  Biso   1.000  C
  H128     1.0000 0.41460  0.50010  0.11890  Biso   1.000  H
  H129     1.0000 0.46970  0.54510  0.10410  Biso   1.000  H
  H130     1.0000 0.39230  0.51950  0.05390  Biso   1.000  H
  C131     1.0000 0.37380  0.35300  0.90670  Biso   1.000  C
  C132     1.0000 0.43780  0.34460  0.87610  Biso   1.000  C
  H131     1.0000 0.42510  0.33770  0.83610  Biso   1.000  H
  C133     1.0000 0.49380  0.28550  0.12480  Biso   1.000  C
  C134     1.0000 0.74080  0.44110  0.07500  Biso   1.000  C
  H132     1.0000 0.74520  0.43830  0.03550  Biso   1.000  H
  H133     1.0000 0.77680  0.46900  0.09420  Biso   1.000  H
  H134     1.0000 0.76360  0.41130  0.09640  Biso   1.000  H
  C135     1.0000 0.42290  0.26960  0.15440  Biso   1.000  C
  H135     1.0000 0.37160  0.25450  0.12580  Biso   1.000  H
  H136     1.0000 0.44990  0.24600  0.18490  Biso   1.000  H
  H137     1.0000 0.40200  0.29810  0.17120  Biso   1.000  H
  C136     1.0000 0.03730  0.23160  0.24790  Biso   1.000  C
  B7       1.0000 0.58440  0.36240  0.02860  Biso   1.000  B
  C137     1.0000 0.27180  0.35090  0.87960  Biso   1.000  C
  H138     1.0000 0.24650  0.38370  0.87830  Biso   1.000  H
  H139     1.0000 0.25830  0.33800  0.84020  Biso   1.000  H
  H140     1.0000 0.24500  0.32970  0.90270  Biso   1.000  H
  C138     1.0000 0.57910  0.26440  0.13520  Biso   1.000  C
  H141     1.0000 0.60210  0.23830  0.16100  Biso   1.000  H
  C139     1.0000 0.61580  0.34040  0.90720  Biso   1.000  C
  H142     1.0000 0.64220  0.31020  0.92640  Biso   1.000  H
  H143     1.0000 0.60920  0.33790  0.86580  Biso   1.000  H
  H144     1.0000 0.65540  0.36780  0.92350  Biso   1.000  H
  C140     1.0000 0.71790  0.27900  0.09380  Biso   1.000  C
  H145     1.0000 0.73870  0.24630  0.10750  Biso   1.000  H
  H146     1.0000 0.71450  0.28200  0.05290  Biso   1.000  H
  H147     1.0000 0.76050  0.30320  0.11620  Biso   1.000  H
  W8       1.0000 0.86878  0.87958  0.04343  Biso   1.000  W
  Cu36     1.0000 0.77167  0.95000  0.07722  Biso   1.000  Cu
  Cu37     1.0000 0.76015  0.84351  0.10510  Biso   1.000  Cu
  Cu38     1.0000 0.69231  0.87673  0.98064  Biso   1.000  Cu
  S22      1.0000 0.78350  0.94178  0.98705  Biso   1.000  S
  Cu39     1.0000 0.66079  0.73117  0.24164  Biso   1.000  Cu
  S23      1.0000 0.87164  0.89977  0.13817  Biso   1.000  S
  S24      1.0000 0.77451  0.81114  0.02167  Biso   1.000  S
  Cu40     1.0000 0.63589  0.10339  0.13495  Biso   1.000  Cu
  N71      1.0000 0.07560  0.91450  0.05400  Biso   1.000  N
  N72      1.0000 0.98520  0.82330  0.08560  Biso   1.000  N
  N73      1.0000 0.01160  0.85710  0.96950  Biso   1.000  N
  N74      1.0000 0.99270  0.93150  0.05780  Biso   1.000  N
  C141     1.0000 0.56930  0.88010  0.93100  Biso   1.000  C
  N75      1.0000 0.71660  0.00820  0.09810  Biso   1.000  N
  C142     1.0000 0.68450  0.04400  0.11140  Biso   1.000  C
  N76      1.0000 0.91850  0.86050  0.96400  Biso   1.000  N
  N77      1.0000 0.06750  0.82390  0.07120  Biso   1.000  N
  N78      1.0000 0.74160  0.67920  0.28420  Biso   1.000  N
  N79      1.0000 0.49500  0.88640  0.90330  Biso   1.000  N
  N80      1.0000 0.69790  0.77820  0.19210  Biso   1.000  N
  C143     1.0000 0.71900  0.80480  0.15910  Biso   1.000  C
  C144     1.0000 0.14240  0.94870  0.07300  Biso   1.000  C
  C145     1.0000 0.78930  0.64930  0.31250  Biso   1.000  C
  C146     1.0000 0.10130  0.99070  0.08790  Biso   1.000  C
  H148     1.0000 0.12990  0.02090  0.10110  Biso   1.000  H
  C147     1.0000 0.00930  0.97920  0.07900  Biso   1.000  C
  C148     1.0000 0.12390  0.78790  0.10150  Biso   1.000  C
  C149     1.0000 0.02340  0.84840  0.91620  Biso   1.000  C
  C150     1.0000 0.94040  0.01400  0.09000  Biso   1.000  C
  H149     1.0000 0.91460  0.00010  0.11890  Biso   1.000  H
  H150     1.0000 0.96970  0.04510  0.10410  Biso   1.000  H
  H151     1.0000 0.89230  0.01950  0.05390  Biso   1.000  H
  C151     1.0000 0.87380  0.85300  0.90670  Biso   1.000  C
  C152     1.0000 0.93780  0.84460  0.87610  Biso   1.000  C
  H152     1.0000 0.92510  0.83770  0.83610  Biso   1.000  H
  C153     1.0000 0.99380  0.78550  0.12480  Biso   1.000  C
  C154     1.0000 0.24080  0.94110  0.07500  Biso   1.000  C
  H153     1.0000 0.24520  0.93830  0.03550  Biso   1.000  H
  H154     1.0000 0.27680  0.96900  0.09420  Biso   1.000  H
  H155     1.0000 0.26360  0.91130  0.09640  Biso   1.000  H
  C155     1.0000 0.92290  0.76960  0.15440  Biso   1.000  C
  H156     1.0000 0.87160  0.75450  0.12580  Biso   1.000  H
  H157     1.0000 0.94990  0.74600  0.18490  Biso   1.000  H
  H158     1.0000 0.90200  0.79810  0.17120  Biso   1.000  H
  C156     1.0000 0.53730  0.73160  0.24790  Biso   1.000  C
  B8       1.0000 0.08440  0.86240  0.02860  Biso   1.000  B
  C157     1.0000 0.77180  0.85090  0.87960  Biso   1.000  C
  H159     1.0000 0.74650  0.88370  0.87830  Biso   1.000  H
  H160     1.0000 0.75830  0.83800  0.84020  Biso   1.000  H
  H161     1.0000 0.74500  0.82970  0.90270  Biso   1.000  H
  C158     1.0000 0.07910  0.76440  0.13520  Biso   1.000  C
  H162     1.0000 0.10210  0.73830  0.16100  Biso   1.000  H
  C159     1.0000 0.11580  0.84040  0.90720  Biso   1.000  C
  H163     1.0000 0.14220  0.81020  0.92640  Biso   1.000  H
  H164     1.0000 0.10920  0.83790  0.86580  Biso   1.000  H
  H165     1.0000 0.15540  0.86780  0.92350  Biso   1.000  H
  C160     1.0000 0.21790  0.77900  0.09380  Biso   1.000  C
  H166     1.0000 0.23870  0.74630  0.10750  Biso   1.000  H
  H167     1.0000 0.21450  0.78200  0.05290  Biso   1.000  H
  H168     1.0000 0.26050  0.80320  0.11620  Biso   1.000  H
