data_image0
_cell_length_a       25.8784
_cell_length_b       25.8784
_cell_length_c       6.9669
_cell_angle_alpha    90
_cell_angle_beta     90
_cell_angle_gamma    120

_symmetry_space_group_name_H-M    "P 1"
_symmetry_int_tables_number       1

loop_
  _symmetry_equiv_pos_as_xyz
  'x, y, z'

loop_
  _atom_site_label
  _atom_site_occupancy
  _atom_site_fract_x
  _atom_site_fract_y
  _atom_site_fract_z
  _atom_site_thermal_displace_type
  _atom_site_B_iso_or_equiv
  _atom_site_type_symbol
  Fe1      1.0000 0.38770  0.35230  0.14500  Biso   1.000  Fe
  O1       1.0000 0.31830  0.29390  0.34880  Biso   1.000  O
  O2       1.0000 0.30440  0.22750  0.59520  Biso   1.000  O
  O3       1.0000 0.35580  0.27480  0.00630  Biso   1.000  O
  C1       1.0000 0.31670  0.24710  0.41930  Biso   1.000  C
  C2       1.0000 0.32540  0.20550  0.28360  Biso   1.000  C
  C3       1.0000 0.34310  0.22480  0.09540  Biso   1.000  C
  C4       1.0000 0.31710  0.15200  0.34930  Biso   1.000  C
  H1       1.0000 0.30210  0.13860  0.50200  Biso   1.000  H
  Fe2      1.0000 0.05437  0.68563  0.47833  Biso   1.000  Fe
  O4       1.0000 0.98497  0.62723  0.68213  Biso   1.000  O
  O5       1.0000 0.97107  0.56083  0.92853  Biso   1.000  O
  O6       1.0000 0.02247  0.60813  0.33963  Biso   1.000  O
  C5       1.0000 0.98337  0.58043  0.75263  Biso   1.000  C
  C6       1.0000 0.99207  0.53883  0.61693  Biso   1.000  C
  C7       1.0000 0.00977  0.55813  0.42873  Biso   1.000  C
  C8       1.0000 0.98377  0.48533  0.68263  Biso   1.000  C
  H2       1.0000 0.96877  0.47193  0.83533  Biso   1.000  H
  Fe3      1.0000 0.72103  0.01897  0.81167  Biso   1.000  Fe
  O7       1.0000 0.65163  0.96057  0.01547  Biso   1.000  O
  O8       1.0000 0.63773  0.89417  0.26187  Biso   1.000  O
  O9       1.0000 0.68913  0.94147  0.67297  Biso   1.000  O
  C9       1.0000 0.65003  0.91377  0.08597  Biso   1.000  C
  C10      1.0000 0.65873  0.87217  0.95027  Biso   1.000  C
  C11      1.0000 0.67643  0.89147  0.76207  Biso   1.000  C
  C12      1.0000 0.65043  0.81867  0.01597  Biso   1.000  C
  H3       1.0000 0.63543  0.80527  0.16867  Biso   1.000  H
  Fe4      1.0000 0.64770  0.03540  0.14500  Biso   1.000  Fe
  O10      1.0000 0.70610  0.02440  0.34880  Biso   1.000  O
  O11      1.0000 0.77250  0.07690  0.59520  Biso   1.000  O
  O12      1.0000 0.72520  0.08100  0.00630  Biso   1.000  O
  C13      1.0000 0.75290  0.06960  0.41930  Biso   1.000  C
  C14      1.0000 0.79450  0.11990  0.28360  Biso   1.000  C
  C15      1.0000 0.77520  0.11830  0.09540  Biso   1.000  C
  C16      1.0000 0.84800  0.16510  0.34930  Biso   1.000  C
  H4       1.0000 0.86140  0.16350  0.50200  Biso   1.000  H
  Fe5      1.0000 0.31437  0.36873  0.47833  Biso   1.000  Fe
  O13      1.0000 0.37277  0.35773  0.68213  Biso   1.000  O
  O14      1.0000 0.43917  0.41023  0.92853  Biso   1.000  O
  O15      1.0000 0.39187  0.41433  0.33963  Biso   1.000  O
  C17      1.0000 0.41957  0.40293  0.75263  Biso   1.000  C
  C18      1.0000 0.46117  0.45323  0.61693  Biso   1.000  C
  C19      1.0000 0.44187  0.45163  0.42873  Biso   1.000  C
  C20      1.0000 0.51467  0.49843  0.68263  Biso   1.000  C
  H5       1.0000 0.52807  0.49683  0.83533  Biso   1.000  H
  Fe6      1.0000 0.98103  0.70207  0.81167  Biso   1.000  Fe
  O16      1.0000 0.03943  0.69107  0.01547  Biso   1.000  O
  O17      1.0000 0.10583  0.74357  0.26187  Biso   1.000  O
  O18      1.0000 0.05853  0.74767  0.67297  Biso   1.000  O
  C21      1.0000 0.08623  0.73627  0.08597  Biso   1.000  C
  C22      1.0000 0.12783  0.78657  0.95027  Biso   1.000  C
  C23      1.0000 0.10853  0.78497  0.76207  Biso   1.000  C
  C24      1.0000 0.18133  0.83177  0.01597  Biso   1.000  C
  H6       1.0000 0.19473  0.83017  0.16867  Biso   1.000  H
  Fe7      1.0000 0.96460  0.61230  0.14500  Biso   1.000  Fe
  O19      1.0000 0.97560  0.68170  0.34880  Biso   1.000  O
  O20      1.0000 0.92310  0.69560  0.59520  Biso   1.000  O
  O21      1.0000 0.91900  0.64420  0.00630  Biso   1.000  O
  C25      1.0000 0.93040  0.68330  0.41930  Biso   1.000  C
  C26      1.0000 0.88010  0.67460  0.28360  Biso   1.000  C
  C27      1.0000 0.88170  0.65690  0.09540  Biso   1.000  C
  C28      1.0000 0.83490  0.68290  0.34930  Biso   1.000  C
  H7       1.0000 0.83650  0.69790  0.50200  Biso   1.000  H
  Fe8      1.0000 0.63127  0.94563  0.47833  Biso   1.000  Fe
  O22      1.0000 0.64227  0.01503  0.68213  Biso   1.000  O
  O23      1.0000 0.58977  0.02893  0.92853  Biso   1.000  O
  O24      1.0000 0.58567  0.97753  0.33963  Biso   1.000  O
  C29      1.0000 0.59707  0.01663  0.75263  Biso   1.000  C
  C30      1.0000 0.54677  0.00793  0.61693  Biso   1.000  C
  C31      1.0000 0.54837  0.99023  0.42873  Biso   1.000  C
  C32      1.0000 0.50157  0.01623  0.68263  Biso   1.000  C
  H8       1.0000 0.50317  0.03123  0.83533  Biso   1.000  H
  Fe9      1.0000 0.29793  0.27897  0.81167  Biso   1.000  Fe
  O25      1.0000 0.30893  0.34837  0.01547  Biso   1.000  O
  O26      1.0000 0.25643  0.36227  0.26187  Biso   1.000  O
  O27      1.0000 0.25233  0.31087  0.67297  Biso   1.000  O
  C33      1.0000 0.26373  0.34997  0.08597  Biso   1.000  C
  C34      1.0000 0.21343  0.34127  0.95027  Biso   1.000  C
  C35      1.0000 0.21503  0.32357  0.76207  Biso   1.000  C
  C36      1.0000 0.16823  0.34957  0.01597  Biso   1.000  C
  H9       1.0000 0.16983  0.36457  0.16867  Biso   1.000  H
  Fe10     1.0000 0.61230  0.64770  0.85500  Biso   1.000  Fe
  O28      1.0000 0.68170  0.70610  0.65120  Biso   1.000  O
  O29      1.0000 0.69560  0.77250  0.40480  Biso   1.000  O
  O30      1.0000 0.64420  0.72520  0.99370  Biso   1.000  O
  C37      1.0000 0.68330  0.75290  0.58070  Biso   1.000  C
  C38      1.0000 0.67460  0.79450  0.71640  Biso   1.000  C
  C39      1.0000 0.65690  0.77520  0.90460  Biso   1.000  C
  C40      1.0000 0.68290  0.84800  0.65070  Biso   1.000  C
  H10      1.0000 0.69790  0.86140  0.49800  Biso   1.000  H
  Fe11     1.0000 0.27897  0.98103  0.18833  Biso   1.000  Fe
  O31      1.0000 0.34837  0.03943  0.98453  Biso   1.000  O
  O32      1.0000 0.36227  0.10583  0.73813  Biso   1.000  O
  O33      1.0000 0.31087  0.05853  0.32703  Biso   1.000  O
  C41      1.0000 0.34997  0.08623  0.91403  Biso   1.000  C
  C42      1.0000 0.34127  0.12783  0.04973  Biso   1.000  C
  C43      1.0000 0.32357  0.10853  0.23793  Biso   1.000  C
  C44      1.0000 0.34957  0.18133  0.98403  Biso   1.000  C
  H11      1.0000 0.36457  0.19473  0.83133  Biso   1.000  H
  Fe12     1.0000 0.94563  0.31437  0.52167  Biso   1.000  Fe
  O34      1.0000 0.01503  0.37277  0.31787  Biso   1.000  O
  O35      1.0000 0.02893  0.43917  0.07147  Biso   1.000  O
  O36      1.0000 0.97753  0.39187  0.66037  Biso   1.000  O
  C45      1.0000 0.01663  0.41957  0.24737  Biso   1.000  C
  C46      1.0000 0.00793  0.46117  0.38307  Biso   1.000  C
  C47      1.0000 0.99023  0.44187  0.57127  Biso   1.000  C
  C48      1.0000 0.01623  0.51467  0.31737  Biso   1.000  C
  H12      1.0000 0.03123  0.52807  0.16467  Biso   1.000  H
  Fe13     1.0000 0.35230  0.96460  0.85500  Biso   1.000  Fe
  O37      1.0000 0.29390  0.97560  0.65120  Biso   1.000  O
  O38      1.0000 0.22750  0.92310  0.40480  Biso   1.000  O
  O39      1.0000 0.27480  0.91900  0.99370  Biso   1.000  O
  C49      1.0000 0.24710  0.93040  0.58070  Biso   1.000  C
  C50      1.0000 0.20550  0.88010  0.71640  Biso   1.000  C
  C51      1.0000 0.22480  0.88170  0.90460  Biso   1.000  C
  C52      1.0000 0.15200  0.83490  0.65070  Biso   1.000  C
  H13      1.0000 0.13860  0.83650  0.49800  Biso   1.000  H
  Fe14     1.0000 0.01897  0.29793  0.18833  Biso   1.000  Fe
  O40      1.0000 0.96057  0.30893  0.98453  Biso   1.000  O
  O41      1.0000 0.89417  0.25643  0.73813  Biso   1.000  O
  O42      1.0000 0.94147  0.25233  0.32703  Biso   1.000  O
  C53      1.0000 0.91377  0.26373  0.91403  Biso   1.000  C
  C54      1.0000 0.87217  0.21343  0.04973  Biso   1.000  C
  C55      1.0000 0.89147  0.21503  0.23793  Biso   1.000  C
  C56      1.0000 0.81867  0.16823  0.98403  Biso   1.000  C
  H14      1.0000 0.80527  0.16983  0.83133  Biso   1.000  H
  Fe15     1.0000 0.68563  0.63127  0.52167  Biso   1.000  Fe
  O43      1.0000 0.62723  0.64227  0.31787  Biso   1.000  O
  O44      1.0000 0.56083  0.58977  0.07147  Biso   1.000  O
  O45      1.0000 0.60813  0.58567  0.66037  Biso   1.000  O
  C57      1.0000 0.58043  0.59707  0.24737  Biso   1.000  C
  C58      1.0000 0.53883  0.54677  0.38307  Biso   1.000  C
  C59      1.0000 0.55813  0.54837  0.57127  Biso   1.000  C
  C60      1.0000 0.48533  0.50157  0.31737  Biso   1.000  C
  H15      1.0000 0.47193  0.50317  0.16467  Biso   1.000  H
  Fe16     1.0000 0.03540  0.38770  0.85500  Biso   1.000  Fe
  O46      1.0000 0.02440  0.31830  0.65120  Biso   1.000  O
  O47      1.0000 0.07690  0.30440  0.40480  Biso   1.000  O
  O48      1.0000 0.08100  0.35580  0.99370  Biso   1.000  O
  C61      1.0000 0.06960  0.31670  0.58070  Biso   1.000  C
  C62      1.0000 0.11990  0.32540  0.71640  Biso   1.000  C
  C63      1.0000 0.11830  0.34310  0.90460  Biso   1.000  C
  C64      1.0000 0.16510  0.31710  0.65070  Biso   1.000  C
  H16      1.0000 0.16350  0.30210  0.49800  Biso   1.000  H
  Fe17     1.0000 0.70207  0.72103  0.18833  Biso   1.000  Fe
  O49      1.0000 0.69107  0.65163  0.98453  Biso   1.000  O
  O50      1.0000 0.74357  0.63773  0.73813  Biso   1.000  O
  O51      1.0000 0.74767  0.68913  0.32703  Biso   1.000  O
  C65      1.0000 0.73627  0.65003  0.91403  Biso   1.000  C
  C66      1.0000 0.78657  0.65873  0.04973  Biso   1.000  C
  C67      1.0000 0.78497  0.67643  0.23793  Biso   1.000  C
  C68      1.0000 0.83177  0.65043  0.98403  Biso   1.000  C
  H17      1.0000 0.83017  0.63543  0.83133  Biso   1.000  H
  Fe18     1.0000 0.36873  0.05437  0.52167  Biso   1.000  Fe
  O52      1.0000 0.35773  0.98497  0.31787  Biso   1.000  O
  O53      1.0000 0.41023  0.97107  0.07147  Biso   1.000  O
  O54      1.0000 0.41433  0.02247  0.66037  Biso   1.000  O
  C69      1.0000 0.40293  0.98337  0.24737  Biso   1.000  C
  C70      1.0000 0.45323  0.99207  0.38307  Biso   1.000  C
  C71      1.0000 0.45163  0.00977  0.57127  Biso   1.000  C
  C72      1.0000 0.49843  0.98377  0.31737  Biso   1.000  C
  H18      1.0000 0.49683  0.96877  0.16467  Biso   1.000  H
