data_image0
_cell_length_a       25.9202
_cell_length_b       25.9202
_cell_length_c       6.9505
_cell_angle_alpha    90
_cell_angle_beta     90
_cell_angle_gamma    120

_symmetry_space_group_name_H-M    "P 1"
_symmetry_int_tables_number       1

loop_
  _symmetry_equiv_pos_as_xyz
  'x, y, z'

loop_
  _atom_site_label
  _atom_site_occupancy
  _atom_site_fract_x
  _atom_site_fract_y
  _atom_site_fract_z
  _atom_site_thermal_displace_type
  _atom_site_B_iso_or_equiv
  _atom_site_type_symbol
  Fe1      1.0000 0.38617  0.35147  0.14850  Biso   1.000  Fe
  O1       1.0000 0.31842  0.29222  0.34750  Biso   1.000  O
  O2       1.0000 0.30258  0.22647  0.59150  Biso   1.000  O
  O3       1.0000 0.35286  0.27109  0.00940  Biso   1.000  O
  C1       1.0000 0.31409  0.24580  0.42330  Biso   1.000  C
  C2       1.0000 0.32761  0.20593  0.28220  Biso   1.000  C
  C3       1.0000 0.34350  0.22139  0.09120  Biso   1.000  C
  C4       1.0000 0.31563  0.15232  0.36050  Biso   1.000  C
  H1       1.0000 0.30630  0.14200  0.50840  Biso   1.000  H
  Fe2      1.0000 0.05284  0.68480  0.48183  Biso   1.000  Fe
  O4       1.0000 0.98509  0.62555  0.68083  Biso   1.000  O
  O5       1.0000 0.96925  0.55980  0.92483  Biso   1.000  O
  O6       1.0000 0.01953  0.60442  0.34273  Biso   1.000  O
  C5       1.0000 0.98076  0.57913  0.75663  Biso   1.000  C
  C6       1.0000 0.99428  0.53926  0.61553  Biso   1.000  C
  C7       1.0000 0.01017  0.55472  0.42453  Biso   1.000  C
  C8       1.0000 0.98230  0.48565  0.69383  Biso   1.000  C
  H2       1.0000 0.97297  0.47533  0.84173  Biso   1.000  H
  Fe3      1.0000 0.71950  0.01814  0.81517  Biso   1.000  Fe
  O7       1.0000 0.65175  0.95889  0.01417  Biso   1.000  O
  O8       1.0000 0.63591  0.89314  0.25817  Biso   1.000  O
  O9       1.0000 0.68619  0.93776  0.67607  Biso   1.000  O
  C9       1.0000 0.64742  0.91247  0.08997  Biso   1.000  C
  C10      1.0000 0.66094  0.87260  0.94887  Biso   1.000  C
  C11      1.0000 0.67683  0.88806  0.75787  Biso   1.000  C
  C12      1.0000 0.64896  0.81899  0.02717  Biso   1.000  C
  H3       1.0000 0.63963  0.80867  0.17507  Biso   1.000  H
  Fe4      1.0000 0.64853  0.03470  0.14850  Biso   1.000  Fe
  O10      1.0000 0.70778  0.02620  0.34750  Biso   1.000  O
  O11      1.0000 0.77353  0.07611  0.59150  Biso   1.000  O
  O12      1.0000 0.72891  0.08177  0.00940  Biso   1.000  O
  C13      1.0000 0.75420  0.06829  0.42330  Biso   1.000  C
  C14      1.0000 0.79407  0.12168  0.28220  Biso   1.000  C
  C15      1.0000 0.77861  0.12211  0.09120  Biso   1.000  C
  C16      1.0000 0.84768  0.16331  0.36050  Biso   1.000  C
  H4       1.0000 0.85800  0.16430  0.50840  Biso   1.000  H
  Fe5      1.0000 0.31520  0.36803  0.48183  Biso   1.000  Fe
  O13      1.0000 0.37445  0.35953  0.68083  Biso   1.000  O
  O14      1.0000 0.44020  0.40944  0.92483  Biso   1.000  O
  O15      1.0000 0.39558  0.41510  0.34273  Biso   1.000  O
  C17      1.0000 0.42087  0.40162  0.75663  Biso   1.000  C
  C18      1.0000 0.46074  0.45501  0.61553  Biso   1.000  C
  C19      1.0000 0.44528  0.45544  0.42453  Biso   1.000  C
  C20      1.0000 0.51435  0.49664  0.69383  Biso   1.000  C
  H5       1.0000 0.52467  0.49763  0.84173  Biso   1.000  H
  Fe6      1.0000 0.98186  0.70137  0.81517  Biso   1.000  Fe
  O16      1.0000 0.04111  0.69287  0.01417  Biso   1.000  O
  O17      1.0000 0.10686  0.74278  0.25817  Biso   1.000  O
  O18      1.0000 0.06224  0.74844  0.67607  Biso   1.000  O
  C21      1.0000 0.08753  0.73496  0.08997  Biso   1.000  C
  C22      1.0000 0.12740  0.78835  0.94887  Biso   1.000  C
  C23      1.0000 0.11194  0.78878  0.75787  Biso   1.000  C
  C24      1.0000 0.18101  0.82998  0.02717  Biso   1.000  C
  H6       1.0000 0.19133  0.83097  0.17507  Biso   1.000  H
  Fe7      1.0000 0.96530  0.61383  0.14850  Biso   1.000  Fe
  O19      1.0000 0.97380  0.68158  0.34750  Biso   1.000  O
  O20      1.0000 0.92389  0.69742  0.59150  Biso   1.000  O
  O21      1.0000 0.91823  0.64714  0.00940  Biso   1.000  O
  C25      1.0000 0.93171  0.68591  0.42330  Biso   1.000  C
  C26      1.0000 0.87832  0.67239  0.28220  Biso   1.000  C
  C27      1.0000 0.87789  0.65650  0.09120  Biso   1.000  C
  C28      1.0000 0.83669  0.68437  0.36050  Biso   1.000  C
  H7       1.0000 0.83570  0.69370  0.50840  Biso   1.000  H
  Fe8      1.0000 0.63197  0.94716  0.48183  Biso   1.000  Fe
  O22      1.0000 0.64047  0.01491  0.68083  Biso   1.000  O
  O23      1.0000 0.59056  0.03075  0.92483  Biso   1.000  O
  O24      1.0000 0.58490  0.98047  0.34273  Biso   1.000  O
  C29      1.0000 0.59838  0.01924  0.75663  Biso   1.000  C
  C30      1.0000 0.54499  0.00572  0.61553  Biso   1.000  C
  C31      1.0000 0.54456  0.98983  0.42453  Biso   1.000  C
  C32      1.0000 0.50336  0.01770  0.69383  Biso   1.000  C
  H8       1.0000 0.50237  0.02703  0.84173  Biso   1.000  H
  Fe9      1.0000 0.29863  0.28050  0.81517  Biso   1.000  Fe
  O25      1.0000 0.30713  0.34825  0.01417  Biso   1.000  O
  O26      1.0000 0.25722  0.36409  0.25817  Biso   1.000  O
  O27      1.0000 0.25156  0.31381  0.67607  Biso   1.000  O
  C33      1.0000 0.26504  0.35258  0.08997  Biso   1.000  C
  C34      1.0000 0.21165  0.33906  0.94887  Biso   1.000  C
  C35      1.0000 0.21122  0.32317  0.75787  Biso   1.000  C
  C36      1.0000 0.17002  0.35104  0.02717  Biso   1.000  C
  H9       1.0000 0.16903  0.36037  0.17507  Biso   1.000  H
  Fe10     1.0000 0.61383  0.64853  0.85150  Biso   1.000  Fe
  O28      1.0000 0.68158  0.70778  0.65250  Biso   1.000  O
  O29      1.0000 0.69742  0.77353  0.40850  Biso   1.000  O
  O30      1.0000 0.64714  0.72891  0.99060  Biso   1.000  O
  C37      1.0000 0.68591  0.75420  0.57670  Biso   1.000  C
  C38      1.0000 0.67239  0.79407  0.71780  Biso   1.000  C
  C39      1.0000 0.65650  0.77861  0.90880  Biso   1.000  C
  C40      1.0000 0.68437  0.84768  0.63950  Biso   1.000  C
  H10      1.0000 0.69370  0.85800  0.49160  Biso   1.000  H
  Fe11     1.0000 0.28050  0.98186  0.18483  Biso   1.000  Fe
  O31      1.0000 0.34825  0.04111  0.98583  Biso   1.000  O
  O32      1.0000 0.36409  0.10686  0.74183  Biso   1.000  O
  O33      1.0000 0.31381  0.06224  0.32393  Biso   1.000  O
  C41      1.0000 0.35258  0.08753  0.91003  Biso   1.000  C
  C42      1.0000 0.33906  0.12740  0.05113  Biso   1.000  C
  C43      1.0000 0.32317  0.11194  0.24213  Biso   1.000  C
  C44      1.0000 0.35104  0.18101  0.97283  Biso   1.000  C
  H11      1.0000 0.36037  0.19133  0.82493  Biso   1.000  H
  Fe12     1.0000 0.94716  0.31520  0.51817  Biso   1.000  Fe
  O34      1.0000 0.01491  0.37445  0.31917  Biso   1.000  O
  O35      1.0000 0.03075  0.44020  0.07517  Biso   1.000  O
  O36      1.0000 0.98047  0.39558  0.65727  Biso   1.000  O
  C45      1.0000 0.01924  0.42087  0.24337  Biso   1.000  C
  C46      1.0000 0.00572  0.46074  0.38447  Biso   1.000  C
  C47      1.0000 0.98983  0.44528  0.57547  Biso   1.000  C
  C48      1.0000 0.01770  0.51435  0.30617  Biso   1.000  C
  H12      1.0000 0.02703  0.52467  0.15827  Biso   1.000  H
  Fe13     1.0000 0.35147  0.96530  0.85150  Biso   1.000  Fe
  O37      1.0000 0.29222  0.97380  0.65250  Biso   1.000  O
  O38      1.0000 0.22647  0.92389  0.40850  Biso   1.000  O
  O39      1.0000 0.27109  0.91823  0.99060  Biso   1.000  O
  C49      1.0000 0.24580  0.93171  0.57670  Biso   1.000  C
  C50      1.0000 0.20593  0.87832  0.71780  Biso   1.000  C
  C51      1.0000 0.22139  0.87789  0.90880  Biso   1.000  C
  C52      1.0000 0.15232  0.83669  0.63950  Biso   1.000  C
  H13      1.0000 0.14200  0.83570  0.49160  Biso   1.000  H
  Fe14     1.0000 0.01814  0.29863  0.18483  Biso   1.000  Fe
  O40      1.0000 0.95889  0.30713  0.98583  Biso   1.000  O
  O41      1.0000 0.89314  0.25722  0.74183  Biso   1.000  O
  O42      1.0000 0.93776  0.25156  0.32393  Biso   1.000  O
  C53      1.0000 0.91247  0.26504  0.91003  Biso   1.000  C
  C54      1.0000 0.87260  0.21165  0.05113  Biso   1.000  C
  C55      1.0000 0.88806  0.21122  0.24213  Biso   1.000  C
  C56      1.0000 0.81899  0.17002  0.97283  Biso   1.000  C
  H14      1.0000 0.80867  0.16903  0.82493  Biso   1.000  H
  Fe15     1.0000 0.68480  0.63197  0.51817  Biso   1.000  Fe
  O43      1.0000 0.62555  0.64047  0.31917  Biso   1.000  O
  O44      1.0000 0.55980  0.59056  0.07517  Biso   1.000  O
  O45      1.0000 0.60442  0.58490  0.65727  Biso   1.000  O
  C57      1.0000 0.57913  0.59838  0.24337  Biso   1.000  C
  C58      1.0000 0.53926  0.54499  0.38447  Biso   1.000  C
  C59      1.0000 0.55472  0.54456  0.57547  Biso   1.000  C
  C60      1.0000 0.48565  0.50336  0.30617  Biso   1.000  C
  H15      1.0000 0.47533  0.50237  0.15827  Biso   1.000  H
  Fe16     1.0000 0.03470  0.38617  0.85150  Biso   1.000  Fe
  O46      1.0000 0.02620  0.31842  0.65250  Biso   1.000  O
  O47      1.0000 0.07611  0.30258  0.40850  Biso   1.000  O
  O48      1.0000 0.08177  0.35286  0.99060  Biso   1.000  O
  C61      1.0000 0.06829  0.31409  0.57670  Biso   1.000  C
  C62      1.0000 0.12168  0.32761  0.71780  Biso   1.000  C
  C63      1.0000 0.12211  0.34350  0.90880  Biso   1.000  C
  C64      1.0000 0.16331  0.31563  0.63950  Biso   1.000  C
  H16      1.0000 0.16430  0.30630  0.49160  Biso   1.000  H
  Fe17     1.0000 0.70137  0.71950  0.18483  Biso   1.000  Fe
  O49      1.0000 0.69287  0.65175  0.98583  Biso   1.000  O
  O50      1.0000 0.74278  0.63591  0.74183  Biso   1.000  O
  O51      1.0000 0.74844  0.68619  0.32393  Biso   1.000  O
  C65      1.0000 0.73496  0.64742  0.91003  Biso   1.000  C
  C66      1.0000 0.78835  0.66094  0.05113  Biso   1.000  C
  C67      1.0000 0.78878  0.67683  0.24213  Biso   1.000  C
  C68      1.0000 0.82998  0.64896  0.97283  Biso   1.000  C
  H17      1.0000 0.83097  0.63963  0.82493  Biso   1.000  H
  Fe18     1.0000 0.36803  0.05284  0.51817  Biso   1.000  Fe
  O52      1.0000 0.35953  0.98509  0.31917  Biso   1.000  O
  O53      1.0000 0.40944  0.96925  0.07517  Biso   1.000  O
  O54      1.0000 0.41510  0.01953  0.65727  Biso   1.000  O
  C69      1.0000 0.40162  0.98076  0.24337  Biso   1.000  C
  C70      1.0000 0.45501  0.99428  0.38447  Biso   1.000  C
  C71      1.0000 0.45544  0.01017  0.57547  Biso   1.000  C
  C72      1.0000 0.49664  0.98230  0.30617  Biso   1.000  C
  H18      1.0000 0.49763  0.97297  0.15827  Biso   1.000  H
