data_SARMOO_clean
_audit_creation_date              2014-07-02
_audit_creation_method            'Materials Studio'
_symmetry_space_group_name_H-M    'P1'
_symmetry_Int_Tables_number       1
_symmetry_cell_setting            triclinic
loop_
_symmetry_equiv_pos_as_xyz
  x,y,z
_cell_length_a                    14.2400
_cell_length_b                    15.1850
_cell_length_c                    22.1910
_cell_angle_alpha                 90.0000
_cell_angle_beta                  90.0000
_cell_angle_gamma                 102.9800
loop_
_atom_site_label
_atom_site_type_symbol
_atom_site_fract_x
_atom_site_fract_y
_atom_site_fract_z
_atom_site_U_iso_or_equiv
_atom_site_adp_type
_atom_site_occupancy
Eu1    Eu    0.50156   0.43594   0.27568   0.01267  Uiso   1.00
Eu2    Eu    0.20225   0.33456   0.24588   0.01267  Uiso   1.00
Eu3    Eu    0.99844   0.06406   0.77568   0.01267  Uiso   1.00
Eu4    Eu    0.29775   0.16544   0.74588   0.01267  Uiso   1.00
Eu5    Eu    0.49844   0.56406   0.72432   0.01267  Uiso   1.00
Eu6    Eu    0.79775   0.66544   0.75412   0.01267  Uiso   1.00
Eu7    Eu    0.00156   0.93594   0.22432   0.01267  Uiso   1.00
Eu8    Eu    0.70225   0.83456   0.25412   0.01267  Uiso   1.00
H1     H     0.43810   0.28820   0.44240   0.01267  Uiso   1.00
H2     H     0.43250   0.23980   0.54220   0.01267  Uiso   1.00
H3     H     0.16000   0.39920   0.42110   0.01267  Uiso   1.00
H4     H     0.04340   0.42190   0.48450   0.01267  Uiso   1.00
H5     H     0.04640   0.38220   0.58620   0.01267  Uiso   1.00
H6     H     0.16270   0.31580   0.62110   0.01267  Uiso   1.00
H7     H     0.36470   0.70090   0.29340   0.01267  Uiso   1.00
H8     H     0.26410   0.80030   0.28720   0.01267  Uiso   1.00
H9     H     0.27890   0.50880   0.13120   0.01267  Uiso   1.00
H10    H     0.17370   0.49870   0.05360   0.01267  Uiso   1.00
H11    H     0.07820   0.60350   0.04390   0.01267  Uiso   1.00
H12    H     0.08190   0.71240   0.11450   0.01267  Uiso   1.00
H13    H     0.48850   0.19500   0.19480   0.01267  Uiso   1.00
H14    H     0.57350   0.07990   0.19250   0.01267  Uiso   1.00
H15    H     0.29200   0.13300   0.35980   0.01267  Uiso   1.00
H16    H     0.25840   0.02060   0.43170   0.01267  Uiso   1.00
H17    H     0.34040   0.90370   0.42840   0.01267  Uiso   1.00
H18    H     0.45070   0.89840   0.35640   0.01267  Uiso   1.00
H19    H     0.44220   0.34330   0.13760   0.01267  Uiso   1.00
H20    H     0.42860   0.36270   0.03540   0.01267  Uiso   1.00
H21    H     0.58390   0.61490   0.05650   0.01267  Uiso   1.00
H22    H     0.58610   0.58880   0.15670   0.01267  Uiso   1.00
H23    H     0.06190   0.21180   0.94240   0.01267  Uiso   1.00
H24    H     0.06750   0.26020   0.04220   0.01267  Uiso   1.00
H25    H     0.34000   0.10080   0.92110   0.01267  Uiso   1.00
H26    H     0.45660   0.07810   0.98450   0.01267  Uiso   1.00
H27    H     0.45360   0.11780   0.08620   0.01267  Uiso   1.00
H28    H     0.33730   0.18420   0.12110   0.01267  Uiso   1.00
H29    H     0.13530   0.79910   0.79340   0.01267  Uiso   1.00
H30    H     0.23590   0.69970   0.78720   0.01267  Uiso   1.00
H31    H     0.22110   0.99120   0.63120   0.01267  Uiso   1.00
H32    H     0.32630   0.00130   0.55360   0.01267  Uiso   1.00
H33    H     0.42180   0.89650   0.54390   0.01267  Uiso   1.00
H34    H     0.41810   0.78760   0.61450   0.01267  Uiso   1.00
H35    H     0.01150   0.30500   0.69480   0.01267  Uiso   1.00
H36    H     0.92650   0.42010   0.69250   0.01267  Uiso   1.00
H37    H     0.20800   0.36700   0.85980   0.01267  Uiso   1.00
H38    H     0.24160   0.47940   0.93170   0.01267  Uiso   1.00
H39    H     0.15960   0.59630   0.92840   0.01267  Uiso   1.00
H40    H     0.04930   0.60160   0.85640   0.01267  Uiso   1.00
H41    H     0.05780   0.15670   0.63760   0.01267  Uiso   1.00
H42    H     0.07140   0.13730   0.53540   0.01267  Uiso   1.00
H43    H     0.91610   0.88510   0.55650   0.01267  Uiso   1.00
H44    H     0.91390   0.91120   0.65670   0.01267  Uiso   1.00
H45    H     0.56190   0.71180   0.55760   0.01267  Uiso   1.00
H46    H     0.56750   0.76020   0.45780   0.01267  Uiso   1.00
H47    H     0.84000   0.60080   0.57890   0.01267  Uiso   1.00
H48    H     0.95660   0.57810   0.51550   0.01267  Uiso   1.00
H49    H     0.95360   0.61780   0.41380   0.01267  Uiso   1.00
H50    H     0.83730   0.68420   0.37890   0.01267  Uiso   1.00
H51    H     0.63530   0.29910   0.70660   0.01267  Uiso   1.00
H52    H     0.73590   0.19970   0.71280   0.01267  Uiso   1.00
H53    H     0.72110   0.49120   0.86880   0.01267  Uiso   1.00
H54    H     0.82630   0.50130   0.94640   0.01267  Uiso   1.00
H55    H     0.92180   0.39650   0.95610   0.01267  Uiso   1.00
H56    H     0.91810   0.28760   0.88550   0.01267  Uiso   1.00
H57    H     0.51150   0.80500   0.80520   0.01267  Uiso   1.00
H58    H     0.42650   0.92010   0.80750   0.01267  Uiso   1.00
H59    H     0.70800   0.86700   0.64020   0.01267  Uiso   1.00
H60    H     0.74160   0.97940   0.56830   0.01267  Uiso   1.00
H61    H     0.65960   0.09630   0.57160   0.01267  Uiso   1.00
H62    H     0.54930   0.10160   0.64360   0.01267  Uiso   1.00
H63    H     0.55780   0.65670   0.86240   0.01267  Uiso   1.00
H64    H     0.57140   0.63730   0.96460   0.01267  Uiso   1.00
H65    H     0.41610   0.38510   0.94350   0.01267  Uiso   1.00
H66    H     0.41390   0.41120   0.84330   0.01267  Uiso   1.00
H67    H     0.93810   0.78820   0.05760   0.01267  Uiso   1.00
H68    H     0.93250   0.73980   0.95780   0.01267  Uiso   1.00
H69    H     0.66000   0.89920   0.07890   0.01267  Uiso   1.00
H70    H     0.54340   0.92190   0.01550   0.01267  Uiso   1.00
H71    H     0.54640   0.88220   0.91380   0.01267  Uiso   1.00
H72    H     0.66270   0.81580   0.87890   0.01267  Uiso   1.00
H73    H     0.86470   0.20090   0.20660   0.01267  Uiso   1.00
H74    H     0.76410   0.30030   0.21280   0.01267  Uiso   1.00
H75    H     0.77890   0.00880   0.36880   0.01267  Uiso   1.00
H76    H     0.67370   0.99870   0.44640   0.01267  Uiso   1.00
H77    H     0.57820   0.10350   0.45610   0.01267  Uiso   1.00
H78    H     0.58190   0.21240   0.38550   0.01267  Uiso   1.00
H79    H     0.98850   0.69500   0.30520   0.01267  Uiso   1.00
H80    H     0.07350   0.57990   0.30750   0.01267  Uiso   1.00
H81    H     0.79200   0.63300   0.14020   0.01267  Uiso   1.00
H82    H     0.75840   0.52060   0.06830   0.01267  Uiso   1.00
H83    H     0.84040   0.40370   0.07160   0.01267  Uiso   1.00
H84    H     0.95070   0.39840   0.14360   0.01267  Uiso   1.00
H85    H     0.94220   0.84330   0.36240   0.01267  Uiso   1.00
H86    H     0.92860   0.86270   0.46460   0.01267  Uiso   1.00
H87    H     0.08390   0.11490   0.44350   0.01267  Uiso   1.00
H88    H     0.08610   0.08880   0.34330   0.01267  Uiso   1.00
C1     C     0.32130   0.35450   0.37800   0.01267  Uiso   1.00
C2     C     0.31430   0.32920   0.44380   0.01267  Uiso   1.00
C3     C     0.38670   0.29390   0.46680   0.01267  Uiso   1.00
C4     C     0.38400   0.26590   0.52750   0.01267  Uiso   1.00
C5     C     0.31190   0.27650   0.56470   0.01267  Uiso   1.00
C6     C     0.23710   0.31640   0.54280   0.01267  Uiso   1.00
C7     C     0.23700   0.34100   0.48120   0.01267  Uiso   1.00
C8     C     0.16140   0.38190   0.46120   0.01267  Uiso   1.00
C9     C     0.09230   0.39590   0.49880   0.01267  Uiso   1.00
C10    C     0.09370   0.37140   0.56010   0.01267  Uiso   1.00
C11    C     0.16320   0.33250   0.58080   0.01267  Uiso   1.00
C12    C     0.30960   0.24310   0.62840   0.01267  Uiso   1.00
C13    C     0.36730   0.55370   0.23760   0.01267  Uiso   1.00
C14    C     0.30850   0.62150   0.22430   0.01267  Uiso   1.00
C15    C     0.31790   0.69310   0.26340   0.01267  Uiso   1.00
C16    C     0.25830   0.75430   0.25880   0.01267  Uiso   1.00
C17    C     0.19190   0.74870   0.21390   0.01267  Uiso   1.00
C18    C     0.18590   0.68160   0.16840   0.01267  Uiso   1.00
C19    C     0.24460   0.61590   0.17500   0.01267  Uiso   1.00
C20    C     0.23900   0.54950   0.12890   0.01267  Uiso   1.00
C21    C     0.17760   0.54410   0.08220   0.01267  Uiso   1.00
C22    C     0.11950   0.60690   0.07680   0.01267  Uiso   1.00
C23    C     0.12240   0.67250   0.11860   0.01267  Uiso   1.00
C24    C     0.12760   0.81620   0.21650   0.01267  Uiso   1.00
C25    C     0.34850   0.21990   0.25840   0.01267  Uiso   1.00
C26    C     0.40720   0.14960   0.26490   0.01267  Uiso   1.00
C27    C     0.47520   0.14910   0.22340   0.01267  Uiso   1.00
C28    C     0.52740   0.07990   0.22220   0.01267  Uiso   1.00
C29    C     0.50990   0.01320   0.26490   0.01267  Uiso   1.00
C30    C     0.44090   0.01270   0.31040   0.01267  Uiso   1.00
C31    C     0.38840   0.08220   0.31130   0.01267  Uiso   1.00
C32    C     0.32290   0.08520   0.35810   0.01267  Uiso   1.00
C33    C     0.30340   0.01900   0.40160   0.01267  Uiso   1.00
C34    C     0.35320   0.94900   0.39930   0.01267  Uiso   1.00
C35    C     0.41890   0.94560   0.35620   0.01267  Uiso   1.00
C36    C     0.57490   0.94720   0.26090   0.01267  Uiso   1.00
C37    C     0.46870   0.39990   0.12140   0.01267  Uiso   1.00
C38    C     0.46130   0.41050   0.05900   0.01267  Uiso   1.00
C39    C     0.50320   0.49290   0.03240   0.01267  Uiso   1.00
C40    C     0.55200   0.55910   0.07160   0.01267  Uiso   1.00
C41    C     0.55330   0.54250   0.13210   0.01267  Uiso   1.00
C42    C     0.17870   0.14550   0.87800   0.01267  Uiso   1.00
C43    C     0.18570   0.17080   0.94380   0.01267  Uiso   1.00
C44    C     0.11330   0.20610   0.96680   0.01267  Uiso   1.00
C45    C     0.11600   0.23410   0.02750   0.01267  Uiso   1.00
C46    C     0.18810   0.22350   0.06470   0.01267  Uiso   1.00
C47    C     0.26290   0.18360   0.04280   0.01267  Uiso   1.00
C48    C     0.26300   0.15900   0.98120   0.01267  Uiso   1.00
C49    C     0.33860   0.11810   0.96120   0.01267  Uiso   1.00
C50    C     0.40770   0.10410   0.99880   0.01267  Uiso   1.00
C51    C     0.40630   0.12860   0.06010   0.01267  Uiso   1.00
C52    C     0.33680   0.16750   0.08080   0.01267  Uiso   1.00
C53    C     0.19040   0.25690   0.12840   0.01267  Uiso   1.00
C54    C     0.13270   0.94630   0.73760   0.01267  Uiso   1.00
C55    C     0.19150   0.87850   0.72430   0.01267  Uiso   1.00
C56    C     0.18210   0.80690   0.76340   0.01267  Uiso   1.00
C57    C     0.24170   0.74570   0.75880   0.01267  Uiso   1.00
C58    C     0.30810   0.75130   0.71390   0.01267  Uiso   1.00
C59    C     0.31410   0.81840   0.66840   0.01267  Uiso   1.00
C60    C     0.25540   0.88410   0.67500   0.01267  Uiso   1.00
C61    C     0.26100   0.95050   0.62890   0.01267  Uiso   1.00
C62    C     0.32240   0.95590   0.58220   0.01267  Uiso   1.00
C63    C     0.38050   0.89310   0.57680   0.01267  Uiso   1.00
C64    C     0.37760   0.82750   0.61860   0.01267  Uiso   1.00
C65    C     0.37240   0.68380   0.71650   0.01267  Uiso   1.00
C66    C     0.15150   0.28010   0.75840   0.01267  Uiso   1.00
C67    C     0.09280   0.35040   0.76490   0.01267  Uiso   1.00
C68    C     0.02480   0.35090   0.72340   0.01267  Uiso   1.00
C69    C     0.97260   0.42010   0.72220   0.01267  Uiso   1.00
C70    C     0.99010   0.48680   0.76490   0.01267  Uiso   1.00
C71    C     0.05910   0.48730   0.81040   0.01267  Uiso   1.00
C72    C     0.11160   0.41780   0.81130   0.01267  Uiso   1.00
C73    C     0.17710   0.41480   0.85810   0.01267  Uiso   1.00
C74    C     0.19660   0.48100   0.90160   0.01267  Uiso   1.00
C75    C     0.14680   0.55100   0.89930   0.01267  Uiso   1.00
C76    C     0.08110   0.55440   0.85620   0.01267  Uiso   1.00
C77    C     0.92510   0.55280   0.76090   0.01267  Uiso   1.00
C78    C     0.03130   0.10010   0.62140   0.01267  Uiso   1.00
C79    C     0.03870   0.08950   0.55900   0.01267  Uiso   1.00
C80    C     0.99680   0.00710   0.53240   0.01267  Uiso   1.00
C81    C     0.94800   0.94090   0.57160   0.01267  Uiso   1.00
C82    C     0.94670   0.95750   0.63210   0.01267  Uiso   1.00
C83    C     0.67870   0.64550   0.62200   0.01267  Uiso   1.00
C84    C     0.68570   0.67080   0.55620   0.01267  Uiso   1.00
C85    C     0.61330   0.70610   0.53320   0.01267  Uiso   1.00
C86    C     0.61600   0.73410   0.47250   0.01267  Uiso   1.00
C87    C     0.68810   0.72350   0.43530   0.01267  Uiso   1.00
C88    C     0.76290   0.68360   0.45720   0.01267  Uiso   1.00
C89    C     0.76300   0.65900   0.51880   0.01267  Uiso   1.00
C90    C     0.83860   0.61810   0.53880   0.01267  Uiso   1.00
C91    C     0.90770   0.60410   0.50120   0.01267  Uiso   1.00
C92    C     0.90630   0.62860   0.43990   0.01267  Uiso   1.00
C93    C     0.83680   0.66750   0.41920   0.01267  Uiso   1.00
C94    C     0.69040   0.75690   0.37160   0.01267  Uiso   1.00
C95    C     0.63270   0.44630   0.76240   0.01267  Uiso   1.00
C96    C     0.69150   0.37850   0.77570   0.01267  Uiso   1.00
C97    C     0.68210   0.30690   0.73660   0.01267  Uiso   1.00
C98    C     0.74170   0.24570   0.74120   0.01267  Uiso   1.00
C99    C     0.80810   0.25130   0.78610   0.01267  Uiso   1.00
C100   C     0.81410   0.31840   0.83160   0.01267  Uiso   1.00
C101   C     0.75540   0.38410   0.82500   0.01267  Uiso   1.00
C102   C     0.76100   0.45050   0.87110   0.01267  Uiso   1.00
C103   C     0.82240   0.45590   0.91780   0.01267  Uiso   1.00
C104   C     0.88050   0.39310   0.92320   0.01267  Uiso   1.00
C105   C     0.87760   0.32750   0.88140   0.01267  Uiso   1.00
C106   C     0.87240   0.18380   0.78350   0.01267  Uiso   1.00
C107   C     0.65150   0.78010   0.74160   0.01267  Uiso   1.00
C108   C     0.59280   0.85040   0.73510   0.01267  Uiso   1.00
C109   C     0.52480   0.85090   0.77660   0.01267  Uiso   1.00
C110   C     0.47260   0.92010   0.77780   0.01267  Uiso   1.00
C111   C     0.49010   0.98680   0.73510   0.01267  Uiso   1.00
C112   C     0.55910   0.98730   0.68960   0.01267  Uiso   1.00
C113   C     0.61160   0.91780   0.68870   0.01267  Uiso   1.00
C114   C     0.67710   0.91480   0.64190   0.01267  Uiso   1.00
C115   C     0.69660   0.98100   0.59840   0.01267  Uiso   1.00
C116   C     0.64680   0.05100   0.60070   0.01267  Uiso   1.00
C117   C     0.58110   0.05440   0.64380   0.01267  Uiso   1.00
C118   C     0.42510   0.05280   0.73910   0.01267  Uiso   1.00
C119   C     0.53130   0.60010   0.87860   0.01267  Uiso   1.00
C120   C     0.53870   0.58950   0.94100   0.01267  Uiso   1.00
C121   C     0.49680   0.50710   0.96760   0.01267  Uiso   1.00
C122   C     0.44800   0.44090   0.92840   0.01267  Uiso   1.00
C123   C     0.44670   0.45750   0.86790   0.01267  Uiso   1.00
C124   C     0.82130   0.85450   0.12200   0.01267  Uiso   1.00
C125   C     0.81430   0.82920   0.05620   0.01267  Uiso   1.00
C126   C     0.88670   0.79390   0.03320   0.01267  Uiso   1.00
C127   C     0.88400   0.76590   0.97250   0.01267  Uiso   1.00
C128   C     0.81190   0.77650   0.93530   0.01267  Uiso   1.00
C129   C     0.73710   0.81640   0.95720   0.01267  Uiso   1.00
C130   C     0.73700   0.84100   0.01880   0.01267  Uiso   1.00
C131   C     0.66140   0.88190   0.03880   0.01267  Uiso   1.00
C132   C     0.59230   0.89590   0.00120   0.01267  Uiso   1.00
C133   C     0.59370   0.87140   0.93990   0.01267  Uiso   1.00
C134   C     0.66320   0.83250   0.91920   0.01267  Uiso   1.00
C135   C     0.80960   0.74310   0.87160   0.01267  Uiso   1.00
C136   C     0.86730   0.05370   0.26240   0.01267  Uiso   1.00
C137   C     0.80850   0.12150   0.27570   0.01267  Uiso   1.00
C138   C     0.81790   0.19310   0.23660   0.01267  Uiso   1.00
C139   C     0.75830   0.25430   0.24120   0.01267  Uiso   1.00
C140   C     0.69190   0.24870   0.28610   0.01267  Uiso   1.00
C141   C     0.68590   0.18160   0.33160   0.01267  Uiso   1.00
C142   C     0.74460   0.11590   0.32500   0.01267  Uiso   1.00
C143   C     0.73900   0.04950   0.37110   0.01267  Uiso   1.00
C144   C     0.67760   0.04410   0.41780   0.01267  Uiso   1.00
C145   C     0.61950   0.10690   0.42320   0.01267  Uiso   1.00
C146   C     0.62240   0.17250   0.38140   0.01267  Uiso   1.00
C147   C     0.62760   0.31620   0.28350   0.01267  Uiso   1.00
C148   C     0.84850   0.71990   0.24160   0.01267  Uiso   1.00
C149   C     0.90720   0.64960   0.23510   0.01267  Uiso   1.00
C150   C     0.97520   0.64910   0.27660   0.01267  Uiso   1.00
C151   C     0.02740   0.57990   0.27780   0.01267  Uiso   1.00
C152   C     0.00990   0.51320   0.23510   0.01267  Uiso   1.00
C153   C     0.94090   0.51270   0.18960   0.01267  Uiso   1.00
C154   C     0.88840   0.58220   0.18870   0.01267  Uiso   1.00
C155   C     0.82290   0.58520   0.14190   0.01267  Uiso   1.00
C156   C     0.80340   0.51900   0.09840   0.01267  Uiso   1.00
C157   C     0.85320   0.44900   0.10070   0.01267  Uiso   1.00
C158   C     0.91890   0.44560   0.14380   0.01267  Uiso   1.00
C159   C     0.07490   0.44720   0.23910   0.01267  Uiso   1.00
C160   C     0.96870   0.89990   0.37860   0.01267  Uiso   1.00
C161   C     0.96130   0.91050   0.44100   0.01267  Uiso   1.00
C162   C     0.00320   0.99290   0.46760   0.01267  Uiso   1.00
C163   C     0.05200   0.05910   0.42840   0.01267  Uiso   1.00
C164   C     0.05330   0.04250   0.36790   0.01267  Uiso   1.00
N1     N     0.51020   0.46370   0.15850   0.01267  Uiso   1.00
N2     N     0.98980   0.03630   0.65850   0.01267  Uiso   1.00
N3     N     0.48980   0.53630   0.84150   0.01267  Uiso   1.00
N4     N     0.01020   0.96370   0.34150   0.01267  Uiso   1.00
O1     O     0.40360   0.38750   0.35778   0.01267  Uiso   1.00
O2     O     0.24630   0.34190   0.34762   0.01267  Uiso   1.00
O3     O     0.36980   0.28330   0.66575   0.01267  Uiso   1.00
O4     O     0.24640   0.17400   0.64230   0.01267  Uiso   1.00
O5     O     0.32980   0.46920   0.23692   0.01267  Uiso   1.00
O6     O     0.45360   0.58140   0.25311   0.01267  Uiso   1.00
O7     O     0.11450   0.84930   0.26728   0.01267  Uiso   1.00
O8     O     0.08920   0.83910   0.17050   0.01267  Uiso   1.00
O9     O     0.38920   0.30040   0.24448   0.01267  Uiso   1.00
O10    O     0.25910   0.19620   0.26340   0.01267  Uiso   1.00
O11    O     0.58170   0.89610   0.30410   0.01267  Uiso   1.00
O12    O     0.62250   0.94610   0.21336   0.01267  Uiso   1.00
O13    O     0.09640   0.11250   0.85778   0.01267  Uiso   1.00
O14    O     0.25370   0.15810   0.84762   0.01267  Uiso   1.00
O15    O     0.13020   0.21670   0.16575   0.01267  Uiso   1.00
O16    O     0.25360   0.32600   0.14230   0.01267  Uiso   1.00
O17    O     0.17020   0.03080   0.73692   0.01267  Uiso   1.00
O18    O     0.04640   0.91860   0.75311   0.01267  Uiso   1.00
O19    O     0.38550   0.65070   0.76728   0.01267  Uiso   1.00
O20    O     0.41080   0.66090   0.67050   0.01267  Uiso   1.00
O21    O     0.11080   0.19960   0.74448   0.01267  Uiso   1.00
O22    O     0.24090   0.30380   0.76340   0.01267  Uiso   1.00
O23    O     0.91830   0.60390   0.80410   0.01267  Uiso   1.00
O24    O     0.87750   0.55390   0.71336   0.01267  Uiso   1.00
O25    O     0.59640   0.61250   0.64222   0.01267  Uiso   1.00
O26    O     0.75370   0.65810   0.65238   0.01267  Uiso   1.00
O27    O     0.63020   0.71670   0.33425   0.01267  Uiso   1.00
O28    O     0.75360   0.82600   0.35770   0.01267  Uiso   1.00
O29    O     0.67020   0.53080   0.76308   0.01267  Uiso   1.00
O30    O     0.54640   0.41860   0.74689   0.01267  Uiso   1.00
O31    O     0.88550   0.15070   0.73272   0.01267  Uiso   1.00
O32    O     0.91080   0.16090   0.82950   0.01267  Uiso   1.00
O33    O     0.61080   0.69960   0.75552   0.01267  Uiso   1.00
O34    O     0.74090   0.80380   0.73660   0.01267  Uiso   1.00
O35    O     0.41830   0.10390   0.69590   0.01267  Uiso   1.00
O36    O     0.37750   0.05390   0.78664   0.01267  Uiso   1.00
O37    O     0.90360   0.88750   0.14222   0.01267  Uiso   1.00
O38    O     0.74630   0.84190   0.15238   0.01267  Uiso   1.00
O39    O     0.86980   0.78330   0.83425   0.01267  Uiso   1.00
O40    O     0.74640   0.67400   0.85770   0.01267  Uiso   1.00
O41    O     0.82980   0.96920   0.26308   0.01267  Uiso   1.00
O42    O     0.95360   0.08140   0.24689   0.01267  Uiso   1.00
O43    O     0.61450   0.34930   0.23272   0.01267  Uiso   1.00
O44    O     0.58920   0.33910   0.32950   0.01267  Uiso   1.00
O45    O     0.88920   0.80040   0.25552   0.01267  Uiso   1.00
O46    O     0.75910   0.69620   0.23660   0.01267  Uiso   1.00
O47    O     0.08170   0.39610   0.19590   0.01267  Uiso   1.00
O48    O     0.12250   0.44610   0.28664   0.01267  Uiso   1.00
