data_SARMII_clean
_audit_creation_date              2014-07-02
_audit_creation_method            'Materials Studio'
_symmetry_space_group_name_H-M    'P1'
_symmetry_Int_Tables_number       1
_symmetry_cell_setting            triclinic
loop_
_symmetry_equiv_pos_as_xyz
  x,y,z
_cell_length_a                    15.7470
_cell_length_b                    22.8979
_cell_length_c                    22.8979
_cell_angle_alpha                 83.2098
_cell_angle_beta                  69.8882
_cell_angle_gamma                 69.8882
loop_
_atom_site_label
_atom_site_type_symbol
_atom_site_fract_x
_atom_site_fract_y
_atom_site_fract_z
_atom_site_U_iso_or_equiv
_atom_site_adp_type
_atom_site_occupancy
Gd1    Gd    0.58828   0.25325   0.20678   0.01267  Uiso   1.00
Gd2    Gd    0.34075   0.25107   0.19375   0.01267  Uiso   1.00
Gd3    Gd    0.04831   0.74675   0.79322   0.01267  Uiso   1.00
Gd4    Gd    0.78557   0.74893   0.80625   0.01267  Uiso   1.00
Gd5    Gd    0.04506   0.29322   0.75325   0.01267  Uiso   1.00
Gd6    Gd    0.78450   0.30625   0.75107   0.01267  Uiso   1.00
Gd7    Gd    0.09153   0.70678   0.24675   0.01267  Uiso   1.00
Gd8    Gd    0.84182   0.69375   0.24893   0.01267  Uiso   1.00
Gd9    Gd    0.54831   0.79322   0.74675   0.01267  Uiso   1.00
Gd10   Gd    0.28557   0.80625   0.74893   0.01267  Uiso   1.00
Gd11   Gd    0.08828   0.20678   0.25325   0.01267  Uiso   1.00
Gd12   Gd    0.84075   0.19375   0.25107   0.01267  Uiso   1.00
Gd13   Gd    0.59153   0.24675   0.70678   0.01267  Uiso   1.00
Gd14   Gd    0.34182   0.24893   0.69375   0.01267  Uiso   1.00
Gd15   Gd    0.54506   0.75325   0.29322   0.01267  Uiso   1.00
Gd16   Gd    0.28450   0.75107   0.30625   0.01267  Uiso   1.00
H1     H     0.59290   0.32220   0.99920   0.01267  Uiso   1.00
H2     H     0.61060   0.31690   0.89430   0.01267  Uiso   1.00
H3     H     0.56230   0.13090   0.87610   0.01267  Uiso   1.00
H4     H     0.52830   0.05390   0.94390   0.01267  Uiso   1.00
H5     H     0.52170   0.05690   0.04610   0.01267  Uiso   1.00
H6     H     0.54020   0.13790   0.08230   0.01267  Uiso   1.00
H7     H     0.26400   0.29550   0.50770   0.01267  Uiso   1.00
H8     H     0.26890   0.29460   0.40600   0.01267  Uiso   1.00
H9     H     0.51300   0.11770   0.32090   0.01267  Uiso   1.00
H10    H     0.61320   0.03770   0.35710   0.01267  Uiso   1.00
H11    H     0.60350   0.02940   0.46060   0.01267  Uiso   1.00
H12    H     0.49590   0.10930   0.52770   0.01267  Uiso   1.00
H13    H     0.45340   0.45070   0.17530   0.01267  Uiso   1.00
H14    H     0.42210   0.55340   0.19520   0.01267  Uiso   1.00
H15    H     0.17850   0.59110   0.38230   0.01267  Uiso   1.00
H16    H     0.08870   0.53650   0.44990   0.01267  Uiso   1.00
H17    H     0.11380   0.43390   0.42570   0.01267  Uiso   1.00
H18    H     0.23350   0.38700   0.33720   0.01267  Uiso   1.00
H19    H     0.91430   0.67780   0.00080   0.01267  Uiso   1.00
H20    H     0.82180   0.68310   0.10570   0.01267  Uiso   1.00
H21    H     0.56930   0.86910   0.12390   0.01267  Uiso   1.00
H22    H     0.52610   0.94610   0.05610   0.01267  Uiso   1.00
H23    H     0.62470   0.94310   0.95390   0.01267  Uiso   1.00
H24    H     0.76040   0.86210   0.91770   0.01267  Uiso   1.00
H25    H     0.06720   0.70450   0.49230   0.01267  Uiso   1.00
H26    H     0.96950   0.70540   0.59400   0.01267  Uiso   1.00
H27    H     0.95160   0.88230   0.67910   0.01267  Uiso   1.00
H28    H     0.00800   0.96230   0.64290   0.01267  Uiso   1.00
H29    H     0.09350   0.97060   0.53940   0.01267  Uiso   1.00
H30    H     0.13290   0.89070   0.47230   0.01267  Uiso   1.00
H31    H     0.07940   0.54930   0.82470   0.01267  Uiso   1.00
H32    H     0.17070   0.44660   0.80480   0.01267  Uiso   1.00
H33    H     0.15190   0.40890   0.61770   0.01267  Uiso   1.00
H34    H     0.07510   0.46350   0.55010   0.01267  Uiso   1.00
H35    H     0.97340   0.56610   0.57430   0.01267  Uiso   1.00
H36    H     0.95770   0.61300   0.66280   0.01267  Uiso   1.00
H37    H     0.84210   0.50080   0.82220   0.01267  Uiso   1.00
H38    H     0.75490   0.60570   0.81690   0.01267  Uiso   1.00
H39    H     0.68840   0.62390   0.63090   0.01267  Uiso   1.00
H40    H     0.72220   0.55610   0.55390   0.01267  Uiso   1.00
H41    H     0.81780   0.45390   0.55690   0.01267  Uiso   1.00
H42    H     0.87250   0.41770   0.63790   0.01267  Uiso   1.00
H43    H     0.02170   0.99230   0.79550   0.01267  Uiso   1.00
H44    H     0.92490   0.09400   0.79460   0.01267  Uiso   1.00
H45    H     0.08390   0.17910   0.61770   0.01267  Uiso   1.00
H46    H     0.22030   0.14290   0.53770   0.01267  Uiso   1.00
H47    H     0.31410   0.03940   0.52940   0.01267  Uiso   1.00
H48    H     0.27360   0.97230   0.60930   0.01267  Uiso   1.00
H49    H     0.87870   0.32470   0.95070   0.01267  Uiso   1.00
H50    H     0.86730   0.30480   0.05340   0.01267  Uiso   1.00
H51    H     0.81080   0.11770   0.09110   0.01267  Uiso   1.00
H52    H     0.78860   0.05010   0.03650   0.01267  Uiso   1.00
H53    H     0.78950   0.07430   0.93390   0.01267  Uiso   1.00
H54    H     0.82070   0.16280   0.88700   0.01267  Uiso   1.00
H55    H     0.16510   0.49920   0.17780   0.01267  Uiso   1.00
H56    H     0.17750   0.39430   0.18310   0.01267  Uiso   1.00
H57    H     0.94320   0.37610   0.36910   0.01267  Uiso   1.00
H58    H     0.83220   0.44390   0.44610   0.01267  Uiso   1.00
H59    H     0.82860   0.54610   0.44310   0.01267  Uiso   1.00
H60    H     0.92810   0.58230   0.36210   0.01267  Uiso   1.00
H61    H     0.80950   0.00770   0.20450   0.01267  Uiso   1.00
H62    H     0.81350   0.90600   0.20540   0.01267  Uiso   1.00
H63    H     0.88070   0.82090   0.38230   0.01267  Uiso   1.00
H64    H     0.90090   0.85710   0.46230   0.01267  Uiso   1.00
H65    H     0.88290   0.96060   0.47060   0.01267  Uiso   1.00
H66    H     0.85520   0.02770   0.39070   0.01267  Uiso   1.00
H67    H     0.15410   0.67530   0.04930   0.01267  Uiso   1.00
H68    H     0.22550   0.69520   0.94660   0.01267  Uiso   1.00
H69    H     0.01960   0.88230   0.90890   0.01267  Uiso   1.00
H70    H     0.87520   0.94990   0.96350   0.01267  Uiso   1.00
H71    H     0.79770   0.92570   0.06610   0.01267  Uiso   1.00
H72    H     0.87050   0.83720   0.11300   0.01267  Uiso   1.00
H73    H     0.41430   0.00080   0.67780   0.01267  Uiso   1.00
H74    H     0.32180   0.10570   0.68310   0.01267  Uiso   1.00
H75    H     0.06930   0.12390   0.86910   0.01267  Uiso   1.00
H76    H     0.02610   0.05610   0.94610   0.01267  Uiso   1.00
H77    H     0.12470   0.95390   0.94310   0.01267  Uiso   1.00
H78    H     0.26040   0.91770   0.86210   0.01267  Uiso   1.00
H79    H     0.56720   0.49230   0.70450   0.01267  Uiso   1.00
H80    H     0.46950   0.59400   0.70540   0.01267  Uiso   1.00
H81    H     0.45160   0.67910   0.88230   0.01267  Uiso   1.00
H82    H     0.50800   0.64290   0.96230   0.01267  Uiso   1.00
H83    H     0.59350   0.53940   0.97060   0.01267  Uiso   1.00
H84    H     0.63290   0.47230   0.89070   0.01267  Uiso   1.00
H85    H     0.57940   0.82470   0.54930   0.01267  Uiso   1.00
H86    H     0.67070   0.80480   0.44660   0.01267  Uiso   1.00
H87    H     0.65190   0.61770   0.40890   0.01267  Uiso   1.00
H88    H     0.57510   0.55010   0.46350   0.01267  Uiso   1.00
H89    H     0.47340   0.57430   0.56610   0.01267  Uiso   1.00
H90    H     0.45770   0.66280   0.61300   0.01267  Uiso   1.00
H91    H     0.09290   0.99920   0.32220   0.01267  Uiso   1.00
H92    H     0.11060   0.89430   0.31690   0.01267  Uiso   1.00
H93    H     0.06230   0.87610   0.13090   0.01267  Uiso   1.00
H94    H     0.02830   0.94390   0.05390   0.01267  Uiso   1.00
H95    H     0.02170   0.04610   0.05690   0.01267  Uiso   1.00
H96    H     0.04020   0.08230   0.13790   0.01267  Uiso   1.00
H97    H     0.76400   0.50770   0.29550   0.01267  Uiso   1.00
H98    H     0.76890   0.40600   0.29460   0.01267  Uiso   1.00
H99    H     0.01300   0.32090   0.11770   0.01267  Uiso   1.00
H100   H     0.11320   0.35710   0.03770   0.01267  Uiso   1.00
H101   H     0.10350   0.46060   0.02940   0.01267  Uiso   1.00
H102   H     0.99590   0.52770   0.10930   0.01267  Uiso   1.00
H103   H     0.95340   0.17530   0.45070   0.01267  Uiso   1.00
H104   H     0.92210   0.19520   0.55340   0.01267  Uiso   1.00
H105   H     0.67850   0.38230   0.59110   0.01267  Uiso   1.00
H106   H     0.58870   0.44990   0.53650   0.01267  Uiso   1.00
H107   H     0.61380   0.42570   0.43390   0.01267  Uiso   1.00
H108   H     0.73350   0.33720   0.38700   0.01267  Uiso   1.00
H109   H     0.66510   0.17780   0.49920   0.01267  Uiso   1.00
H110   H     0.67750   0.18310   0.39430   0.01267  Uiso   1.00
H111   H     0.44320   0.36910   0.37610   0.01267  Uiso   1.00
H112   H     0.33220   0.44610   0.44390   0.01267  Uiso   1.00
H113   H     0.32860   0.44310   0.54610   0.01267  Uiso   1.00
H114   H     0.42810   0.36210   0.58230   0.01267  Uiso   1.00
H115   H     0.30950   0.20450   0.00770   0.01267  Uiso   1.00
H116   H     0.31350   0.20540   0.90600   0.01267  Uiso   1.00
H117   H     0.38070   0.38230   0.82090   0.01267  Uiso   1.00
H118   H     0.40090   0.46230   0.85710   0.01267  Uiso   1.00
H119   H     0.38290   0.47060   0.96060   0.01267  Uiso   1.00
H120   H     0.35520   0.39070   0.02770   0.01267  Uiso   1.00
H121   H     0.65410   0.04930   0.67530   0.01267  Uiso   1.00
H122   H     0.72550   0.94660   0.69520   0.01267  Uiso   1.00
H123   H     0.51960   0.90890   0.88230   0.01267  Uiso   1.00
H124   H     0.37520   0.96350   0.94990   0.01267  Uiso   1.00
H125   H     0.29770   0.06610   0.92570   0.01267  Uiso   1.00
H126   H     0.37050   0.11300   0.83720   0.01267  Uiso   1.00
H127   H     0.34210   0.82220   0.50080   0.01267  Uiso   1.00
H128   H     0.25490   0.81690   0.60570   0.01267  Uiso   1.00
H129   H     0.18840   0.63090   0.62390   0.01267  Uiso   1.00
H130   H     0.22220   0.55390   0.55610   0.01267  Uiso   1.00
H131   H     0.31780   0.55690   0.45390   0.01267  Uiso   1.00
H132   H     0.37250   0.63790   0.41770   0.01267  Uiso   1.00
H133   H     0.52170   0.79550   0.99230   0.01267  Uiso   1.00
H134   H     0.42490   0.79460   0.09400   0.01267  Uiso   1.00
H135   H     0.58390   0.61770   0.17910   0.01267  Uiso   1.00
H136   H     0.72030   0.53770   0.14290   0.01267  Uiso   1.00
H137   H     0.81410   0.52940   0.03940   0.01267  Uiso   1.00
H138   H     0.77360   0.60930   0.97230   0.01267  Uiso   1.00
H139   H     0.37870   0.95070   0.32470   0.01267  Uiso   1.00
H140   H     0.36730   0.05340   0.30480   0.01267  Uiso   1.00
H141   H     0.31080   0.09110   0.11770   0.01267  Uiso   1.00
H142   H     0.28860   0.03650   0.05010   0.01267  Uiso   1.00
H143   H     0.28950   0.93390   0.07430   0.01267  Uiso   1.00
H144   H     0.32070   0.88700   0.16280   0.01267  Uiso   1.00
C1     C     0.56940   0.24100   0.02340   0.01267  Uiso   1.00
C2     C     0.58770   0.28790   0.98430   0.01267  Uiso   1.00
C3     C     0.59860   0.28440   0.92060   0.01267  Uiso   1.00
C4     C     0.59190   0.23530   0.89710   0.01267  Uiso   1.00
C5     C     0.57100   0.18560   0.93700   0.01267  Uiso   1.00
C6     C     0.55760   0.13340   0.91740   0.01267  Uiso   1.00
C7     C     0.53800   0.08690   0.95770   0.01267  Uiso   1.00
C8     C     0.53290   0.08930   0.01930   0.01267  Uiso   1.00
C9     C     0.54390   0.13770   0.04090   0.01267  Uiso   1.00
C10    C     0.56120   0.18850   0.00170   0.01267  Uiso   1.00
C11    C     0.56570   0.24720   0.08880   0.01267  Uiso   1.00
C12    C     0.60450   0.23650   0.82970   0.01267  Uiso   1.00
C13    C     0.36870   0.21390   0.50550   0.01267  Uiso   1.00
C14    C     0.30810   0.26250   0.48190   0.01267  Uiso   1.00
C15    C     0.31240   0.26260   0.42020   0.01267  Uiso   1.00
C16    C     0.38000   0.21600   0.37960   0.01267  Uiso   1.00
C17    C     0.44140   0.16570   0.40150   0.01267  Uiso   1.00
C18    C     0.50870   0.11710   0.36250   0.01267  Uiso   1.00
C19    C     0.56770   0.06890   0.38450   0.01267  Uiso   1.00
C20    C     0.56350   0.06400   0.44640   0.01267  Uiso   1.00
C21    C     0.49830   0.11160   0.48640   0.01267  Uiso   1.00
C22    C     0.43540   0.16370   0.46630   0.01267  Uiso   1.00
C23    C     0.35650   0.22070   0.57290   0.01267  Uiso   1.00
C24    C     0.37800   0.22200   0.31380   0.01267  Uiso   1.00
C25    C     0.35230   0.43410   0.24810   0.01267  Uiso   1.00
C26    C     0.40400   0.46900   0.21080   0.01267  Uiso   1.00
C27    C     0.38670   0.53070   0.22290   0.01267  Uiso   1.00
C28    C     0.31600   0.55810   0.27690   0.01267  Uiso   1.00
C29    C     0.26170   0.52280   0.31860   0.01267  Uiso   1.00
C30    C     0.18950   0.55010   0.37330   0.01267  Uiso   1.00
C31    C     0.13540   0.51810   0.41350   0.01267  Uiso   1.00
C32    C     0.15130   0.45610   0.39910   0.01267  Uiso   1.00
C33    C     0.22260   0.42830   0.34550   0.01267  Uiso   1.00
C34    C     0.27890   0.46110   0.30330   0.01267  Uiso   1.00
C35    C     0.37670   0.36860   0.22840   0.01267  Uiso   1.00
C36    C     0.29990   0.62320   0.28980   0.01267  Uiso   1.00
C37    C     0.83380   0.75900   0.97660   0.01267  Uiso   1.00
C38    C     0.85990   0.71210   0.01570   0.01267  Uiso   1.00
C39    C     0.80360   0.71560   0.07940   0.01267  Uiso   1.00
C40    C     0.72430   0.76470   0.10290   0.01267  Uiso   1.00
C41    C     0.69360   0.81440   0.06300   0.01267  Uiso   1.00
C42    C     0.60840   0.86660   0.08260   0.01267  Uiso   1.00
C43    C     0.58260   0.91310   0.04230   0.01267  Uiso   1.00
C44    C     0.64150   0.91070   0.98070   0.01267  Uiso   1.00
C45    C     0.72250   0.86230   0.95910   0.01267  Uiso   1.00
C46    C     0.75140   0.81150   0.99830   0.01267  Uiso   1.00
C47    C     0.90170   0.75280   0.91120   0.01267  Uiso   1.00
C48    C     0.67070   0.76350   0.17030   0.01267  Uiso   1.00
C49    C     0.08810   0.78610   0.49450   0.01267  Uiso   1.00
C50    C     0.05250   0.73750   0.51810   0.01267  Uiso   1.00
C51    C     0.99520   0.73740   0.57980   0.01267  Uiso   1.00
C52    C     0.97560   0.78400   0.62040   0.01267  Uiso   1.00
C53    C     0.00860   0.83430   0.59850   0.01267  Uiso   1.00
C54    C     0.98830   0.88290   0.63750   0.01267  Uiso   1.00
C55    C     0.02110   0.93110   0.61550   0.01267  Uiso   1.00
C56    C     0.07390   0.93600   0.55360   0.01267  Uiso   1.00
C57    C     0.09630   0.88840   0.51360   0.01267  Uiso   1.00
C58    C     0.06540   0.83630   0.53370   0.01267  Uiso   1.00
C59    C     0.15010   0.77930   0.42710   0.01267  Uiso   1.00
C60    C     0.91380   0.77800   0.68620   0.01267  Uiso   1.00
C61    C     0.03450   0.56590   0.75190   0.01267  Uiso   1.00
C62    C     0.08380   0.53100   0.78920   0.01267  Uiso   1.00
C63    C     0.14030   0.46930   0.77710   0.01267  Uiso   1.00
C64    C     0.15100   0.44190   0.72310   0.01267  Uiso   1.00
C65    C     0.10310   0.47720   0.68140   0.01267  Uiso   1.00
C66    C     0.11290   0.44990   0.62670   0.01267  Uiso   1.00
C67    C     0.06700   0.48190   0.58650   0.01267  Uiso   1.00
C68    C     0.00650   0.54390   0.60090   0.01267  Uiso   1.00
C69    C     0.99640   0.57170   0.65450   0.01267  Uiso   1.00
C70    C     0.04330   0.53890   0.69670   0.01267  Uiso   1.00
C71    C     0.97370   0.63140   0.77160   0.01267  Uiso   1.00
C72    C     0.21290   0.37680   0.71020   0.01267  Uiso   1.00
C73    C     0.84280   0.47660   0.74100   0.01267  Uiso   1.00
C74    C     0.82200   0.51570   0.78790   0.01267  Uiso   1.00
C75    C     0.76920   0.57940   0.78440   0.01267  Uiso   1.00
C76    C     0.73900   0.60290   0.73530   0.01267  Uiso   1.00
C77    C     0.75800   0.56300   0.68560   0.01267  Uiso   1.00
C78    C     0.72500   0.58260   0.63340   0.01267  Uiso   1.00
C79    C     0.74570   0.54230   0.58690   0.01267  Uiso   1.00
C80    C     0.80220   0.48070   0.58930   0.01267  Uiso   1.00
C81    C     0.83480   0.45910   0.63770   0.01267  Uiso   1.00
C82    C     0.81290   0.49830   0.68850   0.01267  Uiso   1.00
C83    C     0.90450   0.41120   0.74720   0.01267  Uiso   1.00
C84    C     0.68420   0.67030   0.73650   0.01267  Uiso   1.00
C85    C     0.12420   0.99450   0.71390   0.01267  Uiso   1.00
C86    C     0.04000   0.01810   0.76250   0.01267  Uiso   1.00
C87    C     0.98260   0.07980   0.76260   0.01267  Uiso   1.00
C88    C     0.00960   0.12040   0.71600   0.01267  Uiso   1.00
C89    C     0.09290   0.09850   0.66570   0.01267  Uiso   1.00
C90    C     0.12120   0.13750   0.61710   0.01267  Uiso   1.00
C91    C     0.20220   0.11550   0.56890   0.01267  Uiso   1.00
C92    C     0.25990   0.05360   0.56400   0.01267  Uiso   1.00
C93    C     0.23470   0.01360   0.61160   0.01267  Uiso   1.00
C94    C     0.15170   0.03370   0.66370   0.01267  Uiso   1.00
C95    C     0.17940   0.92710   0.72070   0.01267  Uiso   1.00
C96    C     0.94180   0.18620   0.72200   0.01267  Uiso   1.00
C97    C     0.85040   0.25190   0.93410   0.01267  Uiso   1.00
C98    C     0.86480   0.28920   0.96900   0.01267  Uiso   1.00
C99    C     0.85960   0.27710   0.03070   0.01267  Uiso   1.00
C100   C     0.84290   0.22310   0.05810   0.01267  Uiso   1.00
C101   C     0.83030   0.18140   0.02280   0.01267  Uiso   1.00
C102   C     0.81280   0.12670   0.05010   0.01267  Uiso   1.00
C103   C     0.79890   0.08650   0.01810   0.01267  Uiso   1.00
C104   C     0.80040   0.10090   0.95610   0.01267  Uiso   1.00
C105   C     0.81810   0.15450   0.92830   0.01267  Uiso   1.00
C106   C     0.83220   0.19670   0.96110   0.01267  Uiso   1.00
C107   C     0.85510   0.27160   0.86860   0.01267  Uiso   1.00
C108   C     0.83970   0.21020   0.12320   0.01267  Uiso   1.00
C109   C     0.06040   0.52340   0.25900   0.01267  Uiso   1.00
C110   C     0.12560   0.48430   0.21210   0.01267  Uiso   1.00
C111   C     0.13300   0.42060   0.21560   0.01267  Uiso   1.00
C112   C     0.07720   0.39710   0.26470   0.01267  Uiso   1.00
C113   C     0.00660   0.43700   0.31440   0.01267  Uiso   1.00
C114   C     0.94100   0.41740   0.36660   0.01267  Uiso   1.00
C115   C     0.87490   0.45770   0.41310   0.01267  Uiso   1.00
C116   C     0.87220   0.51930   0.41070   0.01267  Uiso   1.00
C117   C     0.93160   0.54090   0.36230   0.01267  Uiso   1.00
C118   C     0.99970   0.50170   0.31150   0.01267  Uiso   1.00
C119   C     0.06290   0.58880   0.25280   0.01267  Uiso   1.00
C120   C     0.09100   0.32970   0.26350   0.01267  Uiso   1.00
C121   C     0.83260   0.00550   0.28610   0.01267  Uiso   1.00
C122   C     0.82060   0.98190   0.23750   0.01267  Uiso   1.00
C123   C     0.82500   0.92020   0.23740   0.01267  Uiso   1.00
C124   C     0.84600   0.87960   0.28400   0.01267  Uiso   1.00
C125   C     0.85710   0.90150   0.33430   0.01267  Uiso   1.00
C126   C     0.87580   0.86250   0.38290   0.01267  Uiso   1.00
C127   C     0.88660   0.88450   0.43110   0.01267  Uiso   1.00
C128   C     0.87750   0.94640   0.43600   0.01267  Uiso   1.00
C129   C     0.85990   0.98640   0.38840   0.01267  Uiso   1.00
C130   C     0.84910   0.96630   0.33630   0.01267  Uiso   1.00
C131   C     0.82720   0.07290   0.27930   0.01267  Uiso   1.00
C132   C     0.85000   0.81380   0.27800   0.01267  Uiso   1.00
C133   C     0.03640   0.74810   0.06590   0.01267  Uiso   1.00
C134   C     0.12300   0.71080   0.03100   0.01267  Uiso   1.00
C135   C     0.16740   0.72290   0.96930   0.01267  Uiso   1.00
C136   C     0.12410   0.77690   0.94190   0.01267  Uiso   1.00
C137   C     0.03450   0.81860   0.97720   0.01267  Uiso   1.00
C138   C     0.98960   0.87330   0.94990   0.01267  Uiso   1.00
C139   C     0.90350   0.91350   0.98190   0.01267  Uiso   1.00
C140   C     0.85740   0.89910   0.04390   0.01267  Uiso   1.00
C141   C     0.90090   0.84550   0.07170   0.01267  Uiso   1.00
C142   C     0.99000   0.80330   0.03890   0.01267  Uiso   1.00
C143   C     0.99530   0.72840   0.13140   0.01267  Uiso   1.00
C144   C     0.17310   0.78980   0.87680   0.01267  Uiso   1.00
C145   C     0.33380   0.97660   0.75900   0.01267  Uiso   1.00
C146   C     0.35990   0.01570   0.71210   0.01267  Uiso   1.00
C147   C     0.30360   0.07940   0.71560   0.01267  Uiso   1.00
C148   C     0.22430   0.10290   0.76470   0.01267  Uiso   1.00
C149   C     0.19360   0.06300   0.81440   0.01267  Uiso   1.00
C150   C     0.10840   0.08260   0.86660   0.01267  Uiso   1.00
C151   C     0.08260   0.04230   0.91310   0.01267  Uiso   1.00
C152   C     0.14150   0.98070   0.91070   0.01267  Uiso   1.00
C153   C     0.22250   0.95910   0.86230   0.01267  Uiso   1.00
C154   C     0.25140   0.99830   0.81150   0.01267  Uiso   1.00
C155   C     0.40170   0.91120   0.75280   0.01267  Uiso   1.00
C156   C     0.17070   0.17030   0.76350   0.01267  Uiso   1.00
C157   C     0.58810   0.49450   0.78610   0.01267  Uiso   1.00
C158   C     0.55250   0.51810   0.73750   0.01267  Uiso   1.00
C159   C     0.49520   0.57980   0.73740   0.01267  Uiso   1.00
C160   C     0.47560   0.62040   0.78400   0.01267  Uiso   1.00
C161   C     0.50860   0.59850   0.83430   0.01267  Uiso   1.00
C162   C     0.48830   0.63750   0.88290   0.01267  Uiso   1.00
C163   C     0.52110   0.61550   0.93110   0.01267  Uiso   1.00
C164   C     0.57390   0.55360   0.93600   0.01267  Uiso   1.00
C165   C     0.59630   0.51360   0.88840   0.01267  Uiso   1.00
C166   C     0.56540   0.53370   0.83630   0.01267  Uiso   1.00
C167   C     0.65010   0.42710   0.77930   0.01267  Uiso   1.00
C168   C     0.41380   0.68620   0.77800   0.01267  Uiso   1.00
C169   C     0.53450   0.75190   0.56590   0.01267  Uiso   1.00
C170   C     0.58380   0.78920   0.53100   0.01267  Uiso   1.00
C171   C     0.64030   0.77710   0.46930   0.01267  Uiso   1.00
C172   C     0.65100   0.72310   0.44190   0.01267  Uiso   1.00
C173   C     0.60310   0.68140   0.47720   0.01267  Uiso   1.00
C174   C     0.61290   0.62670   0.44990   0.01267  Uiso   1.00
C175   C     0.56700   0.58650   0.48190   0.01267  Uiso   1.00
C176   C     0.50650   0.60090   0.54390   0.01267  Uiso   1.00
C177   C     0.49640   0.65450   0.57170   0.01267  Uiso   1.00
C178   C     0.54330   0.69670   0.53890   0.01267  Uiso   1.00
C179   C     0.47370   0.77160   0.63140   0.01267  Uiso   1.00
C180   C     0.71290   0.71020   0.37680   0.01267  Uiso   1.00
C181   C     0.06940   0.02340   0.24100   0.01267  Uiso   1.00
C182   C     0.08770   0.98430   0.28790   0.01267  Uiso   1.00
C183   C     0.09860   0.92060   0.28440   0.01267  Uiso   1.00
C184   C     0.09190   0.89710   0.23530   0.01267  Uiso   1.00
C185   C     0.07100   0.93700   0.18560   0.01267  Uiso   1.00
C186   C     0.05760   0.91740   0.13340   0.01267  Uiso   1.00
C187   C     0.03800   0.95770   0.08690   0.01267  Uiso   1.00
C188   C     0.03290   0.01930   0.08930   0.01267  Uiso   1.00
C189   C     0.04390   0.04090   0.13770   0.01267  Uiso   1.00
C190   C     0.06120   0.00170   0.18850   0.01267  Uiso   1.00
C191   C     0.06570   0.08880   0.24720   0.01267  Uiso   1.00
C192   C     0.10450   0.82970   0.23650   0.01267  Uiso   1.00
C193   C     0.86870   0.50550   0.21390   0.01267  Uiso   1.00
C194   C     0.80810   0.48190   0.26250   0.01267  Uiso   1.00
C195   C     0.81240   0.42020   0.26260   0.01267  Uiso   1.00
C196   C     0.88000   0.37960   0.21600   0.01267  Uiso   1.00
C197   C     0.94140   0.40150   0.16570   0.01267  Uiso   1.00
C198   C     0.00870   0.36250   0.11710   0.01267  Uiso   1.00
C199   C     0.06770   0.38450   0.06890   0.01267  Uiso   1.00
C200   C     0.06350   0.44640   0.06400   0.01267  Uiso   1.00
C201   C     0.99830   0.48640   0.11160   0.01267  Uiso   1.00
C202   C     0.93540   0.46630   0.16370   0.01267  Uiso   1.00
C203   C     0.85650   0.57290   0.22070   0.01267  Uiso   1.00
C204   C     0.87800   0.31380   0.22200   0.01267  Uiso   1.00
C205   C     0.85230   0.24810   0.43410   0.01267  Uiso   1.00
C206   C     0.90400   0.21080   0.46900   0.01267  Uiso   1.00
C207   C     0.88670   0.22290   0.53070   0.01267  Uiso   1.00
C208   C     0.81600   0.27690   0.55810   0.01267  Uiso   1.00
C209   C     0.76170   0.31860   0.52280   0.01267  Uiso   1.00
C210   C     0.68950   0.37330   0.55010   0.01267  Uiso   1.00
C211   C     0.63540   0.41350   0.51810   0.01267  Uiso   1.00
C212   C     0.65130   0.39910   0.45610   0.01267  Uiso   1.00
C213   C     0.72260   0.34550   0.42830   0.01267  Uiso   1.00
C214   C     0.77890   0.30330   0.46110   0.01267  Uiso   1.00
C215   C     0.87670   0.22840   0.36860   0.01267  Uiso   1.00
C216   C     0.79990   0.28980   0.62320   0.01267  Uiso   1.00
C217   C     0.56040   0.25900   0.52340   0.01267  Uiso   1.00
C218   C     0.62560   0.21210   0.48430   0.01267  Uiso   1.00
C219   C     0.63300   0.21560   0.42060   0.01267  Uiso   1.00
C220   C     0.57720   0.26470   0.39710   0.01267  Uiso   1.00
C221   C     0.50660   0.31440   0.43700   0.01267  Uiso   1.00
C222   C     0.44100   0.36660   0.41740   0.01267  Uiso   1.00
C223   C     0.37490   0.41310   0.45770   0.01267  Uiso   1.00
C224   C     0.37220   0.41070   0.51930   0.01267  Uiso   1.00
C225   C     0.43160   0.36230   0.54090   0.01267  Uiso   1.00
C226   C     0.49970   0.31150   0.50170   0.01267  Uiso   1.00
C227   C     0.56290   0.25280   0.58880   0.01267  Uiso   1.00
C228   C     0.59100   0.26350   0.32970   0.01267  Uiso   1.00
C229   C     0.33260   0.28610   0.00550   0.01267  Uiso   1.00
C230   C     0.32060   0.23750   0.98190   0.01267  Uiso   1.00
C231   C     0.32500   0.23740   0.92020   0.01267  Uiso   1.00
C232   C     0.34600   0.28400   0.87960   0.01267  Uiso   1.00
C233   C     0.35710   0.33430   0.90150   0.01267  Uiso   1.00
C234   C     0.37580   0.38290   0.86250   0.01267  Uiso   1.00
C235   C     0.38660   0.43110   0.88450   0.01267  Uiso   1.00
C236   C     0.37750   0.43600   0.94640   0.01267  Uiso   1.00
C237   C     0.35990   0.38840   0.98640   0.01267  Uiso   1.00
C238   C     0.34910   0.33630   0.96630   0.01267  Uiso   1.00
C239   C     0.32720   0.27930   0.07290   0.01267  Uiso   1.00
C240   C     0.35000   0.27800   0.81380   0.01267  Uiso   1.00
C241   C     0.53640   0.06590   0.74810   0.01267  Uiso   1.00
C242   C     0.62300   0.03100   0.71080   0.01267  Uiso   1.00
C243   C     0.66740   0.96930   0.72290   0.01267  Uiso   1.00
C244   C     0.62410   0.94190   0.77690   0.01267  Uiso   1.00
C245   C     0.53450   0.97720   0.81860   0.01267  Uiso   1.00
C246   C     0.48960   0.94990   0.87330   0.01267  Uiso   1.00
C247   C     0.40350   0.98190   0.91350   0.01267  Uiso   1.00
C248   C     0.35740   0.04390   0.89910   0.01267  Uiso   1.00
C249   C     0.40090   0.07170   0.84550   0.01267  Uiso   1.00
C250   C     0.49000   0.03890   0.80330   0.01267  Uiso   1.00
C251   C     0.49530   0.13140   0.72840   0.01267  Uiso   1.00
C252   C     0.67310   0.87680   0.78980   0.01267  Uiso   1.00
C253   C     0.34280   0.74100   0.47660   0.01267  Uiso   1.00
C254   C     0.32200   0.78790   0.51570   0.01267  Uiso   1.00
C255   C     0.26920   0.78440   0.57940   0.01267  Uiso   1.00
C256   C     0.23900   0.73530   0.60290   0.01267  Uiso   1.00
C257   C     0.25800   0.68560   0.56300   0.01267  Uiso   1.00
C258   C     0.22500   0.63340   0.58260   0.01267  Uiso   1.00
C259   C     0.24570   0.58690   0.54230   0.01267  Uiso   1.00
C260   C     0.30220   0.58930   0.48070   0.01267  Uiso   1.00
C261   C     0.33480   0.63770   0.45910   0.01267  Uiso   1.00
C262   C     0.31290   0.68850   0.49830   0.01267  Uiso   1.00
C263   C     0.40450   0.74720   0.41120   0.01267  Uiso   1.00
C264   C     0.18420   0.73650   0.67030   0.01267  Uiso   1.00
C265   C     0.62420   0.71390   0.99450   0.01267  Uiso   1.00
C266   C     0.54000   0.76250   0.01810   0.01267  Uiso   1.00
C267   C     0.48260   0.76260   0.07980   0.01267  Uiso   1.00
C268   C     0.50960   0.71600   0.12040   0.01267  Uiso   1.00
C269   C     0.59290   0.66570   0.09850   0.01267  Uiso   1.00
C270   C     0.62120   0.61710   0.13750   0.01267  Uiso   1.00
C271   C     0.70220   0.56890   0.11550   0.01267  Uiso   1.00
C272   C     0.75990   0.56400   0.05360   0.01267  Uiso   1.00
C273   C     0.73470   0.61160   0.01360   0.01267  Uiso   1.00
C274   C     0.65170   0.66370   0.03370   0.01267  Uiso   1.00
C275   C     0.67940   0.72070   0.92710   0.01267  Uiso   1.00
C276   C     0.44180   0.72200   0.18620   0.01267  Uiso   1.00
C277   C     0.35040   0.93410   0.25190   0.01267  Uiso   1.00
C278   C     0.36480   0.96900   0.28920   0.01267  Uiso   1.00
C279   C     0.35960   0.03070   0.27710   0.01267  Uiso   1.00
C280   C     0.34290   0.05810   0.22310   0.01267  Uiso   1.00
C281   C     0.33030   0.02280   0.18140   0.01267  Uiso   1.00
C282   C     0.31280   0.05010   0.12670   0.01267  Uiso   1.00
C283   C     0.29890   0.01810   0.08650   0.01267  Uiso   1.00
C284   C     0.30040   0.95610   0.10090   0.01267  Uiso   1.00
C285   C     0.31810   0.92830   0.15450   0.01267  Uiso   1.00
C286   C     0.33220   0.96110   0.19670   0.01267  Uiso   1.00
C287   C     0.35510   0.86860   0.27160   0.01267  Uiso   1.00
C288   C     0.33970   0.12320   0.21020   0.01267  Uiso   1.00
O1     O     0.50684   0.22890   0.13522   0.01267  Uiso   1.00
O2     O     0.62094   0.26967   0.09765   0.01267  Uiso   1.00
O3     O     0.64356   0.27395   0.79353   0.01267  Uiso   1.00
O4     O     0.57843   0.20023   0.80811   0.01267  Uiso   1.00
O5     O     0.40717   0.18112   0.60114   0.01267  Uiso   1.00
O6     O     0.29449   0.26965   0.60237   0.01267  Uiso   1.00
O7     O     0.45163   0.22166   0.26788   0.01267  Uiso   1.00
O8     O     0.30075   0.22913   0.30577   0.01267  Uiso   1.00
O9     O     0.46360   0.34080   0.20060   0.01267  Uiso   1.00
O10    O     0.31450   0.34440   0.23860   0.01267  Uiso   1.00
O11    O     0.36014   0.63682   0.30390   0.01267  Uiso   1.00
O12    O     0.22829   0.66677   0.28285   0.01267  Uiso   1.00
O13    O     0.87096   0.77110   0.86478   0.01267  Uiso   1.00
O14    O     0.98826   0.73033   0.90235   0.01267  Uiso   1.00
O15    O     0.71104   0.72605   0.20647   0.01267  Uiso   1.00
O16    O     0.58677   0.79977   0.19189   0.01267  Uiso   1.00
O17    O     0.18943   0.81888   0.39886   0.01267  Uiso   1.00
O18    O     0.16651   0.73035   0.39763   0.01267  Uiso   1.00
O19    O     0.94117   0.77834   0.73212   0.01267  Uiso   1.00
O20    O     0.83565   0.77087   0.69423   0.01267  Uiso   1.00
O21    O     0.00500   0.65920   0.79940   0.01267  Uiso   1.00
O22    O     0.89750   0.65560   0.76140   0.01267  Uiso   1.00
O23    O     0.30086   0.36318   0.69610   0.01267  Uiso   1.00
O24    O     0.17791   0.33323   0.71715   0.01267  Uiso   1.00
O25    O     0.89206   0.36478   0.72890   0.01267  Uiso   1.00
O26    O     0.96859   0.40235   0.76967   0.01267  Uiso   1.00
O27    O     0.68709   0.70647   0.77395   0.01267  Uiso   1.00
O28    O     0.63654   0.69189   0.70023   0.01267  Uiso   1.00
O29    O     0.25831   0.89886   0.68112   0.01267  Uiso   1.00
O30    O     0.14686   0.89763   0.76965   0.01267  Uiso   1.00
O31    O     0.96951   0.23212   0.72166   0.01267  Uiso   1.00
O32    O     0.85652   0.19423   0.72913   0.01267  Uiso   1.00
O33    O     0.91420   0.29940   0.84080   0.01267  Uiso   1.00
O34    O     0.80310   0.26140   0.84440   0.01267  Uiso   1.00
O35    O     0.91404   0.19610   0.13682   0.01267  Uiso   1.00
O36    O     0.76114   0.21715   0.16677   0.01267  Uiso   1.00
O37    O     0.98574   0.63522   0.27110   0.01267  Uiso   1.00
O38    O     0.14061   0.59765   0.23033   0.01267  Uiso   1.00
O39    O     0.16751   0.29353   0.22605   0.01267  Uiso   1.00
O40    O     0.02866   0.30811   0.29977   0.01267  Uiso   1.00
O41    O     0.83829   0.10114   0.31888   0.01267  Uiso   1.00
O42    O     0.81414   0.10237   0.23035   0.01267  Uiso   1.00
O43    O     0.92329   0.76788   0.27834   0.01267  Uiso   1.00
O44    O     0.77988   0.80577   0.27087   0.01267  Uiso   1.00
O45    O     0.05440   0.70060   0.15920   0.01267  Uiso   1.00
O46    O     0.90890   0.73860   0.15560   0.01267  Uiso   1.00
O47    O     0.24696   0.80390   0.86318   0.01267  Uiso   1.00
O48    O     0.14506   0.78285   0.83323   0.01267  Uiso   1.00
O49    O     0.37096   0.86478   0.77110   0.01267  Uiso   1.00
O50    O     0.48826   0.90235   0.73033   0.01267  Uiso   1.00
O51    O     0.21104   0.20647   0.72605   0.01267  Uiso   1.00
O52    O     0.08677   0.19189   0.79977   0.01267  Uiso   1.00
O53    O     0.68943   0.39886   0.81888   0.01267  Uiso   1.00
O54    O     0.66651   0.39763   0.73035   0.01267  Uiso   1.00
O55    O     0.44117   0.73212   0.77834   0.01267  Uiso   1.00
O56    O     0.33565   0.69423   0.77087   0.01267  Uiso   1.00
O57    O     0.50500   0.79940   0.65920   0.01267  Uiso   1.00
O58    O     0.39750   0.76140   0.65560   0.01267  Uiso   1.00
O59    O     0.80086   0.69610   0.36318   0.01267  Uiso   1.00
O60    O     0.67791   0.71715   0.33323   0.01267  Uiso   1.00
O61    O     0.00684   0.13522   0.22890   0.01267  Uiso   1.00
O62    O     0.12094   0.09765   0.26967   0.01267  Uiso   1.00
O63    O     0.14356   0.79353   0.27395   0.01267  Uiso   1.00
O64    O     0.07843   0.80811   0.20023   0.01267  Uiso   1.00
O65    O     0.90717   0.60114   0.18112   0.01267  Uiso   1.00
O66    O     0.79449   0.60237   0.26965   0.01267  Uiso   1.00
O67    O     0.95163   0.26788   0.22166   0.01267  Uiso   1.00
O68    O     0.80075   0.30577   0.22913   0.01267  Uiso   1.00
O69    O     0.96360   0.20060   0.34080   0.01267  Uiso   1.00
O70    O     0.81450   0.23860   0.34440   0.01267  Uiso   1.00
O71    O     0.86014   0.30390   0.63682   0.01267  Uiso   1.00
O72    O     0.72829   0.28285   0.66677   0.01267  Uiso   1.00
O73    O     0.48574   0.27110   0.63522   0.01267  Uiso   1.00
O74    O     0.64061   0.23033   0.59765   0.01267  Uiso   1.00
O75    O     0.66751   0.22605   0.29353   0.01267  Uiso   1.00
O76    O     0.52866   0.29977   0.30811   0.01267  Uiso   1.00
O77    O     0.33829   0.31888   0.10114   0.01267  Uiso   1.00
O78    O     0.31414   0.23035   0.10237   0.01267  Uiso   1.00
O79    O     0.42329   0.27834   0.76788   0.01267  Uiso   1.00
O80    O     0.27988   0.27087   0.80577   0.01267  Uiso   1.00
O81    O     0.55440   0.15920   0.70060   0.01267  Uiso   1.00
O82    O     0.40890   0.15560   0.73860   0.01267  Uiso   1.00
O83    O     0.74696   0.86318   0.80390   0.01267  Uiso   1.00
O84    O     0.64506   0.83323   0.78285   0.01267  Uiso   1.00
O85    O     0.39206   0.72890   0.36478   0.01267  Uiso   1.00
O86    O     0.46859   0.76967   0.40235   0.01267  Uiso   1.00
O87    O     0.18709   0.77395   0.70647   0.01267  Uiso   1.00
O88    O     0.13654   0.70023   0.69189   0.01267  Uiso   1.00
O89    O     0.75831   0.68112   0.89886   0.01267  Uiso   1.00
O90    O     0.64686   0.76965   0.89763   0.01267  Uiso   1.00
O91    O     0.46951   0.72166   0.23212   0.01267  Uiso   1.00
O92    O     0.35652   0.72913   0.19423   0.01267  Uiso   1.00
O93    O     0.41420   0.84080   0.29940   0.01267  Uiso   1.00
O94    O     0.30310   0.84440   0.26140   0.01267  Uiso   1.00
O95    O     0.41404   0.13682   0.19610   0.01267  Uiso   1.00
O96    O     0.26114   0.16677   0.21715   0.01267  Uiso   1.00
