data_image0
_cell_length_a       9.6116
_cell_length_b       11.2542
_cell_length_c       12.5565
_cell_angle_alpha    103.502
_cell_angle_beta     94.5298
_cell_angle_gamma    98.3272

_symmetry_space_group_name_H-M    "P 1"
_symmetry_int_tables_number       1

loop_
  _symmetry_equiv_pos_as_xyz
  'x, y, z'

loop_
  _atom_site_label
  _atom_site_occupancy
  _atom_site_fract_x
  _atom_site_fract_y
  _atom_site_fract_z
  _atom_site_thermal_displace_type
  _atom_site_B_iso_or_equiv
  _atom_site_type_symbol
  Ni1      1.0000 0.19479  0.30318  0.41321  Biso   1.000  Ni
  O1       1.0000 0.19808  0.33257  0.27708  Biso   1.000  O
  O2       1.0000 0.96844  0.35424  0.28951  Biso   1.000  O
  O3       1.0000 0.99837  0.45226  0.51095  Biso   1.000  O
  O4       1.0000 0.85656  0.17949  0.36839  Biso   1.000  O
  N1       1.0000 0.39648  0.28860  0.45222  Biso   1.000  N
  C1       1.0000 0.46677  0.38180  0.55339  Biso   1.000  C
  C2       1.0000 0.43340  0.16415  0.46010  Biso   1.000  C
  C3       1.0000 0.46781  0.32733  0.36389  Biso   1.000  C
  C4       1.0000 0.07968  0.34963  0.23488  Biso   1.000  C
  C5       1.0000 0.05138  0.33694  0.11824  Biso   1.000  C
  C6       1.0000 0.16209  0.32916  0.04763  Biso   1.000  C
  C7       1.0000 0.13238  0.31466  0.93603  Biso   1.000  C
  C8       1.0000 0.24012  0.29752  0.86439  Biso   1.000  C
  C9       1.0000 0.91225  0.33924  0.07635  Biso   1.000  C
  C10      1.0000 0.12087  0.50515  0.49236  Biso   1.000  C
  C11      1.0000 0.10799  0.62931  0.46272  Biso   1.000  C
  C12      1.0000 0.98952  0.68058  0.48637  Biso   1.000  C
  C13      1.0000 0.97820  0.78859  0.45620  Biso   1.000  C
  C14      1.0000 0.85292  0.83898  0.47371  Biso   1.000  C
  C15      1.0000 0.22655  0.68797  0.41929  Biso   1.000  C
  Ni2      1.0000 0.90232  0.32040  0.40886  Biso   1.000  Ni
  O5       1.0000 0.93205  0.30007  0.55543  Biso   1.000  O
  O6       1.0000 0.15854  0.27147  0.54149  Biso   1.000  O
  O7       1.0000 0.08612  0.17004  0.34005  Biso   1.000  O
  O8       1.0000 0.22787  0.43930  0.48854  Biso   1.000  O
  N2       1.0000 0.68266  0.30244  0.47169  Biso   1.000  N
  C16      1.0000 0.63141  0.39080  0.56630  Biso   1.000  C
  C17      1.0000 0.59573  0.17784  0.47192  Biso   1.000  C
  C18      1.0000 0.62905  0.33822  0.37350  Biso   1.000  C
  C19      1.0000 0.04847  0.28038  0.59694  Biso   1.000  C
  C20      1.0000 0.07406  0.29556  0.71355  Biso   1.000  C
  C21      1.0000 0.96388  0.30887  0.78443  Biso   1.000  C
  C22      1.0000 0.99211  0.31711  0.89517  Biso   1.000  C
  C23      1.0000 0.88320  0.32954  0.96609  Biso   1.000  C
  C24      1.0000 0.21105  0.28732  0.75451  Biso   1.000  C
  C25      1.0000 0.96073  0.12856  0.36355  Biso   1.000  C
  C26      1.0000 0.95523  0.99922  0.38907  Biso   1.000  C
  C27      1.0000 0.07774  0.95509  0.37197  Biso   1.000  C
  C28      1.0000 0.09364  0.84869  0.40693  Biso   1.000  C
  C29      1.0000 0.21616  0.79790  0.38686  Biso   1.000  C
  C30      1.0000 0.83939  0.94490  0.43713  Biso   1.000  C
  H1       1.0000 0.26902  0.32702  0.07911  Biso   1.000  H
  H2       1.0000 0.34696  0.29209  0.89307  Biso   1.000  H
  H3       1.0000 0.82526  0.34739  0.12854  Biso   1.000  H
  H4       1.0000 0.85769  0.31606  0.75387  Biso   1.000  H
  H5       1.0000 0.77440  0.32719  0.93536  Biso   1.000  H
  H6       1.0000 0.29656  0.27506  0.70161  Biso   1.000  H
  H7       1.0000 0.90220  0.63192  0.53097  Biso   1.000  H
  H8       1.0000 0.76418  0.79157  0.51793  Biso   1.000  H
  H9       1.0000 0.32705  0.64502  0.41167  Biso   1.000  H
  H10      1.0000 0.16538  0.00625  0.32917  Biso   1.000  H
  H11      1.0000 0.30690  0.84556  0.34443  Biso   1.000  H
  H12      1.0000 0.73930  0.98845  0.44463  Biso   1.000  H
  H13      1.0000 0.43175  0.36886  0.63328  Biso   1.000  H
  H14      1.0000 0.45701  0.47402  0.53559  Biso   1.000  H
  H15      1.0000 0.38661  0.08927  0.38449  Biso   1.000  H
  H16      1.0000 0.38577  0.13345  0.53287  Biso   1.000  H
  H17      1.0000 0.44407  0.42326  0.35747  Biso   1.000  H
  H18      1.0000 0.42357  0.25509  0.28623  Biso   1.000  H
  H19      1.0000 0.68880  0.49294  0.57089  Biso   1.000  H
  H20      1.0000 0.65930  0.36301  0.64425  Biso   1.000  H
  H21      1.0000 0.62625  0.15151  0.55002  Biso   1.000  H
  H22      1.0000 0.62178  0.10410  0.40256  Biso   1.000  H
  H23      1.0000 0.66037  0.27393  0.29993  Biso   1.000  H
  H24      1.0000 0.68142  0.44089  0.37511  Biso   1.000  H
