data_image0
_cell_length_a       12.3052
_cell_length_b       11.8124
_cell_length_c       12.6877
_cell_angle_alpha    90
_cell_angle_beta     98.84
_cell_angle_gamma    90

_symmetry_space_group_name_H-M    "P 1"
_symmetry_int_tables_number       1

loop_
  _symmetry_equiv_pos_as_xyz
  'x, y, z'

loop_
  _atom_site_label
  _atom_site_occupancy
  _atom_site_fract_x
  _atom_site_fract_y
  _atom_site_fract_z
  _atom_site_thermal_displace_type
  _atom_site_B_iso_or_equiv
  _atom_site_type_symbol
  V1       1.0000 0.30204  0.20165  0.11804  Biso   1.000  V
  V2       1.0000 0.26394  0.49596  0.20821  Biso   1.000  V
  V3       1.0000 0.82140  0.24426  0.16086  Biso   1.000  V
  P1       1.0000 0.32471  0.20550  0.86475  Biso   1.000  P
  H1       1.0000 0.43800  0.19200  0.87600  Biso   1.000  H
  P2       1.0000 0.56927  0.16104  0.13350  Biso   1.000  P
  H2       1.0000 0.55900  0.09400  0.03900  Biso   1.000  H
  P3       1.0000 0.23295  0.75175  0.09974  Biso   1.000  P
  H3       1.0000 0.33700  0.80000  0.10300  Biso   1.000  H
  P4       1.0000 0.05904  0.33561  0.11260  Biso   1.000  P
  H4       1.0000 0.01000  0.35200  0.00700  Biso   1.000  H
  O1       1.0000 0.14070  0.24490  0.09560  Biso   1.000  O
  O2       1.0000 0.32430  0.40480  0.14240  Biso   1.000  O
  O3       1.0000 0.30200  0.25310  0.96810  Biso   1.000  O
  O4       1.0000 0.46320  0.22250  0.14490  Biso   1.000  O
  O5       1.0000 0.30380  0.29400  0.77770  Biso   1.000  O
  O6       1.0000 0.25990  0.09720  0.83660  Biso   1.000  O
  O7       1.0000 0.11000  0.44690  0.15540  Biso   1.000  O
  O8       1.0000 0.59950  0.07410  0.22180  Biso   1.000  O
  O9       1.0000 0.24330  0.62350  0.10520  Biso   1.000  O
  O10      1.0000 0.16850  0.78490  0.99260  Biso   1.000  O
  O11      1.0000 0.97800  0.29260  0.18370  Biso   1.000  O
  O12      1.0000 0.16950  0.61240  0.30250  Biso   1.000  O
  O13      1.0000 0.18060  0.80300  0.19080  Biso   1.000  O
  O14      1.0000 0.65790  0.24960  0.12900  Biso   1.000  O
  V4       1.0000 0.69796  0.70165  0.38196  Biso   1.000  V
  V5       1.0000 0.73606  0.99596  0.29179  Biso   1.000  V
  V6       1.0000 0.17860  0.74426  0.33914  Biso   1.000  V
  P5       1.0000 0.67529  0.70550  0.63525  Biso   1.000  P
  H5       1.0000 0.56200  0.69200  0.62400  Biso   1.000  H
  P6       1.0000 0.43073  0.66104  0.36650  Biso   1.000  P
  H6       1.0000 0.44100  0.59400  0.46100  Biso   1.000  H
  P7       1.0000 0.76705  0.25175  0.40026  Biso   1.000  P
  H7       1.0000 0.66300  0.30000  0.39700  Biso   1.000  H
  P8       1.0000 0.94096  0.83561  0.38740  Biso   1.000  P
  H8       1.0000 0.99000  0.85200  0.49300  Biso   1.000  H
  O15      1.0000 0.85930  0.74490  0.40440  Biso   1.000  O
  O16      1.0000 0.67570  0.90480  0.35760  Biso   1.000  O
  O17      1.0000 0.69800  0.75310  0.53190  Biso   1.000  O
  O18      1.0000 0.53680  0.72250  0.35510  Biso   1.000  O
  O19      1.0000 0.69620  0.79400  0.72230  Biso   1.000  O
  O20      1.0000 0.74010  0.59720  0.66340  Biso   1.000  O
  O21      1.0000 0.89000  0.94690  0.34460  Biso   1.000  O
  O22      1.0000 0.40050  0.57410  0.27820  Biso   1.000  O
  O23      1.0000 0.75670  0.12350  0.39480  Biso   1.000  O
  O24      1.0000 0.83150  0.28490  0.50740  Biso   1.000  O
  O25      1.0000 0.02200  0.79260  0.31630  Biso   1.000  O
  O26      1.0000 0.83050  0.11240  0.19750  Biso   1.000  O
  O27      1.0000 0.81940  0.30300  0.30920  Biso   1.000  O
  O28      1.0000 0.34210  0.74960  0.37100  Biso   1.000  O
  V7       1.0000 0.69796  0.79835  0.88196  Biso   1.000  V
  V8       1.0000 0.73606  0.50404  0.79179  Biso   1.000  V
  V9       1.0000 0.17860  0.75574  0.83914  Biso   1.000  V
  P9       1.0000 0.67529  0.79450  0.13525  Biso   1.000  P
  H9       1.0000 0.56200  0.80800  0.12400  Biso   1.000  H
  P10      1.0000 0.43073  0.83896  0.86650  Biso   1.000  P
  H10      1.0000 0.44100  0.90600  0.96100  Biso   1.000  H
  P11      1.0000 0.76705  0.24825  0.90026  Biso   1.000  P
  H11      1.0000 0.66300  0.20000  0.89700  Biso   1.000  H
  P12      1.0000 0.94096  0.66439  0.88740  Biso   1.000  P
  H12      1.0000 0.99000  0.64800  0.99300  Biso   1.000  H
  O29      1.0000 0.85930  0.75510  0.90440  Biso   1.000  O
  O30      1.0000 0.67570  0.59520  0.85760  Biso   1.000  O
  O31      1.0000 0.69800  0.74690  0.03190  Biso   1.000  O
  O32      1.0000 0.53680  0.77750  0.85510  Biso   1.000  O
  O33      1.0000 0.69620  0.70600  0.22230  Biso   1.000  O
  O34      1.0000 0.74010  0.90280  0.16340  Biso   1.000  O
  O35      1.0000 0.89000  0.55310  0.84460  Biso   1.000  O
  O36      1.0000 0.40050  0.92590  0.77820  Biso   1.000  O
  O37      1.0000 0.75670  0.37650  0.89480  Biso   1.000  O
  O38      1.0000 0.83150  0.21510  0.00740  Biso   1.000  O
  O39      1.0000 0.02200  0.70740  0.81630  Biso   1.000  O
  O40      1.0000 0.83050  0.38760  0.69750  Biso   1.000  O
  O41      1.0000 0.81940  0.19700  0.80920  Biso   1.000  O
  O42      1.0000 0.34210  0.75040  0.87100  Biso   1.000  O
  V10      1.0000 0.30204  0.29835  0.61804  Biso   1.000  V
  V11      1.0000 0.26394  0.00404  0.70821  Biso   1.000  V
  V12      1.0000 0.82140  0.25574  0.66086  Biso   1.000  V
  P13      1.0000 0.32471  0.29450  0.36475  Biso   1.000  P
  H13      1.0000 0.43800  0.30800  0.37600  Biso   1.000  H
  P14      1.0000 0.56927  0.33896  0.63350  Biso   1.000  P
  H14      1.0000 0.55900  0.40600  0.53900  Biso   1.000  H
  P15      1.0000 0.23295  0.74825  0.59974  Biso   1.000  P
  H15      1.0000 0.33700  0.70000  0.60300  Biso   1.000  H
  P16      1.0000 0.05904  0.16439  0.61260  Biso   1.000  P
  H16      1.0000 0.01000  0.14800  0.50700  Biso   1.000  H
  O43      1.0000 0.14070  0.25510  0.59560  Biso   1.000  O
  O44      1.0000 0.32430  0.09520  0.64240  Biso   1.000  O
  O45      1.0000 0.30200  0.24690  0.46810  Biso   1.000  O
  O46      1.0000 0.46320  0.27750  0.64490  Biso   1.000  O
  O47      1.0000 0.30380  0.20600  0.27770  Biso   1.000  O
  O48      1.0000 0.25990  0.40280  0.33660  Biso   1.000  O
  O49      1.0000 0.11000  0.05310  0.65540  Biso   1.000  O
  O50      1.0000 0.59950  0.42590  0.72180  Biso   1.000  O
  O51      1.0000 0.24330  0.87650  0.60520  Biso   1.000  O
  O52      1.0000 0.16850  0.71510  0.49260  Biso   1.000  O
  O53      1.0000 0.97800  0.20740  0.68370  Biso   1.000  O
  O54      1.0000 0.16950  0.88760  0.80250  Biso   1.000  O
  O55      1.0000 0.18060  0.69700  0.69080  Biso   1.000  O
  O56      1.0000 0.65790  0.25040  0.62900  Biso   1.000  O
