data_image0
_cell_length_a       8.533
_cell_length_b       9.37
_cell_length_c       10.003
_cell_angle_alpha    63.283
_cell_angle_beta     75.905
_cell_angle_gamma    74.276

_symmetry_space_group_name_H-M    "P 1"
_symmetry_int_tables_number       1

loop_
  _symmetry_equiv_pos_as_xyz
  'x, y, z'

loop_
  _atom_site_label
  _atom_site_occupancy
  _atom_site_fract_x
  _atom_site_fract_y
  _atom_site_fract_z
  _atom_site_thermal_displace_type
  _atom_site_B_iso_or_equiv
  _atom_site_type_symbol
  Gd1      1.0000 0.33250  0.36823  0.84050  Biso   1.000  Gd
  O1       1.0000 0.08320  0.30230  0.01700  Biso   1.000  O
  O2       1.0000 0.32040  0.08660  0.91900  Biso   1.000  O
  O3       1.0000 0.52990  0.30700  0.64650  Biso   1.000  O
  O4       1.0000 0.53310  0.52330  0.81330  Biso   1.000  O
  O5       1.0000 0.43140  0.82450  0.03940  Biso   1.000  O
  O6       1.0000 0.86290  0.39480  0.14980  Biso   1.000  O
  O7       1.0000 0.65810  0.60840  0.92550  Biso   1.000  O
  O8       1.0000 0.65730  0.39990  0.40820  Biso   1.000  O
  C1       1.0000 0.98470  0.41310  0.04840  Biso   1.000  C
  C2       1.0000 0.42870  0.97340  0.98810  Biso   1.000  C
  C3       1.0000 0.55480  0.41500  0.51570  Biso   1.000  C
  C4       1.0000 0.55630  0.53900  0.92410  Biso   1.000  C
  Gd2      1.0000 0.66750  0.63177  0.15950  Biso   1.000  Gd
  O9       1.0000 0.91680  0.69770  0.98300  Biso   1.000  O
  O10      1.0000 0.67960  0.91340  0.08100  Biso   1.000  O
  O11      1.0000 0.47010  0.69300  0.35350  Biso   1.000  O
  O12      1.0000 0.46690  0.47670  0.18670  Biso   1.000  O
  O13      1.0000 0.56860  0.17550  0.96060  Biso   1.000  O
  O14      1.0000 0.13710  0.60520  0.85020  Biso   1.000  O
  O15      1.0000 0.34190  0.39160  0.07450  Biso   1.000  O
  O16      1.0000 0.34270  0.60010  0.59180  Biso   1.000  O
  C5       1.0000 0.01530  0.58690  0.95160  Biso   1.000  C
  C6       1.0000 0.57130  0.02660  0.01190  Biso   1.000  C
  C7       1.0000 0.44520  0.58500  0.48430  Biso   1.000  C
  C8       1.0000 0.44370  0.46100  0.07590  Biso   1.000  C
