data_image0
_cell_length_a       8.417
_cell_length_b       9.716
_cell_length_c       10.117
_cell_angle_alpha    61.951
_cell_angle_beta     77.816
_cell_angle_gamma    74.279

_symmetry_space_group_name_H-M    "P 1"
_symmetry_int_tables_number       1

loop_
  _symmetry_equiv_pos_as_xyz
  'x, y, z'

loop_
  _atom_site_label
  _atom_site_occupancy
  _atom_site_fract_x
  _atom_site_fract_y
  _atom_site_fract_z
  _atom_site_thermal_displace_type
  _atom_site_B_iso_or_equiv
  _atom_site_type_symbol
  Nd1      1.0000 0.32863  0.36995  0.83849  Biso   1.000  Nd
  O1       1.0000 0.07400  0.30830  0.01370  Biso   1.000  O
  O2       1.0000 0.31190  0.09190  0.92240  Biso   1.000  O
  O3       1.0000 0.52670  0.30840  0.64720  Biso   1.000  O
  O4       1.0000 0.53830  0.51820  0.81660  Biso   1.000  O
  O5       1.0000 0.43000  0.83180  0.03310  Biso   1.000  O
  O6       1.0000 0.87370  0.39380  0.15760  Biso   1.000  O
  O7       1.0000 0.65600  0.60970  0.92750  Biso   1.000  O
  O8       1.0000 0.65980  0.40150  0.41550  Biso   1.000  O
  C1       1.0000 0.98570  0.41300  0.04900  Biso   1.000  C
  C2       1.0000 0.42540  0.97660  0.98860  Biso   1.000  C
  C3       1.0000 0.55350  0.41580  0.51740  Biso   1.000  C
  C4       1.0000 0.55720  0.53670  0.92660  Biso   1.000  C
  Nd2      1.0000 0.67137  0.63005  0.16151  Biso   1.000  Nd
  O9       1.0000 0.92600  0.69170  0.98630  Biso   1.000  O
  O10      1.0000 0.68810  0.90810  0.07760  Biso   1.000  O
  O11      1.0000 0.47330  0.69160  0.35280  Biso   1.000  O
  O12      1.0000 0.46170  0.48180  0.18340  Biso   1.000  O
  O13      1.0000 0.57000  0.16820  0.96690  Biso   1.000  O
  O14      1.0000 0.12630  0.60620  0.84240  Biso   1.000  O
  O15      1.0000 0.34400  0.39030  0.07250  Biso   1.000  O
  O16      1.0000 0.34020  0.59850  0.58450  Biso   1.000  O
  C5       1.0000 0.01430  0.58700  0.95100  Biso   1.000  C
  C6       1.0000 0.57460  0.02340  0.01140  Biso   1.000  C
  C7       1.0000 0.44650  0.58420  0.48260  Biso   1.000  C
  C8       1.0000 0.44280  0.46330  0.07340  Biso   1.000  C
