data_image0
_cell_length_a       11.933
_cell_length_b       11.933
_cell_length_c       8.5486
_cell_angle_alpha    90
_cell_angle_beta     90
_cell_angle_gamma    90

_symmetry_space_group_name_H-M    "P 1"
_symmetry_int_tables_number       1

loop_
  _symmetry_equiv_pos_as_xyz
  'x, y, z'

loop_
  _atom_site_label
  _atom_site_occupancy
  _atom_site_fract_x
  _atom_site_fract_y
  _atom_site_fract_z
  _atom_site_thermal_displace_type
  _atom_site_B_iso_or_equiv
  _atom_site_type_symbol
  Ag1      1.0000 0.50000  0.50000  0.25000  Biso   1.000  Ag
  Ag2      1.0000 0.50000  0.50000  0.75000  Biso   1.000  Ag
  Ag3      1.0000 0.00000  0.50000  0.00000  Biso   1.000  Ag
  Ag4      1.0000 0.50000  0.00000  0.50000  Biso   1.000  Ag
  C1       1.0000 0.24160  0.50000  0.12340  Biso   1.000  C
  C2       1.0000 0.20410  0.50000  0.29060  Biso   1.000  C
  N1       1.0000 0.34900  0.50000  0.08150  Biso   1.000  N
  C3       1.0000 0.75840  0.50000  0.12340  Biso   1.000  C
  C4       1.0000 0.79590  0.50000  0.29060  Biso   1.000  C
  N2       1.0000 0.65100  0.50000  0.08150  Biso   1.000  N
  C5       1.0000 0.50000  0.24160  0.62340  Biso   1.000  C
  C6       1.0000 0.50000  0.20410  0.79060  Biso   1.000  C
  N3       1.0000 0.50000  0.34900  0.58150  Biso   1.000  N
  C7       1.0000 0.50000  0.75840  0.62340  Biso   1.000  C
  C8       1.0000 0.50000  0.79590  0.79060  Biso   1.000  C
  N4       1.0000 0.50000  0.65100  0.58150  Biso   1.000  N
  C9       1.0000 0.75840  0.50000  0.87660  Biso   1.000  C
  C10      1.0000 0.79590  0.50000  0.70940  Biso   1.000  C
  N5       1.0000 0.65100  0.50000  0.91850  Biso   1.000  N
  C11      1.0000 0.24160  0.50000  0.87660  Biso   1.000  C
  C12      1.0000 0.20410  0.50000  0.70940  Biso   1.000  C
  N6       1.0000 0.34900  0.50000  0.91850  Biso   1.000  N
  C13      1.0000 0.50000  0.24160  0.37660  Biso   1.000  C
  C14      1.0000 0.50000  0.20410  0.20940  Biso   1.000  C
  N7       1.0000 0.50000  0.34900  0.41850  Biso   1.000  N
  C15      1.0000 0.50000  0.75840  0.37660  Biso   1.000  C
  C16      1.0000 0.50000  0.79590  0.20940  Biso   1.000  C
  N8       1.0000 0.50000  0.65100  0.41850  Biso   1.000  N
  N9       1.0000 0.17240  0.50000  0.00000  Biso   1.000  N
  N10      1.0000 0.82760  0.50000  0.00000  Biso   1.000  N
  N11      1.0000 0.50000  0.17240  0.50000  Biso   1.000  N
  N12      1.0000 0.50000  0.82760  0.50000  Biso   1.000  N
