data_image0
_cell_length_a       20.404
_cell_length_b       20.404
_cell_length_c       20.404
_cell_angle_alpha    90
_cell_angle_beta     90
_cell_angle_gamma    90

_symmetry_space_group_name_H-M    "P 1"
_symmetry_int_tables_number       1

loop_
  _symmetry_equiv_pos_as_xyz
  'x, y, z'

loop_
  _atom_site_label
  _atom_site_occupancy
  _atom_site_fract_x
  _atom_site_fract_y
  _atom_site_fract_z
  _atom_site_thermal_displace_type
  _atom_site_B_iso_or_equiv
  _atom_site_type_symbol
  Mo1      1.0000 0.10894  0.14913  0.94617  Biso   1.000  Mo
  Mo2      1.0000 0.00699  0.19221  0.00853  Biso   1.000  Mo
  P1       1.0000 0.26540  0.15230  0.98790  Biso   1.000  P
  Na1      1.0000 0.14960  0.25760  0.11000  Biso   1.000  Na
  O1       1.0000 0.02540  0.10740  0.96880  Biso   1.000  O
  O2       1.0000 0.09730  0.22380  0.00330  Biso   1.000  O
  O3       1.0000 0.14270  0.10080  0.04200  Biso   1.000  O
  O4       1.0000 0.20890  0.17510  0.94630  Biso   1.000  O
  O5       1.0000 0.14280  0.05460  0.92600  Biso   1.000  O
  O6       1.0000 0.26670  0.18670  0.05530  Biso   1.000  O
  O7       1.0000 0.33090  0.17080  0.95150  Biso   1.000  O
  O8       1.0000 0.26760  0.07800  0.99440  Biso   1.000  O
  Mo3      1.0000 0.39106  0.35087  0.94617  Biso   1.000  Mo
  Mo4      1.0000 0.49301  0.30779  0.00853  Biso   1.000  Mo
  P2       1.0000 0.23460  0.34770  0.98790  Biso   1.000  P
  Na2      1.0000 0.35040  0.24240  0.11000  Biso   1.000  Na
  O9       1.0000 0.47460  0.39260  0.96880  Biso   1.000  O
  O10      1.0000 0.40270  0.27620  0.00330  Biso   1.000  O
  O11      1.0000 0.35730  0.39920  0.04200  Biso   1.000  O
  O12      1.0000 0.29110  0.32490  0.94630  Biso   1.000  O
  O13      1.0000 0.35720  0.44540  0.92600  Biso   1.000  O
  O14      1.0000 0.23330  0.31330  0.05530  Biso   1.000  O
  O15      1.0000 0.16910  0.32920  0.95150  Biso   1.000  O
  O16      1.0000 0.23240  0.42200  0.99440  Biso   1.000  O
  Mo5      1.0000 0.39106  0.14913  0.55383  Biso   1.000  Mo
  Mo6      1.0000 0.49301  0.19221  0.49147  Biso   1.000  Mo
  P3       1.0000 0.23460  0.15230  0.51210  Biso   1.000  P
  Na3      1.0000 0.35040  0.25760  0.39000  Biso   1.000  Na
  O17      1.0000 0.47460  0.10740  0.53120  Biso   1.000  O
  O18      1.0000 0.40270  0.22380  0.49670  Biso   1.000  O
  O19      1.0000 0.35730  0.10080  0.45800  Biso   1.000  O
  O20      1.0000 0.29110  0.17510  0.55370  Biso   1.000  O
  O21      1.0000 0.35720  0.05460  0.57400  Biso   1.000  O
  O22      1.0000 0.23330  0.18670  0.44470  Biso   1.000  O
  O23      1.0000 0.16910  0.17080  0.54850  Biso   1.000  O
  O24      1.0000 0.23240  0.07800  0.50560  Biso   1.000  O
  Mo7      1.0000 0.10894  0.35087  0.55383  Biso   1.000  Mo
  Mo8      1.0000 0.00699  0.30779  0.49147  Biso   1.000  Mo
  P4       1.0000 0.26540  0.34770  0.51210  Biso   1.000  P
  Na4      1.0000 0.14960  0.24240  0.39000  Biso   1.000  Na
  O25      1.0000 0.02540  0.39260  0.53120  Biso   1.000  O
  O26      1.0000 0.09730  0.27620  0.49670  Biso   1.000  O
  O27      1.0000 0.14270  0.39920  0.45800  Biso   1.000  O
  O28      1.0000 0.20890  0.32490  0.55370  Biso   1.000  O
  O29      1.0000 0.14280  0.44540  0.57400  Biso   1.000  O
  O30      1.0000 0.26670  0.31330  0.44470  Biso   1.000  O
  O31      1.0000 0.33090  0.32920  0.54850  Biso   1.000  O
  O32      1.0000 0.26760  0.42200  0.50560  Biso   1.000  O
  Mo9      1.0000 0.94617  0.10894  0.14913  Biso   1.000  Mo
  Mo10     1.0000 0.00853  0.00699  0.19221  Biso   1.000  Mo
  P5       1.0000 0.98790  0.26540  0.15230  Biso   1.000  P
  Na5      1.0000 0.11000  0.14960  0.25760  Biso   1.000  Na
  O33      1.0000 0.96880  0.02540  0.10740  Biso   1.000  O
  O34      1.0000 0.00330  0.09730  0.22380  Biso   1.000  O
  O35      1.0000 0.04200  0.14270  0.10080  Biso   1.000  O
  O36      1.0000 0.94630  0.20890  0.17510  Biso   1.000  O
  O37      1.0000 0.92600  0.14280  0.05460  Biso   1.000  O
  O38      1.0000 0.05530  0.26670  0.18670  Biso   1.000  O
  O39      1.0000 0.95150  0.33090  0.17080  Biso   1.000  O
  O40      1.0000 0.99440  0.26760  0.07800  Biso   1.000  O
  Mo11     1.0000 0.94617  0.39106  0.35087  Biso   1.000  Mo
  Mo12     1.0000 0.00853  0.49301  0.30779  Biso   1.000  Mo
  P6       1.0000 0.98790  0.23460  0.34770  Biso   1.000  P
  Na6      1.0000 0.11000  0.35040  0.24240  Biso   1.000  Na
  O41      1.0000 0.96880  0.47460  0.39260  Biso   1.000  O
  O42      1.0000 0.00330  0.40270  0.27620  Biso   1.000  O
  O43      1.0000 0.04200  0.35730  0.39920  Biso   1.000  O
  O44      1.0000 0.94630  0.29110  0.32490  Biso   1.000  O
  O45      1.0000 0.92600  0.35720  0.44540  Biso   1.000  O
  O46      1.0000 0.05530  0.23330  0.31330  Biso   1.000  O
  O47      1.0000 0.95150  0.16910  0.32920  Biso   1.000  O
  O48      1.0000 0.99440  0.23240  0.42200  Biso   1.000  O
  Mo13     1.0000 0.55383  0.39106  0.14913  Biso   1.000  Mo
  Mo14     1.0000 0.49147  0.49301  0.19221  Biso   1.000  Mo
  P7       1.0000 0.51210  0.23460  0.15230  Biso   1.000  P
  Na7      1.0000 0.39000  0.35040  0.25760  Biso   1.000  Na
  O49      1.0000 0.53120  0.47460  0.10740  Biso   1.000  O
  O50      1.0000 0.49670  0.40270  0.22380  Biso   1.000  O
  O51      1.0000 0.45800  0.35730  0.10080  Biso   1.000  O
  O52      1.0000 0.55370  0.29110  0.17510  Biso   1.000  O
  O53      1.0000 0.57400  0.35720  0.05460  Biso   1.000  O
  O54      1.0000 0.44470  0.23330  0.18670  Biso   1.000  O
  O55      1.0000 0.54850  0.16910  0.17080  Biso   1.000  O
  O56      1.0000 0.50560  0.23240  0.07800  Biso   1.000  O
  Mo15     1.0000 0.55383  0.10894  0.35087  Biso   1.000  Mo
  Mo16     1.0000 0.49147  0.00699  0.30779  Biso   1.000  Mo
  P8       1.0000 0.51210  0.26540  0.34770  Biso   1.000  P
  Na8      1.0000 0.39000  0.14960  0.24240  Biso   1.000  Na
  O57      1.0000 0.53120  0.02540  0.39260  Biso   1.000  O
  O58      1.0000 0.49670  0.09730  0.27620  Biso   1.000  O
  O59      1.0000 0.45800  0.14270  0.39920  Biso   1.000  O
  O60      1.0000 0.55370  0.20890  0.32490  Biso   1.000  O
  O61      1.0000 0.57400  0.14280  0.44540  Biso   1.000  O
  O62      1.0000 0.44470  0.26670  0.31330  Biso   1.000  O
  O63      1.0000 0.54850  0.33090  0.32920  Biso   1.000  O
  O64      1.0000 0.50560  0.26760  0.42200  Biso   1.000  O
  Mo17     1.0000 0.14913  0.94617  0.10894  Biso   1.000  Mo
  Mo18     1.0000 0.19221  0.00853  0.00699  Biso   1.000  Mo
  P9       1.0000 0.15230  0.98790  0.26540  Biso   1.000  P
  Na9      1.0000 0.25760  0.11000  0.14960  Biso   1.000  Na
  O65      1.0000 0.10740  0.96880  0.02540  Biso   1.000  O
  O66      1.0000 0.22380  0.00330  0.09730  Biso   1.000  O
  O67      1.0000 0.10080  0.04200  0.14270  Biso   1.000  O
  O68      1.0000 0.17510  0.94630  0.20890  Biso   1.000  O
  O69      1.0000 0.05460  0.92600  0.14280  Biso   1.000  O
  O70      1.0000 0.18670  0.05530  0.26670  Biso   1.000  O
  O71      1.0000 0.17080  0.95150  0.33090  Biso   1.000  O
  O72      1.0000 0.07800  0.99440  0.26760  Biso   1.000  O
  Mo19     1.0000 0.35087  0.94617  0.39106  Biso   1.000  Mo
  Mo20     1.0000 0.30779  0.00853  0.49301  Biso   1.000  Mo
  P10      1.0000 0.34770  0.98790  0.23460  Biso   1.000  P
  Na10     1.0000 0.24240  0.11000  0.35040  Biso   1.000  Na
  O73      1.0000 0.39260  0.96880  0.47460  Biso   1.000  O
  O74      1.0000 0.27620  0.00330  0.40270  Biso   1.000  O
  O75      1.0000 0.39920  0.04200  0.35730  Biso   1.000  O
  O76      1.0000 0.32490  0.94630  0.29110  Biso   1.000  O
  O77      1.0000 0.44540  0.92600  0.35720  Biso   1.000  O
  O78      1.0000 0.31330  0.05530  0.23330  Biso   1.000  O
  O79      1.0000 0.32920  0.95150  0.16910  Biso   1.000  O
  O80      1.0000 0.42200  0.99440  0.23240  Biso   1.000  O
  Mo21     1.0000 0.14913  0.55383  0.39106  Biso   1.000  Mo
  Mo22     1.0000 0.19221  0.49147  0.49301  Biso   1.000  Mo
  P11      1.0000 0.15230  0.51210  0.23460  Biso   1.000  P
  Na11     1.0000 0.25760  0.39000  0.35040  Biso   1.000  Na
  O81      1.0000 0.10740  0.53120  0.47460  Biso   1.000  O
  O82      1.0000 0.22380  0.49670  0.40270  Biso   1.000  O
  O83      1.0000 0.10080  0.45800  0.35730  Biso   1.000  O
  O84      1.0000 0.17510  0.55370  0.29110  Biso   1.000  O
  O85      1.0000 0.05460  0.57400  0.35720  Biso   1.000  O
  O86      1.0000 0.18670  0.44470  0.23330  Biso   1.000  O
  O87      1.0000 0.17080  0.54850  0.16910  Biso   1.000  O
  O88      1.0000 0.07800  0.50560  0.23240  Biso   1.000  O
  Mo23     1.0000 0.35087  0.55383  0.10894  Biso   1.000  Mo
  Mo24     1.0000 0.30779  0.49147  0.00699  Biso   1.000  Mo
  P12      1.0000 0.34770  0.51210  0.26540  Biso   1.000  P
  Na12     1.0000 0.24240  0.39000  0.14960  Biso   1.000  Na
  O89      1.0000 0.39260  0.53120  0.02540  Biso   1.000  O
  O90      1.0000 0.27620  0.49670  0.09730  Biso   1.000  O
  O91      1.0000 0.39920  0.45800  0.14270  Biso   1.000  O
  O92      1.0000 0.32490  0.55370  0.20890  Biso   1.000  O
  O93      1.0000 0.44540  0.57400  0.14280  Biso   1.000  O
  O94      1.0000 0.31330  0.44470  0.26670  Biso   1.000  O
  O95      1.0000 0.32920  0.54850  0.33090  Biso   1.000  O
  O96      1.0000 0.42200  0.50560  0.26760  Biso   1.000  O
  Mo25     1.0000 0.89106  0.85087  0.05383  Biso   1.000  Mo
  Mo26     1.0000 0.99301  0.80779  0.99147  Biso   1.000  Mo
  P13      1.0000 0.73460  0.84770  0.01210  Biso   1.000  P
  Na13     1.0000 0.85040  0.74240  0.89000  Biso   1.000  Na
  O97      1.0000 0.97460  0.89260  0.03120  Biso   1.000  O
  O98      1.0000 0.90270  0.77620  0.99670  Biso   1.000  O
  O99      1.0000 0.85730  0.89920  0.95800  Biso   1.000  O
  O100     1.0000 0.79110  0.82490  0.05370  Biso   1.000  O
  O101     1.0000 0.85720  0.94540  0.07400  Biso   1.000  O
  O102     1.0000 0.73330  0.81330  0.94470  Biso   1.000  O
  O103     1.0000 0.66910  0.82920  0.04850  Biso   1.000  O
  O104     1.0000 0.73240  0.92200  0.00560  Biso   1.000  O
  Mo27     1.0000 0.60894  0.64913  0.05383  Biso   1.000  Mo
  Mo28     1.0000 0.50699  0.69221  0.99147  Biso   1.000  Mo
  P14      1.0000 0.76540  0.65230  0.01210  Biso   1.000  P
  Na14     1.0000 0.64960  0.75760  0.89000  Biso   1.000  Na
  O105     1.0000 0.52540  0.60740  0.03120  Biso   1.000  O
  O106     1.0000 0.59730  0.72380  0.99670  Biso   1.000  O
  O107     1.0000 0.64270  0.60080  0.95800  Biso   1.000  O
  O108     1.0000 0.70890  0.67510  0.05370  Biso   1.000  O
  O109     1.0000 0.64280  0.55460  0.07400  Biso   1.000  O
  O110     1.0000 0.76670  0.68670  0.94470  Biso   1.000  O
  O111     1.0000 0.83090  0.67080  0.04850  Biso   1.000  O
  O112     1.0000 0.76760  0.57800  0.00560  Biso   1.000  O
  Mo29     1.0000 0.60894  0.85087  0.44617  Biso   1.000  Mo
  Mo30     1.0000 0.50699  0.80779  0.50853  Biso   1.000  Mo
  P15      1.0000 0.76540  0.84770  0.48790  Biso   1.000  P
  Na15     1.0000 0.64960  0.74240  0.61000  Biso   1.000  Na
  O113     1.0000 0.52540  0.89260  0.46880  Biso   1.000  O
  O114     1.0000 0.59730  0.77620  0.50330  Biso   1.000  O
  O115     1.0000 0.64270  0.89920  0.54200  Biso   1.000  O
  O116     1.0000 0.70890  0.82490  0.44630  Biso   1.000  O
  O117     1.0000 0.64280  0.94540  0.42600  Biso   1.000  O
  O118     1.0000 0.76670  0.81330  0.55530  Biso   1.000  O
  O119     1.0000 0.83090  0.82920  0.45150  Biso   1.000  O
  O120     1.0000 0.76760  0.92200  0.49440  Biso   1.000  O
  Mo31     1.0000 0.89106  0.64913  0.44617  Biso   1.000  Mo
  Mo32     1.0000 0.99301  0.69221  0.50853  Biso   1.000  Mo
  P16      1.0000 0.73460  0.65230  0.48790  Biso   1.000  P
  Na16     1.0000 0.85040  0.75760  0.61000  Biso   1.000  Na
  O121     1.0000 0.97460  0.60740  0.46880  Biso   1.000  O
  O122     1.0000 0.90270  0.72380  0.50330  Biso   1.000  O
  O123     1.0000 0.85730  0.60080  0.54200  Biso   1.000  O
  O124     1.0000 0.79110  0.67510  0.44630  Biso   1.000  O
  O125     1.0000 0.85720  0.55460  0.42600  Biso   1.000  O
  O126     1.0000 0.73330  0.68670  0.55530  Biso   1.000  O
  O127     1.0000 0.66910  0.67080  0.45150  Biso   1.000  O
  O128     1.0000 0.73240  0.57800  0.49440  Biso   1.000  O
  Mo33     1.0000 0.05383  0.89106  0.85087  Biso   1.000  Mo
  Mo34     1.0000 0.99147  0.99301  0.80779  Biso   1.000  Mo
  P17      1.0000 0.01210  0.73460  0.84770  Biso   1.000  P
  Na17     1.0000 0.89000  0.85040  0.74240  Biso   1.000  Na
  O129     1.0000 0.03120  0.97460  0.89260  Biso   1.000  O
  O130     1.0000 0.99670  0.90270  0.77620  Biso   1.000  O
  O131     1.0000 0.95800  0.85730  0.89920  Biso   1.000  O
  O132     1.0000 0.05370  0.79110  0.82490  Biso   1.000  O
  O133     1.0000 0.07400  0.85720  0.94540  Biso   1.000  O
  O134     1.0000 0.94470  0.73330  0.81330  Biso   1.000  O
  O135     1.0000 0.04850  0.66910  0.82920  Biso   1.000  O
  O136     1.0000 0.00560  0.73240  0.92200  Biso   1.000  O
  Mo35     1.0000 0.05383  0.60894  0.64913  Biso   1.000  Mo
  Mo36     1.0000 0.99147  0.50699  0.69221  Biso   1.000  Mo
  P18      1.0000 0.01210  0.76540  0.65230  Biso   1.000  P
  Na18     1.0000 0.89000  0.64960  0.75760  Biso   1.000  Na
  O137     1.0000 0.03120  0.52540  0.60740  Biso   1.000  O
  O138     1.0000 0.99670  0.59730  0.72380  Biso   1.000  O
  O139     1.0000 0.95800  0.64270  0.60080  Biso   1.000  O
  O140     1.0000 0.05370  0.70890  0.67510  Biso   1.000  O
  O141     1.0000 0.07400  0.64280  0.55460  Biso   1.000  O
  O142     1.0000 0.94470  0.76670  0.68670  Biso   1.000  O
  O143     1.0000 0.04850  0.83090  0.67080  Biso   1.000  O
  O144     1.0000 0.00560  0.76760  0.57800  Biso   1.000  O
  Mo37     1.0000 0.44617  0.60894  0.85087  Biso   1.000  Mo
  Mo38     1.0000 0.50853  0.50699  0.80779  Biso   1.000  Mo
  P19      1.0000 0.48790  0.76540  0.84770  Biso   1.000  P
  Na19     1.0000 0.61000  0.64960  0.74240  Biso   1.000  Na
  O145     1.0000 0.46880  0.52540  0.89260  Biso   1.000  O
  O146     1.0000 0.50330  0.59730  0.77620  Biso   1.000  O
  O147     1.0000 0.54200  0.64270  0.89920  Biso   1.000  O
  O148     1.0000 0.44630  0.70890  0.82490  Biso   1.000  O
  O149     1.0000 0.42600  0.64280  0.94540  Biso   1.000  O
  O150     1.0000 0.55530  0.76670  0.81330  Biso   1.000  O
  O151     1.0000 0.45150  0.83090  0.82920  Biso   1.000  O
  O152     1.0000 0.49440  0.76760  0.92200  Biso   1.000  O
  Mo39     1.0000 0.44617  0.89106  0.64913  Biso   1.000  Mo
  Mo40     1.0000 0.50853  0.99301  0.69221  Biso   1.000  Mo
  P20      1.0000 0.48790  0.73460  0.65230  Biso   1.000  P
  Na20     1.0000 0.61000  0.85040  0.75760  Biso   1.000  Na
  O153     1.0000 0.46880  0.97460  0.60740  Biso   1.000  O
  O154     1.0000 0.50330  0.90270  0.72380  Biso   1.000  O
  O155     1.0000 0.54200  0.85730  0.60080  Biso   1.000  O
  O156     1.0000 0.44630  0.79110  0.67510  Biso   1.000  O
  O157     1.0000 0.42600  0.85720  0.55460  Biso   1.000  O
  O158     1.0000 0.55530  0.73330  0.68670  Biso   1.000  O
  O159     1.0000 0.45150  0.66910  0.67080  Biso   1.000  O
  O160     1.0000 0.49440  0.73240  0.57800  Biso   1.000  O
  Mo41     1.0000 0.85087  0.05383  0.89106  Biso   1.000  Mo
  Mo42     1.0000 0.80779  0.99147  0.99301  Biso   1.000  Mo
  P21      1.0000 0.84770  0.01210  0.73460  Biso   1.000  P
  Na21     1.0000 0.74240  0.89000  0.85040  Biso   1.000  Na
  O161     1.0000 0.89260  0.03120  0.97460  Biso   1.000  O
  O162     1.0000 0.77620  0.99670  0.90270  Biso   1.000  O
  O163     1.0000 0.89920  0.95800  0.85730  Biso   1.000  O
  O164     1.0000 0.82490  0.05370  0.79110  Biso   1.000  O
  O165     1.0000 0.94540  0.07400  0.85720  Biso   1.000  O
  O166     1.0000 0.81330  0.94470  0.73330  Biso   1.000  O
  O167     1.0000 0.82920  0.04850  0.66910  Biso   1.000  O
  O168     1.0000 0.92200  0.00560  0.73240  Biso   1.000  O
  Mo43     1.0000 0.64913  0.05383  0.60894  Biso   1.000  Mo
  Mo44     1.0000 0.69221  0.99147  0.50699  Biso   1.000  Mo
  P22      1.0000 0.65230  0.01210  0.76540  Biso   1.000  P
  Na22     1.0000 0.75760  0.89000  0.64960  Biso   1.000  Na
  O169     1.0000 0.60740  0.03120  0.52540  Biso   1.000  O
  O170     1.0000 0.72380  0.99670  0.59730  Biso   1.000  O
  O171     1.0000 0.60080  0.95800  0.64270  Biso   1.000  O
  O172     1.0000 0.67510  0.05370  0.70890  Biso   1.000  O
  O173     1.0000 0.55460  0.07400  0.64280  Biso   1.000  O
  O174     1.0000 0.68670  0.94470  0.76670  Biso   1.000  O
  O175     1.0000 0.67080  0.04850  0.83090  Biso   1.000  O
  O176     1.0000 0.57800  0.00560  0.76760  Biso   1.000  O
  Mo45     1.0000 0.85087  0.44617  0.60894  Biso   1.000  Mo
  Mo46     1.0000 0.80779  0.50853  0.50699  Biso   1.000  Mo
  P23      1.0000 0.84770  0.48790  0.76540  Biso   1.000  P
  Na23     1.0000 0.74240  0.61000  0.64960  Biso   1.000  Na
  O177     1.0000 0.89260  0.46880  0.52540  Biso   1.000  O
  O178     1.0000 0.77620  0.50330  0.59730  Biso   1.000  O
  O179     1.0000 0.89920  0.54200  0.64270  Biso   1.000  O
  O180     1.0000 0.82490  0.44630  0.70890  Biso   1.000  O
  O181     1.0000 0.94540  0.42600  0.64280  Biso   1.000  O
  O182     1.0000 0.81330  0.55530  0.76670  Biso   1.000  O
  O183     1.0000 0.82920  0.45150  0.83090  Biso   1.000  O
  O184     1.0000 0.92200  0.49440  0.76760  Biso   1.000  O
  Mo47     1.0000 0.64913  0.44617  0.89106  Biso   1.000  Mo
  Mo48     1.0000 0.69221  0.50853  0.99301  Biso   1.000  Mo
  P24      1.0000 0.65230  0.48790  0.73460  Biso   1.000  P
  Na24     1.0000 0.75760  0.61000  0.85040  Biso   1.000  Na
  O185     1.0000 0.60740  0.46880  0.97460  Biso   1.000  O
  O186     1.0000 0.72380  0.50330  0.90270  Biso   1.000  O
  O187     1.0000 0.60080  0.54200  0.85730  Biso   1.000  O
  O188     1.0000 0.67510  0.44630  0.79110  Biso   1.000  O
  O189     1.0000 0.55460  0.42600  0.85720  Biso   1.000  O
  O190     1.0000 0.68670  0.55530  0.73330  Biso   1.000  O
  O191     1.0000 0.67080  0.45150  0.66910  Biso   1.000  O
  O192     1.0000 0.57800  0.49440  0.73240  Biso   1.000  O
  P25      1.0000 0.11110  0.11110  0.11110  Biso   1.000  P
  O193     1.0000 0.15330  0.15330  0.15330  Biso   1.000  O
  P26      1.0000 0.38890  0.38890  0.11110  Biso   1.000  P
  O194     1.0000 0.34670  0.34670  0.15330  Biso   1.000  O
  P27      1.0000 0.38890  0.11110  0.38890  Biso   1.000  P
  O195     1.0000 0.34670  0.15330  0.34670  Biso   1.000  O
  P28      1.0000 0.11110  0.38890  0.38890  Biso   1.000  P
  O196     1.0000 0.15330  0.34670  0.34670  Biso   1.000  O
  P29      1.0000 0.88890  0.88890  0.88890  Biso   1.000  P
  O197     1.0000 0.84670  0.84670  0.84670  Biso   1.000  O
  P30      1.0000 0.61110  0.61110  0.88890  Biso   1.000  P
  O198     1.0000 0.65330  0.65330  0.84670  Biso   1.000  O
  P31      1.0000 0.61110  0.88890  0.61110  Biso   1.000  P
  O199     1.0000 0.65330  0.84670  0.65330  Biso   1.000  O
  P32      1.0000 0.88890  0.61110  0.61110  Biso   1.000  P
  O200     1.0000 0.84670  0.65330  0.65330  Biso   1.000  O
  P33      1.0000 0.25000  0.25000  0.25000  Biso   1.000  P
  P34      1.0000 0.75000  0.75000  0.75000  Biso   1.000  P
  Na25     1.0000 0.00000  0.00000  0.00000  Biso   1.000  Na
  Na26     1.0000 0.50000  0.50000  0.00000  Biso   1.000  Na
  Na27     1.0000 0.50000  0.00000  0.50000  Biso   1.000  Na
  Na28     1.0000 0.00000  0.50000  0.50000  Biso   1.000  Na
  O201     1.0000 0.20620  0.29380  0.20620  Biso   1.000  O
  O202     1.0000 0.29380  0.20620  0.20620  Biso   1.000  O
  O203     1.0000 0.29380  0.29380  0.29380  Biso   1.000  O
  O204     1.0000 0.20620  0.20620  0.29380  Biso   1.000  O
  O205     1.0000 0.79380  0.70620  0.79380  Biso   1.000  O
  O206     1.0000 0.70620  0.79380  0.79380  Biso   1.000  O
  O207     1.0000 0.70620  0.70620  0.70620  Biso   1.000  O
  O208     1.0000 0.79380  0.79380  0.70620  Biso   1.000  O
