data_SAYKIO_clean
_audit_creation_date              2014-07-02
_audit_creation_method            'Materials Studio'
_symmetry_space_group_name_H-M    'P1'
_symmetry_Int_Tables_number       1
_symmetry_cell_setting            triclinic
loop_
_symmetry_equiv_pos_as_xyz
  x,y,z
_cell_length_a                    9.2925
_cell_length_b                    18.4066
_cell_length_c                    20.4260
_cell_angle_alpha                 113.8070
_cell_angle_beta                  90.0000
_cell_angle_gamma                 104.6210
loop_
_atom_site_label
_atom_site_type_symbol
_atom_site_fract_x
_atom_site_fract_y
_atom_site_fract_z
_atom_site_U_iso_or_equiv
_atom_site_adp_type
_atom_site_occupancy
U1     U     0.21818   0.32166   0.09426   0.01267  Uiso   1.00
U2     U     0.89652   0.67834   0.40574   0.01267  Uiso   1.00
U3     U     0.78182   0.67834   0.90574   0.01267  Uiso   1.00
U4     U     0.10348   0.32166   0.59426   0.01267  Uiso   1.00
U5     U     0.00000   0.00000   0.00000   0.01267  Uiso   1.00
U6     U     0.00000   0.00000   0.50000   0.01267  Uiso   1.00
H1     H     0.92220   0.77360   0.10530   0.01267  Uiso   1.00
H2     H     0.79770   0.72680   0.13760   0.01267  Uiso   1.00
H3     H     0.03770   0.92780   0.17570   0.01267  Uiso   1.00
H4     H     0.05430   0.92360   0.25060   0.01267  Uiso   1.00
H5     H     0.82650   0.84860   0.29660   0.01267  Uiso   1.00
H6     H     0.69160   0.78300   0.23900   0.01267  Uiso   1.00
H7     H     0.79530   0.86740   0.10240   0.01267  Uiso   1.00
H8     H     0.72460   0.91940   0.16910   0.01267  Uiso   1.00
H9     H     0.59270   0.79020   0.32550   0.01267  Uiso   1.00
H10    H     0.35900   0.76400   0.38350   0.01267  Uiso   1.00
H11    H     0.27270   0.94780   0.34930   0.01267  Uiso   1.00
H12    H     0.47310   0.96960   0.29190   0.01267  Uiso   1.00
H13    H     0.35530   0.70120   0.07670   0.01267  Uiso   1.00
H14    H     0.14210   0.71380   0.02970   0.01267  Uiso   1.00
H15    H     0.37570   0.92720   0.03110   0.01267  Uiso   1.00
H16    H     0.58690   0.91840   0.08110   0.01267  Uiso   1.00
H17    H     0.21670   0.74040   0.23160   0.01267  Uiso   1.00
H18    H     0.28630   0.62120   0.20370   0.01267  Uiso   1.00
H19    H     0.91860   0.49620   0.06780   0.01267  Uiso   1.00
H20    H     0.85050   0.61760   0.09170   0.01267  Uiso   1.00
H21    H     0.14860   0.22640   0.39470   0.01267  Uiso   1.00
H22    H     0.07090   0.27320   0.36240   0.01267  Uiso   1.00
H23    H     0.10990   0.07220   0.32430   0.01267  Uiso   1.00
H24    H     0.13070   0.07640   0.24940   0.01267  Uiso   1.00
H25    H     0.97790   0.15140   0.20340   0.01267  Uiso   1.00
H26    H     0.90860   0.21700   0.26100   0.01267  Uiso   1.00
H27    H     0.92790   0.13260   0.39760   0.01267  Uiso   1.00
H28    H     0.80520   0.08060   0.33090   0.01267  Uiso   1.00
H29    H     0.80250   0.20980   0.17450   0.01267  Uiso   1.00
H30    H     0.59500   0.23600   0.11650   0.01267  Uiso   1.00
H31    H     0.32490   0.05220   0.15070   0.01267  Uiso   1.00
H32    H     0.50350   0.03040   0.20810   0.01267  Uiso   1.00
H33    H     0.65410   0.29880   0.42330   0.01267  Uiso   1.00
H34    H     0.42830   0.28620   0.47030   0.01267  Uiso   1.00
H35    H     0.44850   0.07280   0.46890   0.01267  Uiso   1.00
H36    H     0.66850   0.08160   0.41890   0.01267  Uiso   1.00
H37    H     0.47630   0.25960   0.26840   0.01267  Uiso   1.00
H38    H     0.66510   0.37880   0.29630   0.01267  Uiso   1.00
H39    H     0.42240   0.50380   0.43220   0.01267  Uiso   1.00
H40    H     0.23290   0.38240   0.40830   0.01267  Uiso   1.00
H41    H     0.07780   0.22640   0.89470   0.01267  Uiso   1.00
H42    H     0.20230   0.27320   0.86240   0.01267  Uiso   1.00
H43    H     0.96230   0.07220   0.82430   0.01267  Uiso   1.00
H44    H     0.94570   0.07640   0.74940   0.01267  Uiso   1.00
H45    H     0.17350   0.15140   0.70340   0.01267  Uiso   1.00
H46    H     0.30840   0.21700   0.76100   0.01267  Uiso   1.00
H47    H     0.20470   0.13260   0.89760   0.01267  Uiso   1.00
H48    H     0.27540   0.08060   0.83090   0.01267  Uiso   1.00
H49    H     0.40730   0.20980   0.67450   0.01267  Uiso   1.00
H50    H     0.64100   0.23600   0.61650   0.01267  Uiso   1.00
H51    H     0.72730   0.05220   0.65070   0.01267  Uiso   1.00
H52    H     0.52690   0.03040   0.70810   0.01267  Uiso   1.00
H53    H     0.64470   0.29880   0.92330   0.01267  Uiso   1.00
H54    H     0.85790   0.28620   0.97030   0.01267  Uiso   1.00
H55    H     0.62430   0.07280   0.96890   0.01267  Uiso   1.00
H56    H     0.41310   0.08160   0.91890   0.01267  Uiso   1.00
H57    H     0.78330   0.25960   0.76840   0.01267  Uiso   1.00
H58    H     0.71370   0.37880   0.79630   0.01267  Uiso   1.00
H59    H     0.08140   0.50380   0.93220   0.01267  Uiso   1.00
H60    H     0.14950   0.38240   0.90830   0.01267  Uiso   1.00
H61    H     0.85140   0.77360   0.60530   0.01267  Uiso   1.00
H62    H     0.92910   0.72680   0.63760   0.01267  Uiso   1.00
H63    H     0.89010   0.92780   0.67570   0.01267  Uiso   1.00
H64    H     0.86930   0.92360   0.75060   0.01267  Uiso   1.00
H65    H     0.02210   0.84860   0.79660   0.01267  Uiso   1.00
H66    H     0.09140   0.78300   0.73900   0.01267  Uiso   1.00
H67    H     0.07210   0.86740   0.60240   0.01267  Uiso   1.00
H68    H     0.19480   0.91940   0.66910   0.01267  Uiso   1.00
H69    H     0.19750   0.79020   0.82550   0.01267  Uiso   1.00
H70    H     0.40500   0.76400   0.88350   0.01267  Uiso   1.00
H71    H     0.67510   0.94780   0.84930   0.01267  Uiso   1.00
H72    H     0.49650   0.96960   0.79190   0.01267  Uiso   1.00
H73    H     0.34590   0.70120   0.57670   0.01267  Uiso   1.00
H74    H     0.57170   0.71380   0.52970   0.01267  Uiso   1.00
H75    H     0.55150   0.92720   0.53110   0.01267  Uiso   1.00
H76    H     0.33150   0.91840   0.58110   0.01267  Uiso   1.00
H77    H     0.52370   0.74040   0.73160   0.01267  Uiso   1.00
H78    H     0.33490   0.62120   0.70370   0.01267  Uiso   1.00
H79    H     0.57760   0.49620   0.56780   0.01267  Uiso   1.00
H80    H     0.76710   0.61760   0.59170   0.01267  Uiso   1.00
C1     C     0.84570   0.85380   0.19280   0.01267  Uiso   1.00
C2     C     0.88590   0.77320   0.14980   0.01267  Uiso   1.00
C3     C     0.98630   0.92760   0.21700   0.01267  Uiso   1.00
C4     C     0.75770   0.83860   0.25620   0.01267  Uiso   1.00
C5     C     0.74590   0.86660   0.14410   0.01267  Uiso   1.00
C6     C     0.54220   0.88240   0.30760   0.01267  Uiso   1.00
C7     C     0.52350   0.82040   0.33100   0.01267  Uiso   1.00
C8     C     0.38230   0.80460   0.36610   0.01267  Uiso   1.00
C9     C     0.28990   0.85500   0.37080   0.01267  Uiso   1.00
C10    C     0.33550   0.91400   0.34350   0.01267  Uiso   1.00
C11    C     0.45400   0.93000   0.31050   0.01267  Uiso   1.00
C12    C     0.15290   0.84740   0.40380   0.01267  Uiso   1.00
C13    C     0.49160   0.81000   0.08800   0.01267  Uiso   1.00
C14    C     0.35910   0.74840   0.06940   0.01267  Uiso   1.00
C15    C     0.23160   0.75500   0.04020   0.01267  Uiso   1.00
C16    C     0.23820   0.82520   0.02630   0.01267  Uiso   1.00
C17    C     0.37000   0.88200   0.04150   0.01267  Uiso   1.00
C18    C     0.49760   0.87720   0.07170   0.01267  Uiso   1.00
C19    C     0.10230   0.83380   0.99950   0.01267  Uiso   1.00
C20    C     0.02600   0.69020   0.16650   0.01267  Uiso   1.00
C21    C     0.15510   0.69060   0.19820   0.01267  Uiso   1.00
C22    C     0.19680   0.61980   0.18220   0.01267  Uiso   1.00
C23    C     0.10350   0.54680   0.13380   0.01267  Uiso   1.00
C24    C     0.97940   0.54640   0.10130   0.01267  Uiso   1.00
C25    C     0.93640   0.61860   0.11570   0.01267  Uiso   1.00
C26    C     0.14560   0.46980   0.12150   0.01267  Uiso   1.00
C27    C     0.99190   0.14620   0.30720   0.01267  Uiso   1.00
C28    C     0.11270   0.22680   0.35020   0.01267  Uiso   1.00
C29    C     0.05870   0.07240   0.28300   0.01267  Uiso   1.00
C30    C     0.91910   0.16140   0.24380   0.01267  Uiso   1.00
C31    C     0.87930   0.13340   0.35590   0.01267  Uiso   1.00
C32    C     0.65980   0.11760   0.19240   0.01267  Uiso   1.00
C33    C     0.70310   0.17960   0.16900   0.01267  Uiso   1.00
C34    C     0.57770   0.19540   0.13390   0.01267  Uiso   1.00
C35    C     0.43490   0.14500   0.12920   0.01267  Uiso   1.00
C36    C     0.42150   0.08600   0.15650   0.01267  Uiso   1.00
C37    C     0.52400   0.07000   0.18950   0.01267  Uiso   1.00
C38    C     0.30550   0.15260   0.09620   0.01267  Uiso   1.00
C39    C     0.68160   0.19000   0.41200   0.01267  Uiso   1.00
C40    C     0.61070   0.25160   0.43060   0.01267  Uiso   1.00
C41    C     0.47660   0.24500   0.45980   0.01267  Uiso   1.00
C42    C     0.41300   0.17480   0.47370   0.01267  Uiso   1.00
C43    C     0.48800   0.11800   0.45850   0.01267  Uiso   1.00
C44    C     0.62040   0.12280   0.42830   0.01267  Uiso   1.00
C45    C     0.26850   0.16620   0.50050   0.01267  Uiso   1.00
C46    C     0.33580   0.30980   0.33350   0.01267  Uiso   1.00
C47    C     0.46450   0.30940   0.30180   0.01267  Uiso   1.00
C48    C     0.57700   0.38020   0.31780   0.01267  Uiso   1.00
C49    C     0.55670   0.45320   0.36620   0.01267  Uiso   1.00
C50    C     0.43300   0.45360   0.39870   0.01267  Uiso   1.00
C51    C     0.31780   0.38140   0.38430   0.01267  Uiso   1.00
C52    C     0.67580   0.53020   0.37850   0.01267  Uiso   1.00
C53    C     0.15430   0.14620   0.80720   0.01267  Uiso   1.00
C54    C     0.11410   0.22680   0.85020   0.01267  Uiso   1.00
C55    C     0.01370   0.07240   0.78300   0.01267  Uiso   1.00
C56    C     0.24230   0.16140   0.74380   0.01267  Uiso   1.00
C57    C     0.25410   0.13340   0.85590   0.01267  Uiso   1.00
C58    C     0.45780   0.11760   0.69240   0.01267  Uiso   1.00
C59    C     0.47650   0.17960   0.66900   0.01267  Uiso   1.00
C60    C     0.61770   0.19540   0.63390   0.01267  Uiso   1.00
C61    C     0.71010   0.14500   0.62920   0.01267  Uiso   1.00
C62    C     0.66450   0.08600   0.65650   0.01267  Uiso   1.00
C63    C     0.54600   0.07000   0.68950   0.01267  Uiso   1.00
C64    C     0.84710   0.15260   0.59620   0.01267  Uiso   1.00
C65    C     0.50840   0.19000   0.91200   0.01267  Uiso   1.00
C66    C     0.64090   0.25160   0.93060   0.01267  Uiso   1.00
C67    C     0.76840   0.24500   0.95980   0.01267  Uiso   1.00
C68    C     0.76180   0.17480   0.97370   0.01267  Uiso   1.00
C69    C     0.63000   0.11800   0.95850   0.01267  Uiso   1.00
C70    C     0.50240   0.12280   0.92830   0.01267  Uiso   1.00
C71    C     0.89770   0.16620   0.00050   0.01267  Uiso   1.00
C72    C     0.97400   0.30980   0.83350   0.01267  Uiso   1.00
C73    C     0.84490   0.30940   0.80180   0.01267  Uiso   1.00
C74    C     0.80320   0.38020   0.81780   0.01267  Uiso   1.00
C75    C     0.89650   0.45320   0.86620   0.01267  Uiso   1.00
C76    C     0.02060   0.45360   0.89870   0.01267  Uiso   1.00
C77    C     0.06360   0.38140   0.88430   0.01267  Uiso   1.00
C78    C     0.85440   0.53020   0.87850   0.01267  Uiso   1.00
C79    C     0.00810   0.85380   0.69280   0.01267  Uiso   1.00
C80    C     0.88730   0.77320   0.64980   0.01267  Uiso   1.00
C81    C     0.94130   0.92760   0.71700   0.01267  Uiso   1.00
C82    C     0.08090   0.83860   0.75620   0.01267  Uiso   1.00
C83    C     0.12070   0.86660   0.64410   0.01267  Uiso   1.00
C84    C     0.34020   0.88240   0.80760   0.01267  Uiso   1.00
C85    C     0.29690   0.82040   0.83100   0.01267  Uiso   1.00
C86    C     0.42230   0.80460   0.86610   0.01267  Uiso   1.00
C87    C     0.56510   0.85500   0.87080   0.01267  Uiso   1.00
C88    C     0.57850   0.91400   0.84350   0.01267  Uiso   1.00
C89    C     0.47600   0.93000   0.81050   0.01267  Uiso   1.00
C90    C     0.69450   0.84740   0.90380   0.01267  Uiso   1.00
C91    C     0.31840   0.81000   0.58800   0.01267  Uiso   1.00
C92    C     0.38930   0.74840   0.56940   0.01267  Uiso   1.00
C93    C     0.52340   0.75500   0.54020   0.01267  Uiso   1.00
C94    C     0.58700   0.82520   0.52630   0.01267  Uiso   1.00
C95    C     0.51200   0.88200   0.54150   0.01267  Uiso   1.00
C96    C     0.37960   0.87720   0.57170   0.01267  Uiso   1.00
C97    C     0.73150   0.83380   0.49950   0.01267  Uiso   1.00
C98    C     0.66420   0.69020   0.66650   0.01267  Uiso   1.00
C99    C     0.53550   0.69060   0.69820   0.01267  Uiso   1.00
C100   C     0.42300   0.61980   0.68220   0.01267  Uiso   1.00
C101   C     0.44330   0.54680   0.63380   0.01267  Uiso   1.00
C102   C     0.56700   0.54640   0.60130   0.01267  Uiso   1.00
C103   C     0.68220   0.61860   0.61570   0.01267  Uiso   1.00
C104   C     0.32420   0.46980   0.62150   0.01267  Uiso   1.00
O1     O     0.99470   0.76520   0.18990   0.01267  Uiso   1.00
O2     O     0.67530   0.89860   0.27510   0.01267  Uiso   1.00
O3     O     0.60681   0.80062   0.12090   0.01267  Uiso   1.00
O4     O     0.26340   0.47060   0.15050   0.01267  Uiso   1.00
O5     O     0.05660   0.40040   0.07980   0.01267  Uiso   1.00
O6     O     0.11260   0.90040   0.99290   0.01267  Uiso   1.00
O7     O     0.98310   0.77940   0.98170   0.01267  Uiso   1.00
O8     O     0.10170   0.78700   0.41830   0.01267  Uiso   1.00
O9     O     0.08660   0.90040   0.41530   0.01267  Uiso   1.00
O10    O     0.22950   0.23480   0.31010   0.01267  Uiso   1.00
O11    O     0.77670   0.10140   0.22490   0.01267  Uiso   1.00
O12    O     0.80619   0.19938   0.37910   0.01267  Uiso   1.00
O13    O     0.79280   0.52940   0.34950   0.01267  Uiso   1.00
O14    O     0.65620   0.59960   0.42020   0.01267  Uiso   1.00
O15    O     0.21220   0.09960   0.50710   0.01267  Uiso   1.00
O16    O     0.20370   0.22060   0.51830   0.01267  Uiso   1.00
O17    O     0.31470   0.21300   0.08170   0.01267  Uiso   1.00
O18    O     0.18620   0.09960   0.08470   0.01267  Uiso   1.00
O19    O     0.00530   0.23480   0.81010   0.01267  Uiso   1.00
O20    O     0.32470   0.10140   0.72490   0.01267  Uiso   1.00
O21    O     0.39319   0.19938   0.87910   0.01267  Uiso   1.00
O22    O     0.73660   0.52940   0.84950   0.01267  Uiso   1.00
O23    O     0.94340   0.59960   0.92020   0.01267  Uiso   1.00
O24    O     0.88740   0.09960   0.00710   0.01267  Uiso   1.00
O25    O     0.01690   0.22060   0.01830   0.01267  Uiso   1.00
O26    O     0.89830   0.21300   0.58170   0.01267  Uiso   1.00
O27    O     0.91340   0.09960   0.58470   0.01267  Uiso   1.00
O28    O     0.77050   0.76520   0.68990   0.01267  Uiso   1.00
O29    O     0.22330   0.89860   0.77510   0.01267  Uiso   1.00
O30    O     0.19381   0.80062   0.62090   0.01267  Uiso   1.00
O31    O     0.20720   0.47060   0.65050   0.01267  Uiso   1.00
O32    O     0.34380   0.40040   0.57980   0.01267  Uiso   1.00
O33    O     0.78780   0.90040   0.49290   0.01267  Uiso   1.00
O34    O     0.79630   0.77940   0.48170   0.01267  Uiso   1.00
O35    O     0.68530   0.78700   0.91830   0.01267  Uiso   1.00
O36    O     0.81380   0.90040   0.91530   0.01267  Uiso   1.00
O37    O     0.94180  -0.00000   0.25000   0.01267  Uiso   1.00
O38    O     0.05820   0.00000   0.75000   0.01267  Uiso   1.00
