data_image0
_cell_length_a       17.0461
_cell_length_b       21.6229
_cell_length_c       9.8505
_cell_angle_alpha    90
_cell_angle_beta     90
_cell_angle_gamma    90

_symmetry_space_group_name_H-M    "P 1"
_symmetry_int_tables_number       1

loop_
  _symmetry_equiv_pos_as_xyz
  'x, y, z'

loop_
  _atom_site_label
  _atom_site_occupancy
  _atom_site_fract_x
  _atom_site_fract_y
  _atom_site_fract_z
  _atom_site_thermal_displace_type
  _atom_site_B_iso_or_equiv
  _atom_site_type_symbol
  Cu1      1.0000 0.66837  0.57816  0.07985  Biso   1.000  Cu
  Cu2      1.0000 0.43225  0.66455  0.31480  Biso   1.000  Cu
  Cu3      1.0000 0.55964  0.45202  0.70442  Biso   1.000  Cu
  C1       1.0000 0.51380  0.48860  0.54450  Biso   1.000  C
  C2       1.0000 0.60450  0.49480  0.85250  Biso   1.000  C
  C3       1.0000 0.52700  0.62550  0.23760  Biso   1.000  C
  C4       1.0000 0.83350  0.62210  0.13550  Biso   1.000  C
  N1       1.0000 0.63110  0.52490  0.93360  Biso   1.000  N
  N2       1.0000 0.57860  0.61060  0.19170  Biso   1.000  N
  N3       1.0000 0.77770  0.60500  0.11830  Biso   1.000  N
  N4       1.0000 0.48620  0.51140  0.45550  Biso   1.000  N
  Cu4      1.0000 0.83163  0.42184  0.57985  Biso   1.000  Cu
  Cu5      1.0000 0.06775  0.33545  0.81480  Biso   1.000  Cu
  Cu6      1.0000 0.94036  0.54798  0.20442  Biso   1.000  Cu
  C5       1.0000 0.98620  0.51140  0.04450  Biso   1.000  C
  C6       1.0000 0.89550  0.50520  0.35250  Biso   1.000  C
  C7       1.0000 0.97300  0.37450  0.73760  Biso   1.000  C
  C8       1.0000 0.66650  0.37790  0.63550  Biso   1.000  C
  N5       1.0000 0.86890  0.47510  0.43360  Biso   1.000  N
  N6       1.0000 0.92140  0.38940  0.69170  Biso   1.000  N
  N7       1.0000 0.72230  0.39500  0.61830  Biso   1.000  N
  N8       1.0000 0.01380  0.48860  0.95550  Biso   1.000  N
  Cu7      1.0000 0.33163  0.07816  0.92015  Biso   1.000  Cu
  Cu8      1.0000 0.56775  0.16455  0.68520  Biso   1.000  Cu
  Cu9      1.0000 0.44036  0.95202  0.29558  Biso   1.000  Cu
  C9       1.0000 0.48620  0.98860  0.45550  Biso   1.000  C
  C10      1.0000 0.39550  0.99480  0.14750  Biso   1.000  C
  C11      1.0000 0.47300  0.12550  0.76240  Biso   1.000  C
  C12      1.0000 0.16650  0.12210  0.86450  Biso   1.000  C
  N9       1.0000 0.36890  0.02490  0.06640  Biso   1.000  N
  N10      1.0000 0.42140  0.11060  0.80830  Biso   1.000  N
  N11      1.0000 0.22230  0.10500  0.88170  Biso   1.000  N
  N12      1.0000 0.51380  0.01140  0.54450  Biso   1.000  N
  Cu10     1.0000 0.16837  0.92184  0.42015  Biso   1.000  Cu
  Cu11     1.0000 0.93225  0.83545  0.18520  Biso   1.000  Cu
  Cu12     1.0000 0.05964  0.04798  0.79558  Biso   1.000  Cu
  C13      1.0000 0.01380  0.01140  0.95550  Biso   1.000  C
  C14      1.0000 0.10450  0.00520  0.64750  Biso   1.000  C
  C15      1.0000 0.02700  0.87450  0.26240  Biso   1.000  C
  C16      1.0000 0.33350  0.87790  0.36450  Biso   1.000  C
  N13      1.0000 0.13110  0.97510  0.56640  Biso   1.000  N
  N14      1.0000 0.07860  0.88940  0.30830  Biso   1.000  N
  N15      1.0000 0.27770  0.89500  0.38170  Biso   1.000  N
  N16      1.0000 0.98620  0.98860  0.04450  Biso   1.000  N
  Cu13     1.0000 0.33163  0.42184  0.92015  Biso   1.000  Cu
  Cu14     1.0000 0.56775  0.33545  0.68520  Biso   1.000  Cu
  Cu15     1.0000 0.44036  0.54798  0.29558  Biso   1.000  Cu
  C17      1.0000 0.39550  0.50520  0.14750  Biso   1.000  C
  C18      1.0000 0.47300  0.37450  0.76240  Biso   1.000  C
  C19      1.0000 0.16650  0.37790  0.86450  Biso   1.000  C
  N17      1.0000 0.36890  0.47510  0.06640  Biso   1.000  N
  N18      1.0000 0.42140  0.38940  0.80830  Biso   1.000  N
  N19      1.0000 0.22230  0.39500  0.88170  Biso   1.000  N
  Cu16     1.0000 0.16837  0.57816  0.42015  Biso   1.000  Cu
  Cu17     1.0000 0.93225  0.66455  0.18520  Biso   1.000  Cu
  Cu18     1.0000 0.05964  0.45202  0.79558  Biso   1.000  Cu
  C20      1.0000 0.10450  0.49480  0.64750  Biso   1.000  C
  C21      1.0000 0.02700  0.62550  0.26240  Biso   1.000  C
  C22      1.0000 0.33350  0.62210  0.36450  Biso   1.000  C
  N20      1.0000 0.13110  0.52490  0.56640  Biso   1.000  N
  N21      1.0000 0.07860  0.61060  0.30830  Biso   1.000  N
  N22      1.0000 0.27770  0.60500  0.38170  Biso   1.000  N
  Cu19     1.0000 0.66837  0.92184  0.07985  Biso   1.000  Cu
  Cu20     1.0000 0.43225  0.83545  0.31480  Biso   1.000  Cu
  Cu21     1.0000 0.55964  0.04798  0.70442  Biso   1.000  Cu
  C23      1.0000 0.60450  0.00520  0.85250  Biso   1.000  C
  C24      1.0000 0.52700  0.87450  0.23760  Biso   1.000  C
  C25      1.0000 0.83350  0.87790  0.13550  Biso   1.000  C
  N23      1.0000 0.63110  0.97510  0.93360  Biso   1.000  N
  N24      1.0000 0.57860  0.88940  0.19170  Biso   1.000  N
  N25      1.0000 0.77770  0.89500  0.11830  Biso   1.000  N
  Cu22     1.0000 0.83163  0.07816  0.57985  Biso   1.000  Cu
  Cu23     1.0000 0.06775  0.16455  0.81480  Biso   1.000  Cu
  Cu24     1.0000 0.94036  0.95202  0.20442  Biso   1.000  Cu
  C26      1.0000 0.89550  0.99480  0.35250  Biso   1.000  C
  C27      1.0000 0.97300  0.12550  0.73760  Biso   1.000  C
  C28      1.0000 0.66650  0.12210  0.63550  Biso   1.000  C
  N26      1.0000 0.86890  0.02490  0.43360  Biso   1.000  N
  N27      1.0000 0.92140  0.11060  0.69170  Biso   1.000  N
  N28      1.0000 0.72230  0.10500  0.61830  Biso   1.000  N
  Br1      1.0000 0.46646  0.75000  0.48423  Biso   1.000  Br
  Br2      1.0000 0.38706  0.75000  0.12957  Biso   1.000  Br
  Br3      1.0000 0.03354  0.25000  0.98423  Biso   1.000  Br
  Br4      1.0000 0.11294  0.25000  0.62957  Biso   1.000  Br
  Br5      1.0000 0.53354  0.25000  0.51577  Biso   1.000  Br
  Br6      1.0000 0.61294  0.25000  0.87043  Biso   1.000  Br
  Br7      1.0000 0.96646  0.75000  0.01577  Biso   1.000  Br
  Br8      1.0000 0.88706  0.75000  0.37043  Biso   1.000  Br
