data_SEFNIB_charged
_audit_creation_date              2014-07-02
_audit_creation_method            'Materials Studio'
_symmetry_space_group_name_H-M    'P1'
_symmetry_Int_Tables_number       1
_symmetry_cell_setting            triclinic
loop_
_symmetry_equiv_pos_as_xyz
  x,y,z
_cell_length_a                    7.5918
_cell_length_b                    10.0452
_cell_length_c                    31.6961
_cell_angle_alpha                 87.4062
_cell_angle_beta                  83.1219
_cell_angle_gamma                 67.7977
loop_
_atom_site_label
_atom_site_type_symbol
_atom_site_fract_x
_atom_site_fract_y
_atom_site_fract_z
_atom_site_U_iso_or_equiv
_atom_site_adp_type
_atom_site_occupancy
Zn1    Zn    0.70000   0.19679   0.53147   0.01267  Uiso   1.00
Zn2    Zn    0.42826   0.80321   0.46853   0.01267  Uiso   1.00
Zn3    Zn    0.48147   0.69679   0.96853   0.01267  Uiso   1.00
Zn4    Zn    0.14679   0.30321   0.03147   0.01267  Uiso   1.00
H1     H     0.99950   0.01060   0.08960   0.01267  Uiso   1.00
H2     H     0.92630   0.77160   0.40580   0.01267  Uiso   1.00
H3     H     0.16440   0.56360   0.15180   0.01267  Uiso   1.00
H4     H     0.03480   0.60920   0.08920   0.01267  Uiso   1.00
H5     H     0.02530   0.80240   0.24480   0.01267  Uiso   1.00
H6     H     0.11830   0.91800   0.23520   0.01267  Uiso   1.00
H7     H     0.18850   0.02360   0.30980   0.01267  Uiso   1.00
H8     H     0.02640   0.12220   0.37440   0.01267  Uiso   1.00
H9     H     0.12870   0.97340   0.15260   0.01267  Uiso   1.00
H10    H     0.84630   0.93320   0.04060   0.01267  Uiso   1.00
H11    H     0.86450   0.77260   0.04060   0.01267  Uiso   1.00
H12    H     0.07910   0.66700   0.34160   0.01267  Uiso   1.00
H13    H     0.30030   0.65700   0.27900   0.01267  Uiso   1.00
H14    H     0.37920   0.78080   0.27180   0.01267  Uiso   1.00
H15    H     0.80110   0.96640   0.45100   0.01267  Uiso   1.00
H16    H     0.78420   0.11780   0.43240   0.01267  Uiso   1.00
H17    H     0.37830   0.75180   0.19440   0.01267  Uiso   1.00
H18    H     0.29810   0.63100   0.20580   0.01267  Uiso   1.00
H19    H     0.09970   0.98940   0.91040   0.01267  Uiso   1.00
H20    H     0.10370   0.22840   0.59420   0.01267  Uiso   1.00
H21    H     0.87980   0.43640   0.84820   0.01267  Uiso   1.00
H22    H     0.73320   0.39080   0.91080   0.01267  Uiso   1.00
H23    H     0.07250   0.19760   0.75520   0.01267  Uiso   1.00
H24    H     0.27150   0.08200   0.76480   0.01267  Uiso   1.00
H25    H     0.52190   0.97640   0.69020   0.01267  Uiso   1.00
H26    H     0.52300   0.87780   0.62560   0.01267  Uiso   1.00
H27    H     0.25470   0.02660   0.84740   0.01267  Uiso   1.00
H28    H     0.82010   0.06680   0.95940   0.01267  Uiso   1.00
H29    H     0.67770   0.22740   0.95940   0.01267  Uiso   1.00
H30    H     0.08770   0.33300   0.65840   0.01267  Uiso   1.00
H31    H     0.23630   0.34300   0.72100   0.01267  Uiso   1.00
H32    H     0.43180   0.21920   0.72820   0.01267  Uiso   1.00
H33    H     0.21850   0.03360   0.54900   0.01267  Uiso   1.00
H34    H     0.33440   0.88220   0.56760   0.01267  Uiso   1.00
H35    H     0.32450   0.24820   0.80560   0.01267  Uiso   1.00
H36    H     0.13490   0.36900   0.79420   0.01267  Uiso   1.00
H37    H     0.33910   0.51060   0.41040   0.01267  Uiso   1.00
H38    H     0.58210   0.27160   0.09420   0.01267  Uiso   1.00
H39    H     0.56620   0.06360   0.34820   0.01267  Uiso   1.00
H40    H     0.37400   0.10920   0.41080   0.01267  Uiso   1.00
H41    H     0.52010   0.30240   0.25520   0.01267  Uiso   1.00
H42    H     0.60350   0.41800   0.26480   0.01267  Uiso   1.00
H43    H     0.74830   0.52360   0.19020   0.01267  Uiso   1.00
H44    H     0.65080   0.62220   0.12560   0.01267  Uiso   1.00
H45    H     0.53130   0.47340   0.34740   0.01267  Uiso   1.00
H46    H     0.13690   0.43320   0.45940   0.01267  Uiso   1.00
H47    H     0.15510   0.27260   0.45940   0.01267  Uiso   1.00
H48    H     0.67070   0.16700   0.15840   0.01267  Uiso   1.00
H49    H     0.82930   0.15700   0.22100   0.01267  Uiso   1.00
H50    H     0.90100   0.28080   0.22820   0.01267  Uiso   1.00
H51    H     0.50210   0.46640   0.04900   0.01267  Uiso   1.00
H52    H     0.46660   0.61780   0.06760   0.01267  Uiso   1.00
H53    H     0.82270   0.25180   0.30560   0.01267  Uiso   1.00
H54    H     0.75390   0.13100   0.29420   0.01267  Uiso   1.00
H55    H     0.26010   0.48940   0.58960   0.01267  Uiso   1.00
H56    H     0.94790   0.72840   0.90580   0.01267  Uiso   1.00
H57    H     0.97800   0.93640   0.65180   0.01267  Uiso   1.00
H58    H     0.89400   0.89080   0.58920   0.01267  Uiso   1.00
H59    H     0.07770   0.69760   0.74480   0.01267  Uiso   1.00
H60    H     0.28630   0.58200   0.73520   0.01267  Uiso   1.00
H61    H     0.46210   0.47640   0.80980   0.01267  Uiso   1.00
H62    H     0.39860   0.37780   0.87440   0.01267  Uiso   1.00
H63    H     0.35210   0.52660   0.65260   0.01267  Uiso   1.00
H64    H     0.02950   0.56680   0.54060   0.01267  Uiso   1.00
H65    H     0.88710   0.72740   0.54060   0.01267  Uiso   1.00
H66    H     0.99610   0.83300   0.84160   0.01267  Uiso   1.00
H67    H     0.20730   0.84300   0.77900   0.01267  Uiso   1.00
H68    H     0.41000   0.71920   0.77180   0.01267  Uiso   1.00
H69    H     0.01750   0.53360   0.95100   0.01267  Uiso   1.00
H70    H     0.15200   0.38220   0.93240   0.01267  Uiso   1.00
H71    H     0.38010   0.74820   0.69440   0.01267  Uiso   1.00
H72    H     0.17910   0.86900   0.70580   0.01267  Uiso   1.00
C1     C     0.09060   0.80334   0.00506   0.01267  Uiso   1.00
C2     C     0.02143   0.02394   0.46480   0.01267  Uiso   1.00
C3     C     0.03391   0.92052   0.10246   0.01267  Uiso   1.00
C4     C     0.97870   0.82180   0.38620   0.01267  Uiso   1.00
C5     C     0.00665   0.81326   0.08384   0.01267  Uiso   1.00
C6     C     0.96425   0.95444   0.39526   0.01267  Uiso   1.00
C7     C     0.13306   0.65450   0.13958   0.01267  Uiso   1.00
C8     C     0.05533   0.68210   0.10244   0.01267  Uiso   1.00
C9     C     0.14578   0.81610   0.23934   0.01267  Uiso   1.00
C10    C     0.13575   0.97168   0.32882   0.01267  Uiso   1.00
C11    C     0.03958   0.02980   0.36744   0.01267  Uiso   1.00
C12    C     0.11184   0.89772   0.14000   0.01267  Uiso   1.00
C13    C     0.93519   0.83442   0.04260   0.01267  Uiso   1.00
C14    C     0.07179   0.75878   0.34764   0.01267  Uiso   1.00
C15    C     0.26320   0.76052   0.27688   0.01267  Uiso   1.00
C16    C     0.87318   0.02050   0.43674   0.01267  Uiso   1.00
C17    C     0.26143   0.73284   0.19970   0.01267  Uiso   1.00
C18    C     0.89900   0.19666   0.99494   0.01267  Uiso   1.00
C19    C     0.51017   0.97606   0.53520   0.01267  Uiso   1.00
C20    C     0.05689   0.07948   0.89754   0.01267  Uiso   1.00
C21    C     0.18670   0.17820   0.61380   0.01267  Uiso   1.00
C22    C     0.90375   0.18674   0.91616   0.01267  Uiso   1.00
C23    C     0.31395   0.04556   0.60474   0.01267  Uiso   1.00
C24    C     0.92714   0.34550   0.86042   0.01267  Uiso   1.00
C25    C     0.83987   0.31790   0.89756   0.01267  Uiso   1.00
C26    C     0.20122   0.18390   0.76066   0.01267  Uiso   1.00
C27    C     0.43625   0.02832   0.67118   0.01267  Uiso   1.00
C28    C     0.43682   0.97020   0.63256   0.01267  Uiso   1.00
C29    C     0.14956   0.10228   0.86000   0.01267  Uiso   1.00
C30    C     0.81221   0.16558   0.95740   0.01267  Uiso   1.00
C31    C     0.17821   0.24122   0.65236   0.01267  Uiso   1.00
C32    C     0.30060   0.23948   0.72312   0.01267  Uiso   1.00
C33    C     0.33042   0.97950   0.56326   0.01267  Uiso   1.00
C34    C     0.19397   0.26716   0.80030   0.01267  Uiso   1.00
C35    C     0.34566   0.30334   0.49494   0.01267  Uiso   1.00
C36    C     0.73623   0.52394   0.03520   0.01267  Uiso   1.00
C37    C     0.38637   0.42052   0.39754   0.01267  Uiso   1.00
C38    C     0.61490   0.32180   0.11380   0.01267  Uiso   1.00
C39    C     0.34049   0.31326   0.41616   0.01267  Uiso   1.00
C40    C     0.60951   0.45444   0.10474   0.01267  Uiso   1.00
C41    C     0.52264   0.15450   0.36042   0.01267  Uiso   1.00
C42    C     0.40777   0.18210   0.39756   0.01267  Uiso   1.00
C43    C     0.63512   0.31610   0.26066   0.01267  Uiso   1.00
C44    C     0.71457   0.47168   0.17118   0.01267  Uiso   1.00
C45    C     0.65702   0.52980   0.13256   0.01267  Uiso   1.00
C46    C     0.50184   0.39772   0.36000   0.01267  Uiso   1.00
C47    C     0.22779   0.33442   0.45740   0.01267  Uiso   1.00
C48    C     0.66943   0.25878   0.15236   0.01267  Uiso   1.00
C49    C     0.79008   0.26052   0.22312   0.01267  Uiso   1.00
C50    C     0.55992   0.52050   0.06326   0.01267  Uiso   1.00
C51    C     0.71113   0.23284   0.30030   0.01267  Uiso   1.00
C52    C     0.14394   0.69666   0.50506   0.01267  Uiso   1.00
C53    C     0.29537   0.47606   0.96480   0.01267  Uiso   1.00
C54    C     0.20443   0.57948   0.60246   0.01267  Uiso   1.00
C55    C     0.05050   0.67820   0.88620   0.01267  Uiso   1.00
C56    C     0.06991   0.68674   0.58384   0.01267  Uiso   1.00
C57    C     0.16869   0.54556   0.89526   0.01267  Uiso   1.00
C58    C     0.03756   0.84550   0.63958   0.01267  Uiso   1.00
C59    C     0.98743   0.81790   0.60244   0.01267  Uiso   1.00
C60    C     0.21188   0.68390   0.73934   0.01267  Uiso   1.00
C61    C     0.35743   0.52832   0.82882   0.01267  Uiso   1.00
C62    C     0.31938   0.47020   0.86744   0.01267  Uiso   1.00
C63    C     0.25956   0.60228   0.64000   0.01267  Uiso   1.00
C64    C     0.01961   0.66558   0.54260   0.01267  Uiso   1.00
C65    C     0.08057   0.74122   0.84764   0.01267  Uiso   1.00
C66    C     0.27372   0.73948   0.77688   0.01267  Uiso   1.00
C67    C     0.14368   0.47950   0.93674   0.01267  Uiso   1.00
C68    C     0.24427   0.76716   0.69970   0.01267  Uiso   1.00
N1     N     0.16699   0.76364   0.16018   0.01267  Uiso   1.00
N2     N     0.15277   0.82862   0.31844   0.01267  Uiso   1.00
N3     N     0.69222   0.22106   0.61610   0.01267  Uiso   1.00
N4     N     0.09081   0.23636   0.83982   0.01267  Uiso   1.00
N5     N     0.29983   0.17138   0.68156   0.01267  Uiso   1.00
N6     N     0.52938   0.77894   0.38390   0.01267  Uiso   1.00
N7     N     0.57717   0.26364   0.33982   0.01267  Uiso   1.00
N8     N     0.72121   0.32862   0.18156   0.01267  Uiso   1.00
N9     N     0.55832   0.72106   0.88390   0.01267  Uiso   1.00
N10    N     0.18063   0.73636   0.66018   0.01267  Uiso   1.00
N11    N     0.23139   0.67138   0.81844   0.01267  Uiso   1.00
N12    N     0.16328   0.27894   0.11610   0.01267  Uiso   1.00
O1     O     0.95864   0.07792   0.50096   0.01267  Uiso   1.00
O2     O     0.19370   0.97558   0.44984   0.01267  Uiso   1.00
O3     O     0.26118   0.76554   0.01290   0.01267  Uiso   1.00
O4     O     0.83304   0.14308   0.59224   0.01267  Uiso   1.00
O5     O     0.03525   0.81826   0.96944   0.01267  Uiso   1.00
O6     O     0.54707   0.29598   0.59828   0.01267  Uiso   1.00
O7     O     0.78482   0.37546   0.52830   0.01267  Uiso   1.00
O8     O     0.69974   0.21850   0.65402   0.01267  Uiso   1.00
O9     O     0.53752   0.92208   0.49904   0.01267  Uiso   1.00
O10    O     0.61912   0.02442   0.55016   0.01267  Uiso   1.00
O11    O     0.03962   0.23446   0.98710   0.01267  Uiso   1.00
O12    O     0.56836   0.85692   0.40776   0.01267  Uiso   1.00
O13    O     0.82295   0.18174   0.03056   0.01267  Uiso   1.00
O14    O     0.44133   0.70402   0.40172   0.01267  Uiso   1.00
O15    O     0.68858   0.62454   0.47170   0.01267  Uiso   1.00
O16    O     0.57226   0.78150   0.34598   0.01267  Uiso   1.00
O17    O     0.70960   0.57792   0.99904   0.01267  Uiso   1.00
O18    O     0.89354   0.47558   0.05016   0.01267  Uiso   1.00
O19    O     0.52408   0.26554   0.48710   0.01267  Uiso   1.00
O20    O     0.67528   0.64308   0.90776   0.01267  Uiso   1.00
O21    O     0.25469   0.31826   0.53056   0.01267  Uiso   1.00
O22    O     0.39535   0.79598   0.90172   0.01267  Uiso   1.00
O23    O     0.56312   0.87546   0.97170   0.01267  Uiso   1.00
O24    O     0.60376   0.71850   0.84598   0.01267  Uiso   1.00
O25    O     0.28656   0.42208   0.00096   0.01267  Uiso   1.00
O26    O     0.41928   0.52442   0.94984   0.01267  Uiso   1.00
O27    O     0.27672   0.73446   0.51290   0.01267  Uiso   1.00
O28    O     0.22612   0.35692   0.09224   0.01267  Uiso   1.00
O29    O     0.10351   0.68174   0.46944   0.01267  Uiso   1.00
O30    O     0.09305   0.20402   0.09828   0.01267  Uiso   1.00
O31    O     0.41028   0.12454   0.02830   0.01267  Uiso   1.00
O32    O     0.16824   0.28150   0.15402   0.01267  Uiso   1.00
N13    N     0.91965   0.41284   0.38666   0.01267  Uiso   1.00
O33    O     0.00904   0.35006   0.35366   0.01267  Uiso   1.00
O34    O     0.86138   0.34728   0.41576   0.01267  Uiso   1.00
O35    O     0.89726   0.54134   0.39234   0.01267  Uiso   1.00
N14    N     0.71915   0.58716   0.61334   0.01267  Uiso   1.00
O36    O     0.71276   0.64994   0.64634   0.01267  Uiso   1.00
O37    O     0.62442   0.65272   0.58424   0.01267  Uiso   1.00
O38    O     0.83094   0.45866   0.60766   0.01267  Uiso   1.00
N15    N     0.55631   0.91284   0.11334   0.01267  Uiso   1.00
O39    O     0.61270   0.85006   0.14634   0.01267  Uiso   1.00
O40    O     0.52714   0.84728   0.08424   0.01267  Uiso   1.00
O41    O     0.53960   0.04134   0.10766   0.01267  Uiso   1.00
N16    N     0.58249   0.08716   0.88666   0.01267  Uiso   1.00
O42    O     0.60910   0.14994   0.85366   0.01267  Uiso   1.00
O43    O     0.45866   0.15272   0.91576   0.01267  Uiso   1.00
O44    O     0.68860   0.95866   0.89234   0.01267  Uiso   1.00
