data_SEFSOM_clean
_audit_creation_date              2014-07-02
_audit_creation_method            'Materials Studio'
_symmetry_space_group_name_H-M    'P1'
_symmetry_Int_Tables_number       1
_symmetry_cell_setting            triclinic
loop_
_symmetry_equiv_pos_as_xyz
  x,y,z
_cell_length_a                    10.0800
_cell_length_b                    13.0630
_cell_length_c                    17.8150
_cell_angle_alpha                 79.0290
_cell_angle_beta                  86.3250
_cell_angle_gamma                 78.2110
loop_
_atom_site_label
_atom_site_type_symbol
_atom_site_fract_x
_atom_site_fract_y
_atom_site_fract_z
_atom_site_U_iso_or_equiv
_atom_site_adp_type
_atom_site_occupancy
Cd1    Cd    0.95709   0.90344   0.80099   0.01267  Uiso   1.00
Cd2    Cd    0.04291   0.09656   0.19901   0.01267  Uiso   1.00
H1     H     0.59320   0.18760   0.69620   0.01267  Uiso   1.00
H2     H     0.47080   0.91770   0.78960   0.01267  Uiso   1.00
H3     H     0.19670   0.17710   0.70480   0.01267  Uiso   1.00
H4     H     0.21310   0.73550   0.72320   0.01267  Uiso   1.00
H5     H     0.18620   0.57860   0.67150   0.01267  Uiso   1.00
H6     H     0.82900   0.71890   0.74340   0.01267  Uiso   1.00
H7     H     0.82430   0.58150   0.65950   0.01267  Uiso   1.00
H8     H     0.96420   0.52750   0.62750   0.01267  Uiso   1.00
H9     H     0.07260   0.45080   0.79600   0.01267  Uiso   1.00
H10    H     0.06060   0.29610   0.88200   0.01267  Uiso   1.00
H11    H     0.73930   0.26180   0.77210   0.01267  Uiso   1.00
H12    H     0.75640   0.41470   0.68450   0.01267  Uiso   1.00
H13    H     0.89180   0.10700   0.86610   0.01267  Uiso   1.00
H14    H     0.78480   0.17630   0.91300   0.01267  Uiso   1.00
H15    H     0.15380   0.09940   0.90990   0.01267  Uiso   1.00
H16    H     0.23770   0.07000   0.03770   0.01267  Uiso   1.00
H17    H     0.84950   0.16870   0.04850   0.01267  Uiso   1.00
H18    H     0.40680   0.81240   0.30380   0.01267  Uiso   1.00
H19    H     0.52920   0.08230   0.21040   0.01267  Uiso   1.00
H20    H     0.80330   0.82290   0.29520   0.01267  Uiso   1.00
H21    H     0.78690   0.26450   0.27680   0.01267  Uiso   1.00
H22    H     0.81380   0.42140   0.32850   0.01267  Uiso   1.00
H23    H     0.17100   0.28110   0.25660   0.01267  Uiso   1.00
H24    H     0.17570   0.41850   0.34050   0.01267  Uiso   1.00
H25    H     0.03580   0.47250   0.37250   0.01267  Uiso   1.00
H26    H     0.92740   0.54920   0.20400   0.01267  Uiso   1.00
H27    H     0.93940   0.70390   0.11800   0.01267  Uiso   1.00
H28    H     0.26070   0.73820   0.22790   0.01267  Uiso   1.00
H29    H     0.24360   0.58530   0.31550   0.01267  Uiso   1.00
H30    H     0.10820   0.89300   0.13390   0.01267  Uiso   1.00
H31    H     0.21520   0.82370   0.08700   0.01267  Uiso   1.00
H32    H     0.84620   0.90060   0.09010   0.01267  Uiso   1.00
H33    H     0.76230   0.93000   0.96230   0.01267  Uiso   1.00
H34    H     0.15050   0.83130   0.95150   0.01267  Uiso   1.00
C1     C     0.38710   0.19870   0.69581   0.01267  Uiso   1.00
C2     C     0.52380   0.15020   0.71080   0.01267  Uiso   1.00
C3     C     0.55120   0.04510   0.74801   0.01267  Uiso   1.00
C4     C     0.69450   0.98990   0.76817   0.01267  Uiso   1.00
C5     C     0.44890   0.98890   0.76658   0.01267  Uiso   1.00
C6     C     0.31220   0.03540   0.75197   0.01267  Uiso   1.00
C7     C     0.20460   0.97550   0.77211   0.01267  Uiso   1.00
C8     C     0.28570   0.14320   0.71556   0.01267  Uiso   1.00
C9     C     0.13220   0.71240   0.72134   0.01267  Uiso   1.00
C10    C     0.11830   0.62600   0.69187   0.01267  Uiso   1.00
C11    C     0.92150   0.70360   0.73210   0.01267  Uiso   1.00
C12    C     0.91650   0.54734   0.67321   0.01267  Uiso   1.00
C13    C     0.91570   0.44754   0.73178   0.01267  Uiso   1.00
C14    C     0.00610   0.41258   0.79128   0.01267  Uiso   1.00
C15    C     0.99710   0.32060   0.84370   0.01267  Uiso   1.00
C16    C     0.89600   0.26500   0.84010   0.01267  Uiso   1.00
C17    C     0.80530   0.30010   0.77740   0.01267  Uiso   1.00
C18    C     0.81610   0.39140   0.72470   0.01267  Uiso   1.00
C19    C     0.87730   0.16660   0.89290   0.01267  Uiso   1.00
C20    C     0.10180   0.10980   0.95379   0.01267  Uiso   1.00
C21    C     0.14760   0.09490   0.02437   0.01267  Uiso   1.00
C22    C     0.93750   0.14800   0.03011   0.01267  Uiso   1.00
C23    C     0.61290   0.80130   0.30419   0.01267  Uiso   1.00
C24    C     0.47620   0.84980   0.28920   0.01267  Uiso   1.00
C25    C     0.44880   0.95490   0.25199   0.01267  Uiso   1.00
C26    C     0.30550   0.01010   0.23183   0.01267  Uiso   1.00
C27    C     0.55110   0.01110   0.23342   0.01267  Uiso   1.00
C28    C     0.68780   0.96460   0.24803   0.01267  Uiso   1.00
C29    C     0.79540   0.02450   0.22789   0.01267  Uiso   1.00
C30    C     0.71430   0.85680   0.28444   0.01267  Uiso   1.00
C31    C     0.86780   0.28760   0.27866   0.01267  Uiso   1.00
C32    C     0.88170   0.37400   0.30813   0.01267  Uiso   1.00
C33    C     0.07850   0.29640   0.26790   0.01267  Uiso   1.00
C34    C     0.08350   0.45266   0.32679   0.01267  Uiso   1.00
C35    C     0.08430   0.55246   0.26822   0.01267  Uiso   1.00
C36    C     0.99390   0.58742   0.20872   0.01267  Uiso   1.00
C37    C     0.00290   0.67940   0.15630   0.01267  Uiso   1.00
C38    C     0.10400   0.73500   0.15990   0.01267  Uiso   1.00
C39    C     0.19470   0.69990   0.22260   0.01267  Uiso   1.00
C40    C     0.18390   0.60860   0.27530   0.01267  Uiso   1.00
C41    C     0.12270   0.83340   0.10710   0.01267  Uiso   1.00
C42    C     0.89820   0.89020   0.04621   0.01267  Uiso   1.00
C43    C     0.85240   0.90510   0.97563   0.01267  Uiso   1.00
C44    C     0.06250   0.85200   0.96989   0.01267  Uiso   1.00
S1     S     0.34497   0.33415   0.65077   0.01267  Uiso   1.00
S2     S     0.65503   0.66585   0.34923   0.01267  Uiso   1.00
N1     N     0.00650   0.76020   0.74817   0.01267  Uiso   1.00
N2     N     0.97850   0.62448   0.69898   0.01267  Uiso   1.00
N3     N     0.96820   0.14240   0.95775   0.01267  Uiso   1.00
N4     N     0.04480   0.12110   0.07355   0.01267  Uiso   1.00
N5     N     0.99350   0.23980   0.25183   0.01267  Uiso   1.00
N6     N     0.02150   0.37552   0.30102   0.01267  Uiso   1.00
N7     N     0.03180   0.85760   0.04225   0.01267  Uiso   1.00
N8     N     0.95520   0.87890   0.92645   0.01267  Uiso   1.00
O1     O     0.45790   0.35669   0.60061   0.01267  Uiso   1.00
O2     O     0.32510   0.39309   0.70982   0.01267  Uiso   1.00
O3     O     0.22770   0.34037   0.60888   0.01267  Uiso   1.00
O4     O     0.78730   0.04222   0.75257   0.01267  Uiso   1.00
O5     O     0.71850   0.89547   0.79658   0.01267  Uiso   1.00
O6     O     0.23130   0.88182   0.80544   0.01267  Uiso   1.00
O7     O     0.08420   0.02237   0.75746   0.01267  Uiso   1.00
O8     O     0.54210   0.64331   0.39939   0.01267  Uiso   1.00
O9     O     0.67490   0.60691   0.29018   0.01267  Uiso   1.00
O10    O     0.77230   0.65963   0.39112   0.01267  Uiso   1.00
O11    O     0.21270   0.95778   0.24743   0.01267  Uiso   1.00
O12    O     0.28150   0.10453   0.20342   0.01267  Uiso   1.00
O13    O     0.76870   0.11818   0.19456   0.01267  Uiso   1.00
O14    O     0.91580   0.97763   0.24254   0.01267  Uiso   1.00
Cd3    Cd    0.50000   0.50000   0.50000   0.01267  Uiso   1.00
H35    H     0.85140   0.49950   0.48020   0.01267  Uiso   1.00
H36    H     0.03320   0.35100   0.53500   0.01267  Uiso   1.00
H37    H     0.68280   0.25730   0.55950   0.01267  Uiso   1.00
H38    H     0.03030   0.16650   0.61590   0.01267  Uiso   1.00
H39    H     0.88940   0.13620   0.64050   0.01267  Uiso   1.00
H40    H     0.02670   0.95520   0.62900   0.01267  Uiso   1.00
H41    H     0.92620   0.17410   0.44590   0.01267  Uiso   1.00
H42    H     0.63140   0.70730   0.51420   0.01267  Uiso   1.00
H43    H     0.52350   0.69740   0.73220   0.01267  Uiso   1.00
H44    H     0.46540   0.54270   0.68690   0.01267  Uiso   1.00
H45    H     0.73780   0.82700   0.60450   0.01267  Uiso   1.00
H46    H     0.62830   0.86120   0.66650   0.01267  Uiso   1.00
H47    H     0.37670   0.90950   0.59140   0.01267  Uiso   1.00
H48    H     0.73150   0.96410   0.50180   0.01267  Uiso   1.00
H49    H     0.14860   0.50050   0.51980   0.01267  Uiso   1.00
H50    H     0.96680   0.64900   0.46500   0.01267  Uiso   1.00
H51    H     0.31720   0.74270   0.44050   0.01267  Uiso   1.00
H52    H     0.96970   0.83350   0.38410   0.01267  Uiso   1.00
H53    H     0.11060   0.86380   0.35950   0.01267  Uiso   1.00
H54    H     0.97330   0.04480   0.37100   0.01267  Uiso   1.00
H55    H     0.07380   0.82590   0.55410   0.01267  Uiso   1.00
H56    H     0.36860   0.29270   0.48580   0.01267  Uiso   1.00
H57    H     0.47650   0.30260   0.26780   0.01267  Uiso   1.00
H58    H     0.53460   0.45730   0.31310   0.01267  Uiso   1.00
H59    H     0.26220   0.17300   0.39550   0.01267  Uiso   1.00
H60    H     0.37170   0.13880   0.33350   0.01267  Uiso   1.00
H61    H     0.62330   0.09050   0.40860   0.01267  Uiso   1.00
H62    H     0.26850   0.03590   0.49820   0.01267  Uiso   1.00
C45    C     0.83900   0.43180   0.50298   0.01267  Uiso   1.00
C46    C     0.94150   0.34990   0.53316   0.01267  Uiso   1.00
C47    C     0.74780   0.29940   0.54620   0.01267  Uiso   1.00
C48    C     0.94460   0.16090   0.59683   0.01267  Uiso   1.00
C49    C     0.97130   0.07860   0.54489   0.01267  Uiso   1.00
C50    C     0.01550   0.97430   0.57644   0.01267  Uiso   1.00
C51    C     0.95620   0.10350   0.46869   0.01267  Uiso   1.00
C52    C     0.59640   0.68540   0.56289   0.01267  Uiso   1.00
C53    C     0.53790   0.68190   0.68312   0.01267  Uiso   1.00
C54    C     0.50600   0.59520   0.65733   0.01267  Uiso   1.00
C55    C     0.64160   0.83820   0.61742   0.01267  Uiso   1.00
C56    C     0.56740   0.92130   0.55849   0.01267  Uiso   1.00
C57    C     0.42770   0.94550   0.55403   0.01267  Uiso   1.00
C58    C     0.63730   0.97780   0.50127   0.01267  Uiso   1.00
C59    C     0.16100   0.56820   0.49702   0.01267  Uiso   1.00
C60    C     0.05850   0.65010   0.46684   0.01267  Uiso   1.00
C61    C     0.25220   0.70060   0.45380   0.01267  Uiso   1.00
C62    C     0.05540   0.83910   0.40317   0.01267  Uiso   1.00
C63    C     0.02870   0.92140   0.45511   0.01267  Uiso   1.00
C64    C     0.98450   0.02570   0.42356   0.01267  Uiso   1.00
C65    C     0.04380   0.89650   0.53131   0.01267  Uiso   1.00
C66    C     0.40360   0.31460   0.43711   0.01267  Uiso   1.00
C67    C     0.46210   0.31810   0.31688   0.01267  Uiso   1.00
C68    C     0.49400   0.40480   0.34267   0.01267  Uiso   1.00
C69    C     0.35840   0.16180   0.38258   0.01267  Uiso   1.00
C70    C     0.43260   0.07870   0.44151   0.01267  Uiso   1.00
C71    C     0.57230   0.05450   0.44597   0.01267  Uiso   1.00
C72    C     0.36270   0.02220   0.49873   0.01267  Uiso   1.00
N9     N     0.71950   0.40120   0.51075   0.01267  Uiso   1.00
N10    N     0.87710   0.26561   0.56004   0.01267  Uiso   1.00
N11    N     0.54330   0.59990   0.58351   0.01267  Uiso   1.00
N12    N     0.59330   0.73760   0.62285   0.01267  Uiso   1.00
N13    N     0.28050   0.59880   0.48925   0.01267  Uiso   1.00
N14    N     0.12290   0.73439   0.43996   0.01267  Uiso   1.00
N15    N     0.45670   0.40010   0.41649   0.01267  Uiso   1.00
N16    N     0.40670   0.26240   0.37715   0.01267  Uiso   1.00
