data_image0
_cell_length_a       17.086
_cell_length_b       17.086
_cell_length_c       17.086
_cell_angle_alpha    90
_cell_angle_beta     90
_cell_angle_gamma    90

_symmetry_space_group_name_H-M    "P 1"
_symmetry_int_tables_number       1

loop_
  _symmetry_equiv_pos_as_xyz
  'x, y, z'

loop_
  _atom_site_label
  _atom_site_occupancy
  _atom_site_fract_x
  _atom_site_fract_y
  _atom_site_fract_z
  _atom_site_thermal_displace_type
  _atom_site_B_iso_or_equiv
  _atom_site_type_symbol
  N1       1.0000 0.03006  0.68289  0.40946  Biso   1.000  N
  C1       1.0000 0.09908  0.68870  0.36782  Biso   1.000  C
  H1       1.0000 0.13960  0.72560  0.37690  Biso   1.000  H
  H2       1.0000 0.91040  0.60320  0.46300  Biso   1.000  H
  N2       1.0000 0.53006  0.18289  0.90946  Biso   1.000  N
  C2       1.0000 0.59908  0.18870  0.86782  Biso   1.000  C
  H3       1.0000 0.63960  0.22560  0.87690  Biso   1.000  H
  H4       1.0000 0.41040  0.10320  0.96300  Biso   1.000  H
  N3       1.0000 0.96994  0.31711  0.40946  Biso   1.000  N
  C3       1.0000 0.90092  0.31130  0.36782  Biso   1.000  C
  H5       1.0000 0.86040  0.27440  0.37690  Biso   1.000  H
  H6       1.0000 0.08960  0.39680  0.46300  Biso   1.000  H
  N4       1.0000 0.46994  0.81711  0.90946  Biso   1.000  N
  C4       1.0000 0.40092  0.81130  0.86782  Biso   1.000  C
  H7       1.0000 0.36040  0.77440  0.87690  Biso   1.000  H
  H8       1.0000 0.58960  0.89680  0.96300  Biso   1.000  H
  N5       1.0000 0.96994  0.68289  0.59054  Biso   1.000  N
  C5       1.0000 0.90092  0.68870  0.63218  Biso   1.000  C
  H9       1.0000 0.86040  0.72560  0.62310  Biso   1.000  H
  H10      1.0000 0.08960  0.60320  0.53700  Biso   1.000  H
  N6       1.0000 0.46994  0.18289  0.09054  Biso   1.000  N
  C6       1.0000 0.40092  0.18870  0.13218  Biso   1.000  C
  H11      1.0000 0.36040  0.22560  0.12310  Biso   1.000  H
  H12      1.0000 0.58960  0.10320  0.03700  Biso   1.000  H
  N7       1.0000 0.03006  0.31711  0.59054  Biso   1.000  N
  C7       1.0000 0.09908  0.31130  0.63218  Biso   1.000  C
  H13      1.0000 0.13960  0.27440  0.62310  Biso   1.000  H
  H14      1.0000 0.91040  0.39680  0.53700  Biso   1.000  H
  N8       1.0000 0.53006  0.81711  0.09054  Biso   1.000  N
  C8       1.0000 0.59908  0.81130  0.13218  Biso   1.000  C
  H15      1.0000 0.63960  0.77440  0.12310  Biso   1.000  H
  H16      1.0000 0.41040  0.89680  0.03700  Biso   1.000  H
  N9       1.0000 0.40946  0.03006  0.68289  Biso   1.000  N
  C9       1.0000 0.36782  0.09908  0.68870  Biso   1.000  C
  H17      1.0000 0.37690  0.13960  0.72560  Biso   1.000  H
  H18      1.0000 0.46300  0.91040  0.60320  Biso   1.000  H
  N10      1.0000 0.90946  0.53006  0.18289  Biso   1.000  N
  C10      1.0000 0.86782  0.59908  0.18870  Biso   1.000  C
  H19      1.0000 0.87690  0.63960  0.22560  Biso   1.000  H
  H20      1.0000 0.96300  0.41040  0.10320  Biso   1.000  H
  N11      1.0000 0.40946  0.96994  0.31711  Biso   1.000  N
  C11      1.0000 0.36782  0.90092  0.31130  Biso   1.000  C
  H21      1.0000 0.37690  0.86040  0.27440  Biso   1.000  H
  H22      1.0000 0.46300  0.08960  0.39680  Biso   1.000  H
  N12      1.0000 0.90946  0.46994  0.81711  Biso   1.000  N
  C12      1.0000 0.86782  0.40092  0.81130  Biso   1.000  C
  H23      1.0000 0.87690  0.36040  0.77440  Biso   1.000  H
  H24      1.0000 0.96300  0.58960  0.89680  Biso   1.000  H
  N13      1.0000 0.59054  0.96994  0.68289  Biso   1.000  N
  C13      1.0000 0.63218  0.90092  0.68870  Biso   1.000  C
  H25      1.0000 0.62310  0.86040  0.72560  Biso   1.000  H
  H26      1.0000 0.53700  0.08960  0.60320  Biso   1.000  H
  N14      1.0000 0.09054  0.46994  0.18289  Biso   1.000  N
  C14      1.0000 0.13218  0.40092  0.18870  Biso   1.000  C
  H27      1.0000 0.12310  0.36040  0.22560  Biso   1.000  H
  H28      1.0000 0.03700  0.58960  0.10320  Biso   1.000  H
  N15      1.0000 0.59054  0.03006  0.31711  Biso   1.000  N
  C15      1.0000 0.63218  0.09908  0.31130  Biso   1.000  C
  H29      1.0000 0.62310  0.13960  0.27440  Biso   1.000  H
  H30      1.0000 0.53700  0.91040  0.39680  Biso   1.000  H
  N16      1.0000 0.09054  0.53006  0.81711  Biso   1.000  N
  C16      1.0000 0.13218  0.59908  0.81130  Biso   1.000  C
  H31      1.0000 0.12310  0.63960  0.77440  Biso   1.000  H
  H32      1.0000 0.03700  0.41040  0.89680  Biso   1.000  H
  N17      1.0000 0.68289  0.40946  0.03006  Biso   1.000  N
  C17      1.0000 0.68870  0.36782  0.09908  Biso   1.000  C
  H33      1.0000 0.72560  0.37690  0.13960  Biso   1.000  H
  H34      1.0000 0.60320  0.46300  0.91040  Biso   1.000  H
  N18      1.0000 0.18289  0.90946  0.53006  Biso   1.000  N
  C18      1.0000 0.18870  0.86782  0.59908  Biso   1.000  C
  H35      1.0000 0.22560  0.87690  0.63960  Biso   1.000  H
  H36      1.0000 0.10320  0.96300  0.41040  Biso   1.000  H
  N19      1.0000 0.31711  0.40946  0.96994  Biso   1.000  N
  C19      1.0000 0.31130  0.36782  0.90092  Biso   1.000  C
  H37      1.0000 0.27440  0.37690  0.86040  Biso   1.000  H
  H38      1.0000 0.39680  0.46300  0.08960  Biso   1.000  H
  N20      1.0000 0.81711  0.90946  0.46994  Biso   1.000  N
  C20      1.0000 0.81130  0.86782  0.40092  Biso   1.000  C
  H39      1.0000 0.77440  0.87690  0.36040  Biso   1.000  H
  H40      1.0000 0.89680  0.96300  0.58960  Biso   1.000  H
  N21      1.0000 0.68289  0.59054  0.96994  Biso   1.000  N
  C21      1.0000 0.68870  0.63218  0.90092  Biso   1.000  C
  H41      1.0000 0.72560  0.62310  0.86040  Biso   1.000  H
  H42      1.0000 0.60320  0.53700  0.08960  Biso   1.000  H
  N22      1.0000 0.18289  0.09054  0.46994  Biso   1.000  N
  C22      1.0000 0.18870  0.13218  0.40092  Biso   1.000  C
  H43      1.0000 0.22560  0.12310  0.36040  Biso   1.000  H
  H44      1.0000 0.10320  0.03700  0.58960  Biso   1.000  H
  N23      1.0000 0.31711  0.59054  0.03006  Biso   1.000  N
  C23      1.0000 0.31130  0.63218  0.09908  Biso   1.000  C
  H45      1.0000 0.27440  0.62310  0.13960  Biso   1.000  H
  H46      1.0000 0.39680  0.53700  0.91040  Biso   1.000  H
  N24      1.0000 0.81711  0.09054  0.53006  Biso   1.000  N
  C24      1.0000 0.81130  0.13218  0.59908  Biso   1.000  C
  H47      1.0000 0.77440  0.12310  0.63960  Biso   1.000  H
  H48      1.0000 0.89680  0.03700  0.41040  Biso   1.000  H
  N25      1.0000 0.68289  0.03006  0.40946  Biso   1.000  N
  C25      1.0000 0.68870  0.09908  0.36782  Biso   1.000  C
  H49      1.0000 0.72560  0.13960  0.37690  Biso   1.000  H
  H50      1.0000 0.60320  0.91040  0.46300  Biso   1.000  H
  N26      1.0000 0.18289  0.53006  0.90946  Biso   1.000  N
  C26      1.0000 0.18870  0.59908  0.86782  Biso   1.000  C
  H51      1.0000 0.22560  0.63960  0.87690  Biso   1.000  H
  H52      1.0000 0.10320  0.41040  0.96300  Biso   1.000  H
  N27      1.0000 0.31711  0.96994  0.40946  Biso   1.000  N
  C27      1.0000 0.31130  0.90092  0.36782  Biso   1.000  C
  H53      1.0000 0.27440  0.86040  0.37690  Biso   1.000  H
  H54      1.0000 0.39680  0.08960  0.46300  Biso   1.000  H
  N28      1.0000 0.81711  0.46994  0.90946  Biso   1.000  N
  C28      1.0000 0.81130  0.40092  0.86782  Biso   1.000  C
  H55      1.0000 0.77440  0.36040  0.87690  Biso   1.000  H
  H56      1.0000 0.89680  0.58960  0.96300  Biso   1.000  H
  N29      1.0000 0.68289  0.96994  0.59054  Biso   1.000  N
  C29      1.0000 0.68870  0.90092  0.63218  Biso   1.000  C
  H57      1.0000 0.72560  0.86040  0.62310  Biso   1.000  H
  H58      1.0000 0.60320  0.08960  0.53700  Biso   1.000  H
  N30      1.0000 0.18289  0.46994  0.09054  Biso   1.000  N
  C30      1.0000 0.18870  0.40092  0.13218  Biso   1.000  C
  H59      1.0000 0.22560  0.36040  0.12310  Biso   1.000  H
  H60      1.0000 0.10320  0.58960  0.03700  Biso   1.000  H
  N31      1.0000 0.31711  0.03006  0.59054  Biso   1.000  N
  C31      1.0000 0.31130  0.09908  0.63218  Biso   1.000  C
  H61      1.0000 0.27440  0.13960  0.62310  Biso   1.000  H
  H62      1.0000 0.39680  0.91040  0.53700  Biso   1.000  H
  N32      1.0000 0.81711  0.53006  0.09054  Biso   1.000  N
  C32      1.0000 0.81130  0.59908  0.13218  Biso   1.000  C
  H63      1.0000 0.77440  0.63960  0.12310  Biso   1.000  H
  H64      1.0000 0.89680  0.41040  0.03700  Biso   1.000  H
  N33      1.0000 0.03006  0.40946  0.68289  Biso   1.000  N
  C33      1.0000 0.09908  0.36782  0.68870  Biso   1.000  C
  H65      1.0000 0.13960  0.37690  0.72560  Biso   1.000  H
  H66      1.0000 0.91040  0.46300  0.60320  Biso   1.000  H
  N34      1.0000 0.53006  0.90946  0.18289  Biso   1.000  N
  C34      1.0000 0.59908  0.86782  0.18870  Biso   1.000  C
  H67      1.0000 0.63960  0.87690  0.22560  Biso   1.000  H
  H68      1.0000 0.41040  0.96300  0.10320  Biso   1.000  H
  N35      1.0000 0.96994  0.40946  0.31711  Biso   1.000  N
  C35      1.0000 0.90092  0.36782  0.31130  Biso   1.000  C
  H69      1.0000 0.86040  0.37690  0.27440  Biso   1.000  H
  H70      1.0000 0.08960  0.46300  0.39680  Biso   1.000  H
  N36      1.0000 0.46994  0.90946  0.81711  Biso   1.000  N
  C36      1.0000 0.40092  0.86782  0.81130  Biso   1.000  C
  H71      1.0000 0.36040  0.87690  0.77440  Biso   1.000  H
  H72      1.0000 0.58960  0.96300  0.89680  Biso   1.000  H
  N37      1.0000 0.96994  0.59054  0.68289  Biso   1.000  N
  C37      1.0000 0.90092  0.63218  0.68870  Biso   1.000  C
  H73      1.0000 0.86040  0.62310  0.72560  Biso   1.000  H
  H74      1.0000 0.08960  0.53700  0.60320  Biso   1.000  H
  N38      1.0000 0.46994  0.09054  0.18289  Biso   1.000  N
  C38      1.0000 0.40092  0.13218  0.18870  Biso   1.000  C
  H75      1.0000 0.36040  0.12310  0.22560  Biso   1.000  H
  H76      1.0000 0.58960  0.03700  0.10320  Biso   1.000  H
  N39      1.0000 0.03006  0.59054  0.31711  Biso   1.000  N
  C39      1.0000 0.09908  0.63218  0.31130  Biso   1.000  C
  H77      1.0000 0.13960  0.62310  0.27440  Biso   1.000  H
  H78      1.0000 0.91040  0.53700  0.39680  Biso   1.000  H
  N40      1.0000 0.53006  0.09054  0.81711  Biso   1.000  N
  C40      1.0000 0.59908  0.13218  0.81130  Biso   1.000  C
  H79      1.0000 0.63960  0.12310  0.77440  Biso   1.000  H
  H80      1.0000 0.41040  0.03700  0.89680  Biso   1.000  H
  N41      1.0000 0.40946  0.68289  0.03006  Biso   1.000  N
  C41      1.0000 0.36782  0.68870  0.09908  Biso   1.000  C
  H81      1.0000 0.37690  0.72560  0.13960  Biso   1.000  H
  H82      1.0000 0.46300  0.60320  0.91040  Biso   1.000  H
  N42      1.0000 0.90946  0.18289  0.53006  Biso   1.000  N
  C42      1.0000 0.86782  0.18870  0.59908  Biso   1.000  C
  H83      1.0000 0.87690  0.22560  0.63960  Biso   1.000  H
  H84      1.0000 0.96300  0.10320  0.41040  Biso   1.000  H
  N43      1.0000 0.40946  0.31711  0.96994  Biso   1.000  N
  C43      1.0000 0.36782  0.31130  0.90092  Biso   1.000  C
  H85      1.0000 0.37690  0.27440  0.86040  Biso   1.000  H
  H86      1.0000 0.46300  0.39680  0.08960  Biso   1.000  H
  N44      1.0000 0.90946  0.81711  0.46994  Biso   1.000  N
  C44      1.0000 0.86782  0.81130  0.40092  Biso   1.000  C
  H87      1.0000 0.87690  0.77440  0.36040  Biso   1.000  H
  H88      1.0000 0.96300  0.89680  0.58960  Biso   1.000  H
  N45      1.0000 0.59054  0.68289  0.96994  Biso   1.000  N
  C45      1.0000 0.63218  0.68870  0.90092  Biso   1.000  C
  H89      1.0000 0.62310  0.72560  0.86040  Biso   1.000  H
  H90      1.0000 0.53700  0.60320  0.08960  Biso   1.000  H
  N46      1.0000 0.09054  0.18289  0.46994  Biso   1.000  N
  C46      1.0000 0.13218  0.18870  0.40092  Biso   1.000  C
  H91      1.0000 0.12310  0.22560  0.36040  Biso   1.000  H
  H92      1.0000 0.03700  0.10320  0.58960  Biso   1.000  H
  N47      1.0000 0.59054  0.31711  0.03006  Biso   1.000  N
  C47      1.0000 0.63218  0.31130  0.09908  Biso   1.000  C
  H93      1.0000 0.62310  0.27440  0.13960  Biso   1.000  H
  H94      1.0000 0.53700  0.39680  0.91040  Biso   1.000  H
  N48      1.0000 0.09054  0.81711  0.53006  Biso   1.000  N
  C48      1.0000 0.13218  0.81130  0.59908  Biso   1.000  C
  H95      1.0000 0.12310  0.77440  0.63960  Biso   1.000  H
  H96      1.0000 0.03700  0.89680  0.41040  Biso   1.000  H
  Zn1      1.0000 0.00000  0.75000  0.50000  Biso   1.000  Zn
  Zn2      1.0000 0.00000  0.25000  0.50000  Biso   1.000  Zn
  Zn3      1.0000 0.50000  0.00000  0.75000  Biso   1.000  Zn
  Zn4      1.0000 0.50000  0.00000  0.25000  Biso   1.000  Zn
  Zn5      1.0000 0.75000  0.50000  0.00000  Biso   1.000  Zn
  Zn6      1.0000 0.25000  0.50000  0.00000  Biso   1.000  Zn
  Zn7      1.0000 0.75000  0.00000  0.50000  Biso   1.000  Zn
  Zn8      1.0000 0.25000  0.00000  0.50000  Biso   1.000  Zn
  Zn9      1.0000 0.00000  0.50000  0.75000  Biso   1.000  Zn
  Zn10     1.0000 0.00000  0.50000  0.25000  Biso   1.000  Zn
  Zn11     1.0000 0.50000  0.75000  0.00000  Biso   1.000  Zn
  Zn12     1.0000 0.50000  0.25000  0.00000  Biso   1.000  Zn
  C49      1.0000 0.99170  0.62288  0.37712  Biso   1.000  C
  C50      1.0000 0.91440  0.59340  0.40660  Biso   1.000  C
  H97      1.0000 0.87190  0.62060  0.37940  Biso   1.000  H
  C51      1.0000 0.49170  0.12288  0.87712  Biso   1.000  C
  C52      1.0000 0.41440  0.09340  0.90660  Biso   1.000  C
  H98      1.0000 0.37190  0.12060  0.87940  Biso   1.000  H
  C53      1.0000 0.00830  0.37712  0.37712  Biso   1.000  C
  C54      1.0000 0.08560  0.40660  0.40660  Biso   1.000  C
  H99      1.0000 0.12810  0.37940  0.37940  Biso   1.000  H
  C55      1.0000 0.50830  0.87712  0.87712  Biso   1.000  C
  C56      1.0000 0.58560  0.90660  0.90660  Biso   1.000  C
  H100     1.0000 0.62810  0.87940  0.87940  Biso   1.000  H
  C57      1.0000 0.00830  0.62288  0.62288  Biso   1.000  C
  C58      1.0000 0.08560  0.59340  0.59340  Biso   1.000  C
  H101     1.0000 0.12810  0.62060  0.62060  Biso   1.000  H
  C59      1.0000 0.50830  0.12288  0.12288  Biso   1.000  C
  C60      1.0000 0.58560  0.09340  0.09340  Biso   1.000  C
  H102     1.0000 0.62810  0.12060  0.12060  Biso   1.000  H
  C61      1.0000 0.99170  0.37712  0.62288  Biso   1.000  C
  C62      1.0000 0.91440  0.40660  0.59340  Biso   1.000  C
  H103     1.0000 0.87190  0.37940  0.62060  Biso   1.000  H
  C63      1.0000 0.49170  0.87712  0.12288  Biso   1.000  C
  C64      1.0000 0.41440  0.90660  0.09340  Biso   1.000  C
  H104     1.0000 0.37190  0.87940  0.12060  Biso   1.000  H
  C65      1.0000 0.37712  0.99170  0.62288  Biso   1.000  C
  C66      1.0000 0.40660  0.91440  0.59340  Biso   1.000  C
  H105     1.0000 0.37940  0.87190  0.62060  Biso   1.000  H
  C67      1.0000 0.87712  0.49170  0.12288  Biso   1.000  C
  C68      1.0000 0.90660  0.41440  0.09340  Biso   1.000  C
  H106     1.0000 0.87940  0.37190  0.12060  Biso   1.000  H
  C69      1.0000 0.37712  0.00830  0.37712  Biso   1.000  C
  C70      1.0000 0.40660  0.08560  0.40660  Biso   1.000  C
  H107     1.0000 0.37940  0.12810  0.37940  Biso   1.000  H
  C71      1.0000 0.87712  0.50830  0.87712  Biso   1.000  C
  C72      1.0000 0.90660  0.58560  0.90660  Biso   1.000  C
  H108     1.0000 0.87940  0.62810  0.87940  Biso   1.000  H
  C73      1.0000 0.62288  0.00830  0.62288  Biso   1.000  C
  C74      1.0000 0.59340  0.08560  0.59340  Biso   1.000  C
  H109     1.0000 0.62060  0.12810  0.62060  Biso   1.000  H
  C75      1.0000 0.12288  0.50830  0.12288  Biso   1.000  C
  C76      1.0000 0.09340  0.58560  0.09340  Biso   1.000  C
  H110     1.0000 0.12060  0.62810  0.12060  Biso   1.000  H
  C77      1.0000 0.62288  0.99170  0.37712  Biso   1.000  C
  C78      1.0000 0.59340  0.91440  0.40660  Biso   1.000  C
  H111     1.0000 0.62060  0.87190  0.37940  Biso   1.000  H
  C79      1.0000 0.12288  0.49170  0.87712  Biso   1.000  C
  C80      1.0000 0.09340  0.41440  0.90660  Biso   1.000  C
  H112     1.0000 0.12060  0.37190  0.87940  Biso   1.000  H
  C81      1.0000 0.62288  0.37712  0.99170  Biso   1.000  C
  C82      1.0000 0.59340  0.40660  0.91440  Biso   1.000  C
  H113     1.0000 0.62060  0.37940  0.87190  Biso   1.000  H
  C83      1.0000 0.12288  0.87712  0.49170  Biso   1.000  C
  C84      1.0000 0.09340  0.90660  0.41440  Biso   1.000  C
  H114     1.0000 0.12060  0.87940  0.37190  Biso   1.000  H
  C85      1.0000 0.37712  0.37712  0.00830  Biso   1.000  C
  C86      1.0000 0.40660  0.40660  0.08560  Biso   1.000  C
  H115     1.0000 0.37940  0.37940  0.12810  Biso   1.000  H
  C87      1.0000 0.87712  0.87712  0.50830  Biso   1.000  C
  C88      1.0000 0.90660  0.90660  0.58560  Biso   1.000  C
  H116     1.0000 0.87940  0.87940  0.62810  Biso   1.000  H
  C89      1.0000 0.62288  0.62288  0.00830  Biso   1.000  C
  C90      1.0000 0.59340  0.59340  0.08560  Biso   1.000  C
  H117     1.0000 0.62060  0.62060  0.12810  Biso   1.000  H
  C91      1.0000 0.12288  0.12288  0.50830  Biso   1.000  C
  C92      1.0000 0.09340  0.09340  0.58560  Biso   1.000  C
  H118     1.0000 0.12060  0.12060  0.62810  Biso   1.000  H
  C93      1.0000 0.37712  0.62288  0.99170  Biso   1.000  C
  C94      1.0000 0.40660  0.59340  0.91440  Biso   1.000  C
  H119     1.0000 0.37940  0.62060  0.87190  Biso   1.000  H
  C95      1.0000 0.87712  0.12288  0.49170  Biso   1.000  C
  C96      1.0000 0.90660  0.09340  0.41440  Biso   1.000  C
  H120     1.0000 0.87940  0.12060  0.37190  Biso   1.000  H
