data_image0
_cell_length_a       17.0641
_cell_length_b       17.0641
_cell_length_c       17.0641
_cell_angle_alpha    90
_cell_angle_beta     90
_cell_angle_gamma    90

_symmetry_space_group_name_H-M    "P 1"
_symmetry_int_tables_number       1

loop_
  _symmetry_equiv_pos_as_xyz
  'x, y, z'

loop_
  _atom_site_label
  _atom_site_occupancy
  _atom_site_fract_x
  _atom_site_fract_y
  _atom_site_fract_z
  _atom_site_thermal_displace_type
  _atom_site_B_iso_or_equiv
  _atom_site_type_symbol
  N1       1.0000 0.02595  0.68273  0.40844  Biso   1.000  N
  C1       1.0000 0.09454  0.68773  0.36751  Biso   1.000  C
  H1       1.0000 0.13540  0.72440  0.37680  Biso   1.000  H
  H2       1.0000 0.90110  0.60750  0.45880  Biso   1.000  H
  N2       1.0000 0.09454  0.63249  0.31227  Biso   1.000  N
  N3       1.0000 0.52595  0.18273  0.90844  Biso   1.000  N
  C2       1.0000 0.59454  0.18773  0.86751  Biso   1.000  C
  H3       1.0000 0.63540  0.22440  0.87680  Biso   1.000  H
  H4       1.0000 0.40110  0.10750  0.95880  Biso   1.000  H
  N4       1.0000 0.59454  0.13249  0.81227  Biso   1.000  N
  N5       1.0000 0.97405  0.31727  0.40844  Biso   1.000  N
  C3       1.0000 0.90546  0.31227  0.36751  Biso   1.000  C
  H5       1.0000 0.86460  0.27560  0.37680  Biso   1.000  H
  H6       1.0000 0.09890  0.39250  0.45880  Biso   1.000  H
  N6       1.0000 0.90546  0.36751  0.31227  Biso   1.000  N
  N7       1.0000 0.47405  0.81727  0.90844  Biso   1.000  N
  C4       1.0000 0.40546  0.81227  0.86751  Biso   1.000  C
  H7       1.0000 0.36460  0.77560  0.87680  Biso   1.000  H
  H8       1.0000 0.59890  0.89250  0.95880  Biso   1.000  H
  N8       1.0000 0.40546  0.86751  0.81227  Biso   1.000  N
  N9       1.0000 0.97405  0.68273  0.59156  Biso   1.000  N
  C5       1.0000 0.90546  0.68773  0.63249  Biso   1.000  C
  H9       1.0000 0.86460  0.72440  0.62320  Biso   1.000  H
  H10      1.0000 0.09890  0.60750  0.54120  Biso   1.000  H
  N10      1.0000 0.90546  0.63249  0.68773  Biso   1.000  N
  N11      1.0000 0.47405  0.18273  0.09156  Biso   1.000  N
  C6       1.0000 0.40546  0.18773  0.13249  Biso   1.000  C
  H11      1.0000 0.36460  0.22440  0.12320  Biso   1.000  H
  H12      1.0000 0.59890  0.10750  0.04120  Biso   1.000  H
  N12      1.0000 0.40546  0.13249  0.18773  Biso   1.000  N
  N13      1.0000 0.02595  0.31727  0.59156  Biso   1.000  N
  C7       1.0000 0.09454  0.31227  0.63249  Biso   1.000  C
  H13      1.0000 0.13540  0.27560  0.62320  Biso   1.000  H
  H14      1.0000 0.90110  0.39250  0.54120  Biso   1.000  H
  N14      1.0000 0.09454  0.36751  0.68773  Biso   1.000  N
  N15      1.0000 0.52595  0.81727  0.09156  Biso   1.000  N
  C8       1.0000 0.59454  0.81227  0.13249  Biso   1.000  C
  H15      1.0000 0.63540  0.77560  0.12320  Biso   1.000  H
  H16      1.0000 0.40110  0.89250  0.04120  Biso   1.000  H
  N16      1.0000 0.59454  0.86751  0.18773  Biso   1.000  N
  N17      1.0000 0.40844  0.02595  0.68273  Biso   1.000  N
  C9       1.0000 0.36751  0.09454  0.68773  Biso   1.000  C
  H17      1.0000 0.37680  0.13540  0.72440  Biso   1.000  H
  H18      1.0000 0.45880  0.90110  0.60750  Biso   1.000  H
  N18      1.0000 0.31227  0.09454  0.63249  Biso   1.000  N
  N19      1.0000 0.90844  0.52595  0.18273  Biso   1.000  N
  C10      1.0000 0.86751  0.59454  0.18773  Biso   1.000  C
  H19      1.0000 0.87680  0.63540  0.22440  Biso   1.000  H
  H20      1.0000 0.95880  0.40110  0.10750  Biso   1.000  H
  N20      1.0000 0.81227  0.59454  0.13249  Biso   1.000  N
  N21      1.0000 0.40844  0.97405  0.31727  Biso   1.000  N
  C11      1.0000 0.36751  0.90546  0.31227  Biso   1.000  C
  H21      1.0000 0.37680  0.86460  0.27560  Biso   1.000  H
  H22      1.0000 0.45880  0.09890  0.39250  Biso   1.000  H
  N22      1.0000 0.31227  0.90546  0.36751  Biso   1.000  N
  N23      1.0000 0.90844  0.47405  0.81727  Biso   1.000  N
  C12      1.0000 0.86751  0.40546  0.81227  Biso   1.000  C
  H23      1.0000 0.87680  0.36460  0.77560  Biso   1.000  H
  H24      1.0000 0.95880  0.59890  0.89250  Biso   1.000  H
  N24      1.0000 0.81227  0.40546  0.86751  Biso   1.000  N
  N25      1.0000 0.59156  0.97405  0.68273  Biso   1.000  N
  C13      1.0000 0.63249  0.90546  0.68773  Biso   1.000  C
  H25      1.0000 0.62320  0.86460  0.72440  Biso   1.000  H
  H26      1.0000 0.54120  0.09890  0.60750  Biso   1.000  H
  N26      1.0000 0.68773  0.90546  0.63249  Biso   1.000  N
  N27      1.0000 0.09156  0.47405  0.18273  Biso   1.000  N
  C14      1.0000 0.13249  0.40546  0.18773  Biso   1.000  C
  H27      1.0000 0.12320  0.36460  0.22440  Biso   1.000  H
  H28      1.0000 0.04120  0.59890  0.10750  Biso   1.000  H
  N28      1.0000 0.18773  0.40546  0.13249  Biso   1.000  N
  N29      1.0000 0.59156  0.02595  0.31727  Biso   1.000  N
  C15      1.0000 0.63249  0.09454  0.31227  Biso   1.000  C
  H29      1.0000 0.62320  0.13540  0.27560  Biso   1.000  H
  H30      1.0000 0.54120  0.90110  0.39250  Biso   1.000  H
  N30      1.0000 0.68773  0.09454  0.36751  Biso   1.000  N
  N31      1.0000 0.09156  0.52595  0.81727  Biso   1.000  N
  C16      1.0000 0.13249  0.59454  0.81227  Biso   1.000  C
  H31      1.0000 0.12320  0.63540  0.77560  Biso   1.000  H
  H32      1.0000 0.04120  0.40110  0.89250  Biso   1.000  H
  N32      1.0000 0.18773  0.59454  0.86751  Biso   1.000  N
  N33      1.0000 0.68273  0.40844  0.02595  Biso   1.000  N
  C17      1.0000 0.68773  0.36751  0.09454  Biso   1.000  C
  H33      1.0000 0.72440  0.37680  0.13540  Biso   1.000  H
  H34      1.0000 0.60750  0.45880  0.90110  Biso   1.000  H
  N34      1.0000 0.63249  0.31227  0.09454  Biso   1.000  N
  N35      1.0000 0.18273  0.90844  0.52595  Biso   1.000  N
  C18      1.0000 0.18773  0.86751  0.59454  Biso   1.000  C
  H35      1.0000 0.22440  0.87680  0.63540  Biso   1.000  H
  H36      1.0000 0.10750  0.95880  0.40110  Biso   1.000  H
  N36      1.0000 0.13249  0.81227  0.59454  Biso   1.000  N
  N37      1.0000 0.31727  0.40844  0.97405  Biso   1.000  N
  C19      1.0000 0.31227  0.36751  0.90546  Biso   1.000  C
  H37      1.0000 0.27560  0.37680  0.86460  Biso   1.000  H
  H38      1.0000 0.39250  0.45880  0.09890  Biso   1.000  H
  N38      1.0000 0.36751  0.31227  0.90546  Biso   1.000  N
  N39      1.0000 0.81727  0.90844  0.47405  Biso   1.000  N
  C20      1.0000 0.81227  0.86751  0.40546  Biso   1.000  C
  H39      1.0000 0.77560  0.87680  0.36460  Biso   1.000  H
  H40      1.0000 0.89250  0.95880  0.59890  Biso   1.000  H
  N40      1.0000 0.86751  0.81227  0.40546  Biso   1.000  N
  N41      1.0000 0.68273  0.59156  0.97405  Biso   1.000  N
  C21      1.0000 0.68773  0.63249  0.90546  Biso   1.000  C
  H41      1.0000 0.72440  0.62320  0.86460  Biso   1.000  H
  H42      1.0000 0.60750  0.54120  0.09890  Biso   1.000  H
  N42      1.0000 0.63249  0.68773  0.90546  Biso   1.000  N
  N43      1.0000 0.18273  0.09156  0.47405  Biso   1.000  N
  C22      1.0000 0.18773  0.13249  0.40546  Biso   1.000  C
  H43      1.0000 0.22440  0.12320  0.36460  Biso   1.000  H
  H44      1.0000 0.10750  0.04120  0.59890  Biso   1.000  H
  N44      1.0000 0.13249  0.18773  0.40546  Biso   1.000  N
  N45      1.0000 0.31727  0.59156  0.02595  Biso   1.000  N
  C23      1.0000 0.31227  0.63249  0.09454  Biso   1.000  C
  H45      1.0000 0.27560  0.62320  0.13540  Biso   1.000  H
  H46      1.0000 0.39250  0.54120  0.90110  Biso   1.000  H
  N46      1.0000 0.36751  0.68773  0.09454  Biso   1.000  N
  N47      1.0000 0.81727  0.09156  0.52595  Biso   1.000  N
  C24      1.0000 0.81227  0.13249  0.59454  Biso   1.000  C
  H47      1.0000 0.77560  0.12320  0.63540  Biso   1.000  H
  H48      1.0000 0.89250  0.04120  0.40110  Biso   1.000  H
  N48      1.0000 0.86751  0.18773  0.59454  Biso   1.000  N
  N49      1.0000 0.68273  0.02595  0.40844  Biso   1.000  N
  H49      1.0000 0.72440  0.13540  0.37680  Biso   1.000  H
  H50      1.0000 0.60750  0.90110  0.45880  Biso   1.000  H
  N50      1.0000 0.18273  0.52595  0.90844  Biso   1.000  N
  H51      1.0000 0.22440  0.63540  0.87680  Biso   1.000  H
  H52      1.0000 0.10750  0.40110  0.95880  Biso   1.000  H
  N51      1.0000 0.31727  0.97405  0.40844  Biso   1.000  N
  H53      1.0000 0.27560  0.86460  0.37680  Biso   1.000  H
  H54      1.0000 0.39250  0.09890  0.45880  Biso   1.000  H
  N52      1.0000 0.81727  0.47405  0.90844  Biso   1.000  N
  H55      1.0000 0.77560  0.36460  0.87680  Biso   1.000  H
  H56      1.0000 0.89250  0.59890  0.95880  Biso   1.000  H
  N53      1.0000 0.68273  0.97405  0.59156  Biso   1.000  N
  H57      1.0000 0.72440  0.86460  0.62320  Biso   1.000  H
  H58      1.0000 0.60750  0.09890  0.54120  Biso   1.000  H
  N54      1.0000 0.18273  0.47405  0.09156  Biso   1.000  N
  H59      1.0000 0.22440  0.36460  0.12320  Biso   1.000  H
  H60      1.0000 0.10750  0.59890  0.04120  Biso   1.000  H
  N55      1.0000 0.31727  0.02595  0.59156  Biso   1.000  N
  H61      1.0000 0.27560  0.13540  0.62320  Biso   1.000  H
  H62      1.0000 0.39250  0.90110  0.54120  Biso   1.000  H
  N56      1.0000 0.81727  0.52595  0.09156  Biso   1.000  N
  H63      1.0000 0.77560  0.63540  0.12320  Biso   1.000  H
  H64      1.0000 0.89250  0.40110  0.04120  Biso   1.000  H
  N57      1.0000 0.02595  0.40844  0.68273  Biso   1.000  N
  H65      1.0000 0.13540  0.37680  0.72440  Biso   1.000  H
  H66      1.0000 0.90110  0.45880  0.60750  Biso   1.000  H
  N58      1.0000 0.52595  0.90844  0.18273  Biso   1.000  N
  H67      1.0000 0.63540  0.87680  0.22440  Biso   1.000  H
  H68      1.0000 0.40110  0.95880  0.10750  Biso   1.000  H
  N59      1.0000 0.97405  0.40844  0.31727  Biso   1.000  N
  H69      1.0000 0.86460  0.37680  0.27560  Biso   1.000  H
  H70      1.0000 0.09890  0.45880  0.39250  Biso   1.000  H
  N60      1.0000 0.47405  0.90844  0.81727  Biso   1.000  N
  H71      1.0000 0.36460  0.87680  0.77560  Biso   1.000  H
  H72      1.0000 0.59890  0.95880  0.89250  Biso   1.000  H
  N61      1.0000 0.97405  0.59156  0.68273  Biso   1.000  N
  H73      1.0000 0.86460  0.62320  0.72440  Biso   1.000  H
  H74      1.0000 0.09890  0.54120  0.60750  Biso   1.000  H
  N62      1.0000 0.47405  0.09156  0.18273  Biso   1.000  N
  H75      1.0000 0.36460  0.12320  0.22440  Biso   1.000  H
  H76      1.0000 0.59890  0.04120  0.10750  Biso   1.000  H
  N63      1.0000 0.02595  0.59156  0.31727  Biso   1.000  N
  H77      1.0000 0.13540  0.62320  0.27560  Biso   1.000  H
  H78      1.0000 0.90110  0.54120  0.39250  Biso   1.000  H
  N64      1.0000 0.52595  0.09156  0.81727  Biso   1.000  N
  H79      1.0000 0.63540  0.12320  0.77560  Biso   1.000  H
  H80      1.0000 0.40110  0.04120  0.89250  Biso   1.000  H
  N65      1.0000 0.40844  0.68273  0.02595  Biso   1.000  N
  H81      1.0000 0.37680  0.72440  0.13540  Biso   1.000  H
  H82      1.0000 0.45880  0.60750  0.90110  Biso   1.000  H
  N66      1.0000 0.90844  0.18273  0.52595  Biso   1.000  N
  H83      1.0000 0.87680  0.22440  0.63540  Biso   1.000  H
  H84      1.0000 0.95880  0.10750  0.40110  Biso   1.000  H
  N67      1.0000 0.40844  0.31727  0.97405  Biso   1.000  N
  H85      1.0000 0.37680  0.27560  0.86460  Biso   1.000  H
  H86      1.0000 0.45880  0.39250  0.09890  Biso   1.000  H
  N68      1.0000 0.90844  0.81727  0.47405  Biso   1.000  N
  H87      1.0000 0.87680  0.77560  0.36460  Biso   1.000  H
  H88      1.0000 0.95880  0.89250  0.59890  Biso   1.000  H
  N69      1.0000 0.59156  0.68273  0.97405  Biso   1.000  N
  H89      1.0000 0.62320  0.72440  0.86460  Biso   1.000  H
  H90      1.0000 0.54120  0.60750  0.09890  Biso   1.000  H
  N70      1.0000 0.09156  0.18273  0.47405  Biso   1.000  N
  H91      1.0000 0.12320  0.22440  0.36460  Biso   1.000  H
  H92      1.0000 0.04120  0.10750  0.59890  Biso   1.000  H
  N71      1.0000 0.59156  0.31727  0.02595  Biso   1.000  N
  H93      1.0000 0.62320  0.27560  0.13540  Biso   1.000  H
  H94      1.0000 0.54120  0.39250  0.90110  Biso   1.000  H
  N72      1.0000 0.09156  0.81727  0.52595  Biso   1.000  N
  H95      1.0000 0.12320  0.77560  0.63540  Biso   1.000  H
  H96      1.0000 0.04120  0.89250  0.40110  Biso   1.000  H
  Zn1      1.0000 0.00000  0.75000  0.50000  Biso   1.000  Zn
  Zn2      1.0000 0.00000  0.25000  0.50000  Biso   1.000  Zn
  Zn3      1.0000 0.50000  0.00000  0.75000  Biso   1.000  Zn
  Zn4      1.0000 0.50000  0.00000  0.25000  Biso   1.000  Zn
  Zn5      1.0000 0.75000  0.50000  0.00000  Biso   1.000  Zn
  Zn6      1.0000 0.25000  0.50000  0.00000  Biso   1.000  Zn
  Zn7      1.0000 0.75000  0.00000  0.50000  Biso   1.000  Zn
  Zn8      1.0000 0.25000  0.00000  0.50000  Biso   1.000  Zn
  Zn9      1.0000 0.00000  0.50000  0.75000  Biso   1.000  Zn
  Zn10     1.0000 0.00000  0.50000  0.25000  Biso   1.000  Zn
  Zn11     1.0000 0.50000  0.75000  0.00000  Biso   1.000  Zn
  Zn12     1.0000 0.50000  0.25000  0.00000  Biso   1.000  Zn
  C25      1.0000 0.98670  0.62360  0.37640  Biso   1.000  C
  C26      1.0000 0.90700  0.59740  0.40260  Biso   1.000  C
  H97      1.0000 0.86680  0.62635  0.37365  Biso   1.000  H
  C27      1.0000 0.48670  0.12360  0.87640  Biso   1.000  C
  C28      1.0000 0.40700  0.09740  0.90260  Biso   1.000  C
  H98      1.0000 0.36680  0.12635  0.87365  Biso   1.000  H
  C29      1.0000 0.01330  0.37640  0.37640  Biso   1.000  C
  C30      1.0000 0.09300  0.40260  0.40260  Biso   1.000  C
  H99      1.0000 0.13320  0.37365  0.37365  Biso   1.000  H
  C31      1.0000 0.51330  0.87640  0.87640  Biso   1.000  C
  C32      1.0000 0.59300  0.90260  0.90260  Biso   1.000  C
  H100     1.0000 0.63320  0.87365  0.87365  Biso   1.000  H
  C33      1.0000 0.01330  0.62360  0.62360  Biso   1.000  C
  C34      1.0000 0.09300  0.59740  0.59740  Biso   1.000  C
  H101     1.0000 0.13320  0.62635  0.62635  Biso   1.000  H
  C35      1.0000 0.51330  0.12360  0.12360  Biso   1.000  C
  C36      1.0000 0.59300  0.09740  0.09740  Biso   1.000  C
  H102     1.0000 0.63320  0.12635  0.12635  Biso   1.000  H
  C37      1.0000 0.98670  0.37640  0.62360  Biso   1.000  C
  C38      1.0000 0.90700  0.40260  0.59740  Biso   1.000  C
  H103     1.0000 0.86680  0.37365  0.62635  Biso   1.000  H
  C39      1.0000 0.48670  0.87640  0.12360  Biso   1.000  C
  C40      1.0000 0.40700  0.90260  0.09740  Biso   1.000  C
  H104     1.0000 0.36680  0.87365  0.12635  Biso   1.000  H
  C41      1.0000 0.37640  0.98670  0.62360  Biso   1.000  C
  C42      1.0000 0.40260  0.90700  0.59740  Biso   1.000  C
  H105     1.0000 0.37365  0.86680  0.62635  Biso   1.000  H
  C43      1.0000 0.87640  0.48670  0.12360  Biso   1.000  C
  C44      1.0000 0.90260  0.40700  0.09740  Biso   1.000  C
  H106     1.0000 0.87365  0.36680  0.12635  Biso   1.000  H
  C45      1.0000 0.37640  0.01330  0.37640  Biso   1.000  C
  C46      1.0000 0.40260  0.09300  0.40260  Biso   1.000  C
  H107     1.0000 0.37365  0.13320  0.37365  Biso   1.000  H
  C47      1.0000 0.87640  0.51330  0.87640  Biso   1.000  C
  C48      1.0000 0.90260  0.59300  0.90260  Biso   1.000  C
  H108     1.0000 0.87365  0.63320  0.87365  Biso   1.000  H
  C49      1.0000 0.62360  0.01330  0.62360  Biso   1.000  C
  C50      1.0000 0.59740  0.09300  0.59740  Biso   1.000  C
  H109     1.0000 0.62635  0.13320  0.62635  Biso   1.000  H
  C51      1.0000 0.12360  0.51330  0.12360  Biso   1.000  C
  C52      1.0000 0.09740  0.59300  0.09740  Biso   1.000  C
  H110     1.0000 0.12635  0.63320  0.12635  Biso   1.000  H
  C53      1.0000 0.62360  0.98670  0.37640  Biso   1.000  C
  C54      1.0000 0.59740  0.90700  0.40260  Biso   1.000  C
  H111     1.0000 0.62635  0.86680  0.37365  Biso   1.000  H
  C55      1.0000 0.12360  0.48670  0.87640  Biso   1.000  C
  C56      1.0000 0.09740  0.40700  0.90260  Biso   1.000  C
  H112     1.0000 0.12635  0.36680  0.87365  Biso   1.000  H
  C57      1.0000 0.62360  0.37640  0.98670  Biso   1.000  C
  C58      1.0000 0.59740  0.40260  0.90700  Biso   1.000  C
  H113     1.0000 0.62635  0.37365  0.86680  Biso   1.000  H
  C59      1.0000 0.12360  0.87640  0.48670  Biso   1.000  C
  C60      1.0000 0.09740  0.90260  0.40700  Biso   1.000  C
  H114     1.0000 0.12635  0.87365  0.36680  Biso   1.000  H
  C61      1.0000 0.37640  0.37640  0.01330  Biso   1.000  C
  C62      1.0000 0.40260  0.40260  0.09300  Biso   1.000  C
  H115     1.0000 0.37365  0.37365  0.13320  Biso   1.000  H
  C63      1.0000 0.87640  0.87640  0.51330  Biso   1.000  C
  C64      1.0000 0.90260  0.90260  0.59300  Biso   1.000  C
  H116     1.0000 0.87365  0.87365  0.63320  Biso   1.000  H
  C65      1.0000 0.62360  0.62360  0.01330  Biso   1.000  C
  C66      1.0000 0.59740  0.59740  0.09300  Biso   1.000  C
  H117     1.0000 0.62635  0.62635  0.13320  Biso   1.000  H
  C67      1.0000 0.12360  0.12360  0.51330  Biso   1.000  C
  C68      1.0000 0.09740  0.09740  0.59300  Biso   1.000  C
  H118     1.0000 0.12635  0.12635  0.63320  Biso   1.000  H
  C69      1.0000 0.37640  0.62360  0.98670  Biso   1.000  C
  C70      1.0000 0.40260  0.59740  0.90700  Biso   1.000  C
  H119     1.0000 0.37365  0.62635  0.86680  Biso   1.000  H
  C71      1.0000 0.87640  0.12360  0.48670  Biso   1.000  C
  C72      1.0000 0.90260  0.09740  0.40700  Biso   1.000  C
  H120     1.0000 0.87365  0.12635  0.36680  Biso   1.000  H
