data_image0
_cell_length_a       17.1236
_cell_length_b       17.1236
_cell_length_c       17.1236
_cell_angle_alpha    90
_cell_angle_beta     90
_cell_angle_gamma    90

_symmetry_space_group_name_H-M    "P 1"
_symmetry_int_tables_number       1

loop_
  _symmetry_equiv_pos_as_xyz
  'x, y, z'

loop_
  _atom_site_label
  _atom_site_occupancy
  _atom_site_fract_x
  _atom_site_fract_y
  _atom_site_fract_z
  _atom_site_thermal_displace_type
  _atom_site_B_iso_or_equiv
  _atom_site_type_symbol
  N1       1.0000 0.03302  0.68104  0.41158  Biso   1.000  N
  C1       1.0000 0.10911  0.66618  0.38997  Biso   1.000  C
  H1       1.0000 0.15410  0.69100  0.41080  Biso   1.000  H
  H2       1.0000 0.88590  0.63880  0.42720  Biso   1.000  H
  N2       1.0000 0.53302  0.18104  0.91158  Biso   1.000  N
  C2       1.0000 0.60911  0.16618  0.88997  Biso   1.000  C
  H3       1.0000 0.65410  0.19100  0.91080  Biso   1.000  H
  H4       1.0000 0.38590  0.13880  0.92720  Biso   1.000  H
  N3       1.0000 0.96698  0.31896  0.41158  Biso   1.000  N
  C3       1.0000 0.89089  0.33382  0.38997  Biso   1.000  C
  H5       1.0000 0.84590  0.30900  0.41080  Biso   1.000  H
  H6       1.0000 0.11410  0.36120  0.42720  Biso   1.000  H
  N4       1.0000 0.46698  0.81896  0.91158  Biso   1.000  N
  C4       1.0000 0.39089  0.83382  0.88997  Biso   1.000  C
  H7       1.0000 0.34590  0.80900  0.91080  Biso   1.000  H
  H8       1.0000 0.61410  0.86120  0.92720  Biso   1.000  H
  N5       1.0000 0.96698  0.68104  0.58842  Biso   1.000  N
  C5       1.0000 0.89089  0.66618  0.61003  Biso   1.000  C
  H9       1.0000 0.84590  0.69100  0.58920  Biso   1.000  H
  H10      1.0000 0.11410  0.63880  0.57280  Biso   1.000  H
  N6       1.0000 0.46698  0.18104  0.08842  Biso   1.000  N
  C6       1.0000 0.39089  0.16618  0.11003  Biso   1.000  C
  H11      1.0000 0.34590  0.19100  0.08920  Biso   1.000  H
  H12      1.0000 0.61410  0.13880  0.07280  Biso   1.000  H
  N7       1.0000 0.03302  0.31896  0.58842  Biso   1.000  N
  C7       1.0000 0.10911  0.33382  0.61003  Biso   1.000  C
  H13      1.0000 0.15410  0.30900  0.58920  Biso   1.000  H
  H14      1.0000 0.88590  0.36120  0.57280  Biso   1.000  H
  N8       1.0000 0.53302  0.81896  0.08842  Biso   1.000  N
  C8       1.0000 0.60911  0.83382  0.11003  Biso   1.000  C
  H15      1.0000 0.65410  0.80900  0.08920  Biso   1.000  H
  H16      1.0000 0.38590  0.86120  0.07280  Biso   1.000  H
  N9       1.0000 0.41158  0.03302  0.68104  Biso   1.000  N
  C9       1.0000 0.38997  0.10911  0.66618  Biso   1.000  C
  H17      1.0000 0.41080  0.15410  0.69100  Biso   1.000  H
  H18      1.0000 0.42720  0.88590  0.63880  Biso   1.000  H
  N10      1.0000 0.91158  0.53302  0.18104  Biso   1.000  N
  C10      1.0000 0.88997  0.60911  0.16618  Biso   1.000  C
  H19      1.0000 0.91080  0.65410  0.19100  Biso   1.000  H
  H20      1.0000 0.92720  0.38590  0.13880  Biso   1.000  H
  N11      1.0000 0.41158  0.96698  0.31896  Biso   1.000  N
  C11      1.0000 0.38997  0.89089  0.33382  Biso   1.000  C
  H21      1.0000 0.41080  0.84590  0.30900  Biso   1.000  H
  H22      1.0000 0.42720  0.11410  0.36120  Biso   1.000  H
  N12      1.0000 0.91158  0.46698  0.81896  Biso   1.000  N
  C12      1.0000 0.88997  0.39089  0.83382  Biso   1.000  C
  H23      1.0000 0.91080  0.34590  0.80900  Biso   1.000  H
  H24      1.0000 0.92720  0.61410  0.86120  Biso   1.000  H
  N13      1.0000 0.58842  0.96698  0.68104  Biso   1.000  N
  C13      1.0000 0.61003  0.89089  0.66618  Biso   1.000  C
  H25      1.0000 0.58920  0.84590  0.69100  Biso   1.000  H
  H26      1.0000 0.57280  0.11410  0.63880  Biso   1.000  H
  N14      1.0000 0.08842  0.46698  0.18104  Biso   1.000  N
  C14      1.0000 0.11003  0.39089  0.16618  Biso   1.000  C
  H27      1.0000 0.08920  0.34590  0.19100  Biso   1.000  H
  H28      1.0000 0.07280  0.61410  0.13880  Biso   1.000  H
  N15      1.0000 0.58842  0.03302  0.31896  Biso   1.000  N
  C15      1.0000 0.61003  0.10911  0.33382  Biso   1.000  C
  H29      1.0000 0.58920  0.15410  0.30900  Biso   1.000  H
  H30      1.0000 0.57280  0.88590  0.36120  Biso   1.000  H
  N16      1.0000 0.08842  0.53302  0.81896  Biso   1.000  N
  C16      1.0000 0.11003  0.60911  0.83382  Biso   1.000  C
  H31      1.0000 0.08920  0.65410  0.80900  Biso   1.000  H
  H32      1.0000 0.07280  0.38590  0.86120  Biso   1.000  H
  N17      1.0000 0.68104  0.41158  0.03302  Biso   1.000  N
  C17      1.0000 0.66618  0.38997  0.10911  Biso   1.000  C
  H33      1.0000 0.69100  0.41080  0.15410  Biso   1.000  H
  H34      1.0000 0.63880  0.42720  0.88590  Biso   1.000  H
  N18      1.0000 0.18104  0.91158  0.53302  Biso   1.000  N
  C18      1.0000 0.16618  0.88997  0.60911  Biso   1.000  C
  H35      1.0000 0.19100  0.91080  0.65410  Biso   1.000  H
  H36      1.0000 0.13880  0.92720  0.38590  Biso   1.000  H
  N19      1.0000 0.31896  0.41158  0.96698  Biso   1.000  N
  C19      1.0000 0.33382  0.38997  0.89089  Biso   1.000  C
  H37      1.0000 0.30900  0.41080  0.84590  Biso   1.000  H
  H38      1.0000 0.36120  0.42720  0.11410  Biso   1.000  H
  N20      1.0000 0.81896  0.91158  0.46698  Biso   1.000  N
  C20      1.0000 0.83382  0.88997  0.39089  Biso   1.000  C
  H39      1.0000 0.80900  0.91080  0.34590  Biso   1.000  H
  H40      1.0000 0.86120  0.92720  0.61410  Biso   1.000  H
  N21      1.0000 0.68104  0.58842  0.96698  Biso   1.000  N
  C21      1.0000 0.66618  0.61003  0.89089  Biso   1.000  C
  H41      1.0000 0.69100  0.58920  0.84590  Biso   1.000  H
  H42      1.0000 0.63880  0.57280  0.11410  Biso   1.000  H
  N22      1.0000 0.18104  0.08842  0.46698  Biso   1.000  N
  C22      1.0000 0.16618  0.11003  0.39089  Biso   1.000  C
  H43      1.0000 0.19100  0.08920  0.34590  Biso   1.000  H
  H44      1.0000 0.13880  0.07280  0.61410  Biso   1.000  H
  N23      1.0000 0.31896  0.58842  0.03302  Biso   1.000  N
  C23      1.0000 0.33382  0.61003  0.10911  Biso   1.000  C
  H45      1.0000 0.30900  0.58920  0.15410  Biso   1.000  H
  H46      1.0000 0.36120  0.57280  0.88590  Biso   1.000  H
  N24      1.0000 0.81896  0.08842  0.53302  Biso   1.000  N
  C24      1.0000 0.83382  0.11003  0.60911  Biso   1.000  C
  H47      1.0000 0.80900  0.08920  0.65410  Biso   1.000  H
  H48      1.0000 0.86120  0.07280  0.38590  Biso   1.000  H
  N25      1.0000 0.68104  0.03302  0.41158  Biso   1.000  N
  C25      1.0000 0.66618  0.10911  0.38997  Biso   1.000  C
  H49      1.0000 0.69100  0.15410  0.41080  Biso   1.000  H
  H50      1.0000 0.63880  0.88590  0.42720  Biso   1.000  H
  N26      1.0000 0.18104  0.53302  0.91158  Biso   1.000  N
  C26      1.0000 0.16618  0.60911  0.88997  Biso   1.000  C
  H51      1.0000 0.19100  0.65410  0.91080  Biso   1.000  H
  H52      1.0000 0.13880  0.38590  0.92720  Biso   1.000  H
  N27      1.0000 0.31896  0.96698  0.41158  Biso   1.000  N
  C27      1.0000 0.33382  0.89089  0.38997  Biso   1.000  C
  H53      1.0000 0.30900  0.84590  0.41080  Biso   1.000  H
  H54      1.0000 0.36120  0.11410  0.42720  Biso   1.000  H
  N28      1.0000 0.81896  0.46698  0.91158  Biso   1.000  N
  C28      1.0000 0.83382  0.39089  0.88997  Biso   1.000  C
  H55      1.0000 0.80900  0.34590  0.91080  Biso   1.000  H
  H56      1.0000 0.86120  0.61410  0.92720  Biso   1.000  H
  N29      1.0000 0.68104  0.96698  0.58842  Biso   1.000  N
  C29      1.0000 0.66618  0.89089  0.61003  Biso   1.000  C
  H57      1.0000 0.69100  0.84590  0.58920  Biso   1.000  H
  H58      1.0000 0.63880  0.11410  0.57280  Biso   1.000  H
  N30      1.0000 0.18104  0.46698  0.08842  Biso   1.000  N
  C30      1.0000 0.16618  0.39089  0.11003  Biso   1.000  C
  H59      1.0000 0.19100  0.34590  0.08920  Biso   1.000  H
  H60      1.0000 0.13880  0.61410  0.07280  Biso   1.000  H
  N31      1.0000 0.31896  0.03302  0.58842  Biso   1.000  N
  C31      1.0000 0.33382  0.10911  0.61003  Biso   1.000  C
  H61      1.0000 0.30900  0.15410  0.58920  Biso   1.000  H
  H62      1.0000 0.36120  0.88590  0.57280  Biso   1.000  H
  N32      1.0000 0.81896  0.53302  0.08842  Biso   1.000  N
  C32      1.0000 0.83382  0.60911  0.11003  Biso   1.000  C
  H63      1.0000 0.80900  0.65410  0.08920  Biso   1.000  H
  H64      1.0000 0.86120  0.38590  0.07280  Biso   1.000  H
  N33      1.0000 0.03302  0.41158  0.68104  Biso   1.000  N
  C33      1.0000 0.10911  0.38997  0.66618  Biso   1.000  C
  H65      1.0000 0.15410  0.41080  0.69100  Biso   1.000  H
  H66      1.0000 0.88590  0.42720  0.63880  Biso   1.000  H
  N34      1.0000 0.53302  0.91158  0.18104  Biso   1.000  N
  C34      1.0000 0.60911  0.88997  0.16618  Biso   1.000  C
  H67      1.0000 0.65410  0.91080  0.19100  Biso   1.000  H
  H68      1.0000 0.38590  0.92720  0.13880  Biso   1.000  H
  N35      1.0000 0.96698  0.41158  0.31896  Biso   1.000  N
  C35      1.0000 0.89089  0.38997  0.33382  Biso   1.000  C
  H69      1.0000 0.84590  0.41080  0.30900  Biso   1.000  H
  H70      1.0000 0.11410  0.42720  0.36120  Biso   1.000  H
  N36      1.0000 0.46698  0.91158  0.81896  Biso   1.000  N
  C36      1.0000 0.39089  0.88997  0.83382  Biso   1.000  C
  H71      1.0000 0.34590  0.91080  0.80900  Biso   1.000  H
  H72      1.0000 0.61410  0.92720  0.86120  Biso   1.000  H
  N37      1.0000 0.96698  0.58842  0.68104  Biso   1.000  N
  C37      1.0000 0.89089  0.61003  0.66618  Biso   1.000  C
  H73      1.0000 0.84590  0.58920  0.69100  Biso   1.000  H
  H74      1.0000 0.11410  0.57280  0.63880  Biso   1.000  H
  N38      1.0000 0.46698  0.08842  0.18104  Biso   1.000  N
  C38      1.0000 0.39089  0.11003  0.16618  Biso   1.000  C
  H75      1.0000 0.34590  0.08920  0.19100  Biso   1.000  H
  H76      1.0000 0.61410  0.07280  0.13880  Biso   1.000  H
  N39      1.0000 0.03302  0.58842  0.31896  Biso   1.000  N
  C39      1.0000 0.10911  0.61003  0.33382  Biso   1.000  C
  H77      1.0000 0.15410  0.58920  0.30900  Biso   1.000  H
  H78      1.0000 0.88590  0.57280  0.36120  Biso   1.000  H
  N40      1.0000 0.53302  0.08842  0.81896  Biso   1.000  N
  C40      1.0000 0.60911  0.11003  0.83382  Biso   1.000  C
  H79      1.0000 0.65410  0.08920  0.80900  Biso   1.000  H
  H80      1.0000 0.38590  0.07280  0.86120  Biso   1.000  H
  N41      1.0000 0.41158  0.68104  0.03302  Biso   1.000  N
  C41      1.0000 0.38997  0.66618  0.10911  Biso   1.000  C
  H81      1.0000 0.41080  0.69100  0.15410  Biso   1.000  H
  H82      1.0000 0.42720  0.63880  0.88590  Biso   1.000  H
  N42      1.0000 0.91158  0.18104  0.53302  Biso   1.000  N
  C42      1.0000 0.88997  0.16618  0.60911  Biso   1.000  C
  H83      1.0000 0.91080  0.19100  0.65410  Biso   1.000  H
  H84      1.0000 0.92720  0.13880  0.38590  Biso   1.000  H
  N43      1.0000 0.41158  0.31896  0.96698  Biso   1.000  N
  C43      1.0000 0.38997  0.33382  0.89089  Biso   1.000  C
  H85      1.0000 0.41080  0.30900  0.84590  Biso   1.000  H
  H86      1.0000 0.42720  0.36120  0.11410  Biso   1.000  H
  N44      1.0000 0.91158  0.81896  0.46698  Biso   1.000  N
  C44      1.0000 0.88997  0.83382  0.39089  Biso   1.000  C
  H87      1.0000 0.91080  0.80900  0.34590  Biso   1.000  H
  H88      1.0000 0.92720  0.86120  0.61410  Biso   1.000  H
  N45      1.0000 0.58842  0.68104  0.96698  Biso   1.000  N
  C45      1.0000 0.61003  0.66618  0.89089  Biso   1.000  C
  H89      1.0000 0.58920  0.69100  0.84590  Biso   1.000  H
  H90      1.0000 0.57280  0.63880  0.11410  Biso   1.000  H
  N46      1.0000 0.08842  0.18104  0.46698  Biso   1.000  N
  C46      1.0000 0.11003  0.16618  0.39089  Biso   1.000  C
  H91      1.0000 0.08920  0.19100  0.34590  Biso   1.000  H
  H92      1.0000 0.07280  0.13880  0.61410  Biso   1.000  H
  N47      1.0000 0.58842  0.31896  0.03302  Biso   1.000  N
  C47      1.0000 0.61003  0.33382  0.10911  Biso   1.000  C
  H93      1.0000 0.58920  0.30900  0.15410  Biso   1.000  H
  H94      1.0000 0.57280  0.36120  0.88590  Biso   1.000  H
  N48      1.0000 0.08842  0.81896  0.53302  Biso   1.000  N
  C48      1.0000 0.11003  0.83382  0.60911  Biso   1.000  C
  H95      1.0000 0.08920  0.80900  0.65410  Biso   1.000  H
  H96      1.0000 0.07280  0.86120  0.38590  Biso   1.000  H
  Zn1      1.0000 0.00000  0.75000  0.50000  Biso   1.000  Zn
  Zn2      1.0000 0.00000  0.25000  0.50000  Biso   1.000  Zn
  Zn3      1.0000 0.50000  0.00000  0.75000  Biso   1.000  Zn
  Zn4      1.0000 0.50000  0.00000  0.25000  Biso   1.000  Zn
  Zn5      1.0000 0.75000  0.50000  0.00000  Biso   1.000  Zn
  Zn6      1.0000 0.25000  0.50000  0.00000  Biso   1.000  Zn
  Zn7      1.0000 0.75000  0.00000  0.50000  Biso   1.000  Zn
  Zn8      1.0000 0.25000  0.00000  0.50000  Biso   1.000  Zn
  Zn9      1.0000 0.00000  0.50000  0.75000  Biso   1.000  Zn
  Zn10     1.0000 0.00000  0.50000  0.25000  Biso   1.000  Zn
  Zn11     1.0000 0.50000  0.75000  0.00000  Biso   1.000  Zn
  Zn12     1.0000 0.50000  0.25000  0.00000  Biso   1.000  Zn
  C49      1.0000 0.99010  0.63222  0.36778  Biso   1.000  C
  C50      1.0000 0.90220  0.62613  0.37387  Biso   1.000  C
  H97      1.0000 0.87800  0.66280  0.33720  Biso   1.000  H
  C51      1.0000 0.49010  0.13222  0.86778  Biso   1.000  C
  C52      1.0000 0.40220  0.12613  0.87387  Biso   1.000  C
  H98      1.0000 0.37800  0.16280  0.83720  Biso   1.000  H
  C53      1.0000 0.00990  0.36778  0.36778  Biso   1.000  C
  C54      1.0000 0.09780  0.37387  0.37387  Biso   1.000  C
  H99      1.0000 0.12200  0.33720  0.33720  Biso   1.000  H
  C55      1.0000 0.50990  0.86778  0.86778  Biso   1.000  C
  C56      1.0000 0.59780  0.87387  0.87387  Biso   1.000  C
  H100     1.0000 0.62200  0.83720  0.83720  Biso   1.000  H
  C57      1.0000 0.00990  0.63222  0.63222  Biso   1.000  C
  C58      1.0000 0.09780  0.62613  0.62613  Biso   1.000  C
  H101     1.0000 0.12200  0.66280  0.66280  Biso   1.000  H
  C59      1.0000 0.50990  0.13222  0.13222  Biso   1.000  C
  C60      1.0000 0.59780  0.12613  0.12613  Biso   1.000  C
  H102     1.0000 0.62200  0.16280  0.16280  Biso   1.000  H
  C61      1.0000 0.99010  0.36778  0.63222  Biso   1.000  C
  C62      1.0000 0.90220  0.37387  0.62613  Biso   1.000  C
  H103     1.0000 0.87800  0.33720  0.66280  Biso   1.000  H
  C63      1.0000 0.49010  0.86778  0.13222  Biso   1.000  C
  C64      1.0000 0.40220  0.87387  0.12613  Biso   1.000  C
  H104     1.0000 0.37800  0.83720  0.16280  Biso   1.000  H
  C65      1.0000 0.36778  0.99010  0.63222  Biso   1.000  C
  C66      1.0000 0.37387  0.90220  0.62613  Biso   1.000  C
  H105     1.0000 0.33720  0.87800  0.66280  Biso   1.000  H
  C67      1.0000 0.86778  0.49010  0.13222  Biso   1.000  C
  C68      1.0000 0.87387  0.40220  0.12613  Biso   1.000  C
  H106     1.0000 0.83720  0.37800  0.16280  Biso   1.000  H
  C69      1.0000 0.36778  0.00990  0.36778  Biso   1.000  C
  C70      1.0000 0.37387  0.09780  0.37387  Biso   1.000  C
  H107     1.0000 0.33720  0.12200  0.33720  Biso   1.000  H
  C71      1.0000 0.86778  0.50990  0.86778  Biso   1.000  C
  C72      1.0000 0.87387  0.59780  0.87387  Biso   1.000  C
  H108     1.0000 0.83720  0.62200  0.83720  Biso   1.000  H
  C73      1.0000 0.63222  0.00990  0.63222  Biso   1.000  C
  C74      1.0000 0.62613  0.09780  0.62613  Biso   1.000  C
  H109     1.0000 0.66280  0.12200  0.66280  Biso   1.000  H
  C75      1.0000 0.13222  0.50990  0.13222  Biso   1.000  C
  C76      1.0000 0.12613  0.59780  0.12613  Biso   1.000  C
  H110     1.0000 0.16280  0.62200  0.16280  Biso   1.000  H
  C77      1.0000 0.63222  0.99010  0.36778  Biso   1.000  C
  C78      1.0000 0.62613  0.90220  0.37387  Biso   1.000  C
  H111     1.0000 0.66280  0.87800  0.33720  Biso   1.000  H
  C79      1.0000 0.13222  0.49010  0.86778  Biso   1.000  C
  C80      1.0000 0.12613  0.40220  0.87387  Biso   1.000  C
  H112     1.0000 0.16280  0.37800  0.83720  Biso   1.000  H
  C81      1.0000 0.63222  0.36778  0.99010  Biso   1.000  C
  C82      1.0000 0.62613  0.37387  0.90220  Biso   1.000  C
  H113     1.0000 0.66280  0.33720  0.87800  Biso   1.000  H
  C83      1.0000 0.13222  0.86778  0.49010  Biso   1.000  C
  C84      1.0000 0.12613  0.87387  0.40220  Biso   1.000  C
  H114     1.0000 0.16280  0.83720  0.37800  Biso   1.000  H
  C85      1.0000 0.36778  0.36778  0.00990  Biso   1.000  C
  C86      1.0000 0.37387  0.37387  0.09780  Biso   1.000  C
  H115     1.0000 0.33720  0.33720  0.12200  Biso   1.000  H
  C87      1.0000 0.86778  0.86778  0.50990  Biso   1.000  C
  C88      1.0000 0.87387  0.87387  0.59780  Biso   1.000  C
  H116     1.0000 0.83720  0.83720  0.62200  Biso   1.000  H
  C89      1.0000 0.63222  0.63222  0.00990  Biso   1.000  C
  C90      1.0000 0.62613  0.62613  0.09780  Biso   1.000  C
  H117     1.0000 0.66280  0.66280  0.12200  Biso   1.000  H
  C91      1.0000 0.13222  0.13222  0.50990  Biso   1.000  C
  C92      1.0000 0.12613  0.12613  0.59780  Biso   1.000  C
  H118     1.0000 0.16280  0.16280  0.62200  Biso   1.000  H
  C93      1.0000 0.36778  0.63222  0.99010  Biso   1.000  C
  C94      1.0000 0.37387  0.62613  0.90220  Biso   1.000  C
  H119     1.0000 0.33720  0.66280  0.87800  Biso   1.000  H
  C95      1.0000 0.86778  0.13222  0.49010  Biso   1.000  C
  C96      1.0000 0.87387  0.12613  0.40220  Biso   1.000  C
  H120     1.0000 0.83720  0.16280  0.37800  Biso   1.000  H
