data_image0
_cell_length_a       17.133
_cell_length_b       17.133
_cell_length_c       17.133
_cell_angle_alpha    90
_cell_angle_beta     90
_cell_angle_gamma    90

_symmetry_space_group_name_H-M    "P 1"
_symmetry_int_tables_number       1

loop_
  _symmetry_equiv_pos_as_xyz
  'x, y, z'

loop_
  _atom_site_label
  _atom_site_occupancy
  _atom_site_fract_x
  _atom_site_fract_y
  _atom_site_fract_z
  _atom_site_thermal_displace_type
  _atom_site_B_iso_or_equiv
  _atom_site_type_symbol
  N1       1.0000 0.03314  0.68114  0.41128  Biso   1.000  N
  C1       1.0000 0.10931  0.66610  0.39010  Biso   1.000  C
  H1       1.0000 0.15420  0.69080  0.41120  Biso   1.000  H
  H2       1.0000 0.88590  0.63870  0.42730  Biso   1.000  H
  N2       1.0000 0.53314  0.18114  0.91128  Biso   1.000  N
  C2       1.0000 0.60931  0.16610  0.89010  Biso   1.000  C
  H3       1.0000 0.65420  0.19080  0.91120  Biso   1.000  H
  H4       1.0000 0.38590  0.13870  0.92730  Biso   1.000  H
  N3       1.0000 0.96686  0.31886  0.41128  Biso   1.000  N
  C3       1.0000 0.89069  0.33390  0.39010  Biso   1.000  C
  H5       1.0000 0.84580  0.30920  0.41120  Biso   1.000  H
  H6       1.0000 0.11410  0.36130  0.42730  Biso   1.000  H
  N4       1.0000 0.46686  0.81886  0.91128  Biso   1.000  N
  C4       1.0000 0.39069  0.83390  0.89010  Biso   1.000  C
  H7       1.0000 0.34580  0.80920  0.91120  Biso   1.000  H
  H8       1.0000 0.61410  0.86130  0.92730  Biso   1.000  H
  N5       1.0000 0.96686  0.68114  0.58872  Biso   1.000  N
  C5       1.0000 0.89069  0.66610  0.60990  Biso   1.000  C
  H9       1.0000 0.84580  0.69080  0.58880  Biso   1.000  H
  H10      1.0000 0.11410  0.63870  0.57270  Biso   1.000  H
  N6       1.0000 0.46686  0.18114  0.08872  Biso   1.000  N
  C6       1.0000 0.39069  0.16610  0.10990  Biso   1.000  C
  H11      1.0000 0.34580  0.19080  0.08880  Biso   1.000  H
  H12      1.0000 0.61410  0.13870  0.07270  Biso   1.000  H
  N7       1.0000 0.03314  0.31886  0.58872  Biso   1.000  N
  C7       1.0000 0.10931  0.33390  0.60990  Biso   1.000  C
  H13      1.0000 0.15420  0.30920  0.58880  Biso   1.000  H
  H14      1.0000 0.88590  0.36130  0.57270  Biso   1.000  H
  N8       1.0000 0.53314  0.81886  0.08872  Biso   1.000  N
  C8       1.0000 0.60931  0.83390  0.10990  Biso   1.000  C
  H15      1.0000 0.65420  0.80920  0.08880  Biso   1.000  H
  H16      1.0000 0.38590  0.86130  0.07270  Biso   1.000  H
  N9       1.0000 0.41128  0.03314  0.68114  Biso   1.000  N
  C9       1.0000 0.39010  0.10931  0.66610  Biso   1.000  C
  H17      1.0000 0.41120  0.15420  0.69080  Biso   1.000  H
  H18      1.0000 0.42730  0.88590  0.63870  Biso   1.000  H
  N10      1.0000 0.91128  0.53314  0.18114  Biso   1.000  N
  C10      1.0000 0.89010  0.60931  0.16610  Biso   1.000  C
  H19      1.0000 0.91120  0.65420  0.19080  Biso   1.000  H
  H20      1.0000 0.92730  0.38590  0.13870  Biso   1.000  H
  N11      1.0000 0.41128  0.96686  0.31886  Biso   1.000  N
  C11      1.0000 0.39010  0.89069  0.33390  Biso   1.000  C
  H21      1.0000 0.41120  0.84580  0.30920  Biso   1.000  H
  H22      1.0000 0.42730  0.11410  0.36130  Biso   1.000  H
  N12      1.0000 0.91128  0.46686  0.81886  Biso   1.000  N
  C12      1.0000 0.89010  0.39069  0.83390  Biso   1.000  C
  H23      1.0000 0.91120  0.34580  0.80920  Biso   1.000  H
  H24      1.0000 0.92730  0.61410  0.86130  Biso   1.000  H
  N13      1.0000 0.58872  0.96686  0.68114  Biso   1.000  N
  C13      1.0000 0.60990  0.89069  0.66610  Biso   1.000  C
  H25      1.0000 0.58880  0.84580  0.69080  Biso   1.000  H
  H26      1.0000 0.57270  0.11410  0.63870  Biso   1.000  H
  N14      1.0000 0.08872  0.46686  0.18114  Biso   1.000  N
  C14      1.0000 0.10990  0.39069  0.16610  Biso   1.000  C
  H27      1.0000 0.08880  0.34580  0.19080  Biso   1.000  H
  H28      1.0000 0.07270  0.61410  0.13870  Biso   1.000  H
  N15      1.0000 0.58872  0.03314  0.31886  Biso   1.000  N
  C15      1.0000 0.60990  0.10931  0.33390  Biso   1.000  C
  H29      1.0000 0.58880  0.15420  0.30920  Biso   1.000  H
  H30      1.0000 0.57270  0.88590  0.36130  Biso   1.000  H
  N16      1.0000 0.08872  0.53314  0.81886  Biso   1.000  N
  C16      1.0000 0.10990  0.60931  0.83390  Biso   1.000  C
  H31      1.0000 0.08880  0.65420  0.80920  Biso   1.000  H
  H32      1.0000 0.07270  0.38590  0.86130  Biso   1.000  H
  N17      1.0000 0.68114  0.41128  0.03314  Biso   1.000  N
  C17      1.0000 0.66610  0.39010  0.10931  Biso   1.000  C
  H33      1.0000 0.69080  0.41120  0.15420  Biso   1.000  H
  H34      1.0000 0.63870  0.42730  0.88590  Biso   1.000  H
  N18      1.0000 0.18114  0.91128  0.53314  Biso   1.000  N
  C18      1.0000 0.16610  0.89010  0.60931  Biso   1.000  C
  H35      1.0000 0.19080  0.91120  0.65420  Biso   1.000  H
  H36      1.0000 0.13870  0.92730  0.38590  Biso   1.000  H
  N19      1.0000 0.31886  0.41128  0.96686  Biso   1.000  N
  C19      1.0000 0.33390  0.39010  0.89069  Biso   1.000  C
  H37      1.0000 0.30920  0.41120  0.84580  Biso   1.000  H
  H38      1.0000 0.36130  0.42730  0.11410  Biso   1.000  H
  N20      1.0000 0.81886  0.91128  0.46686  Biso   1.000  N
  C20      1.0000 0.83390  0.89010  0.39069  Biso   1.000  C
  H39      1.0000 0.80920  0.91120  0.34580  Biso   1.000  H
  H40      1.0000 0.86130  0.92730  0.61410  Biso   1.000  H
  N21      1.0000 0.68114  0.58872  0.96686  Biso   1.000  N
  C21      1.0000 0.66610  0.60990  0.89069  Biso   1.000  C
  H41      1.0000 0.69080  0.58880  0.84580  Biso   1.000  H
  H42      1.0000 0.63870  0.57270  0.11410  Biso   1.000  H
  N22      1.0000 0.18114  0.08872  0.46686  Biso   1.000  N
  C22      1.0000 0.16610  0.10990  0.39069  Biso   1.000  C
  H43      1.0000 0.19080  0.08880  0.34580  Biso   1.000  H
  H44      1.0000 0.13870  0.07270  0.61410  Biso   1.000  H
  N23      1.0000 0.31886  0.58872  0.03314  Biso   1.000  N
  C23      1.0000 0.33390  0.60990  0.10931  Biso   1.000  C
  H45      1.0000 0.30920  0.58880  0.15420  Biso   1.000  H
  H46      1.0000 0.36130  0.57270  0.88590  Biso   1.000  H
  N24      1.0000 0.81886  0.08872  0.53314  Biso   1.000  N
  C24      1.0000 0.83390  0.10990  0.60931  Biso   1.000  C
  H47      1.0000 0.80920  0.08880  0.65420  Biso   1.000  H
  H48      1.0000 0.86130  0.07270  0.38590  Biso   1.000  H
  N25      1.0000 0.68114  0.03314  0.41128  Biso   1.000  N
  C25      1.0000 0.66610  0.10931  0.39010  Biso   1.000  C
  H49      1.0000 0.69080  0.15420  0.41120  Biso   1.000  H
  H50      1.0000 0.63870  0.88590  0.42730  Biso   1.000  H
  N26      1.0000 0.18114  0.53314  0.91128  Biso   1.000  N
  C26      1.0000 0.16610  0.60931  0.89010  Biso   1.000  C
  H51      1.0000 0.19080  0.65420  0.91120  Biso   1.000  H
  H52      1.0000 0.13870  0.38590  0.92730  Biso   1.000  H
  N27      1.0000 0.31886  0.96686  0.41128  Biso   1.000  N
  C27      1.0000 0.33390  0.89069  0.39010  Biso   1.000  C
  H53      1.0000 0.30920  0.84580  0.41120  Biso   1.000  H
  H54      1.0000 0.36130  0.11410  0.42730  Biso   1.000  H
  N28      1.0000 0.81886  0.46686  0.91128  Biso   1.000  N
  C28      1.0000 0.83390  0.39069  0.89010  Biso   1.000  C
  H55      1.0000 0.80920  0.34580  0.91120  Biso   1.000  H
  H56      1.0000 0.86130  0.61410  0.92730  Biso   1.000  H
  N29      1.0000 0.68114  0.96686  0.58872  Biso   1.000  N
  C29      1.0000 0.66610  0.89069  0.60990  Biso   1.000  C
  H57      1.0000 0.69080  0.84580  0.58880  Biso   1.000  H
  H58      1.0000 0.63870  0.11410  0.57270  Biso   1.000  H
  N30      1.0000 0.18114  0.46686  0.08872  Biso   1.000  N
  C30      1.0000 0.16610  0.39069  0.10990  Biso   1.000  C
  H59      1.0000 0.19080  0.34580  0.08880  Biso   1.000  H
  H60      1.0000 0.13870  0.61410  0.07270  Biso   1.000  H
  N31      1.0000 0.31886  0.03314  0.58872  Biso   1.000  N
  C31      1.0000 0.33390  0.10931  0.60990  Biso   1.000  C
  H61      1.0000 0.30920  0.15420  0.58880  Biso   1.000  H
  H62      1.0000 0.36130  0.88590  0.57270  Biso   1.000  H
  N32      1.0000 0.81886  0.53314  0.08872  Biso   1.000  N
  C32      1.0000 0.83390  0.60931  0.10990  Biso   1.000  C
  H63      1.0000 0.80920  0.65420  0.08880  Biso   1.000  H
  H64      1.0000 0.86130  0.38590  0.07270  Biso   1.000  H
  N33      1.0000 0.03314  0.41128  0.68114  Biso   1.000  N
  C33      1.0000 0.10931  0.39010  0.66610  Biso   1.000  C
  H65      1.0000 0.15420  0.41120  0.69080  Biso   1.000  H
  H66      1.0000 0.88590  0.42730  0.63870  Biso   1.000  H
  N34      1.0000 0.53314  0.91128  0.18114  Biso   1.000  N
  C34      1.0000 0.60931  0.89010  0.16610  Biso   1.000  C
  H67      1.0000 0.65420  0.91120  0.19080  Biso   1.000  H
  H68      1.0000 0.38590  0.92730  0.13870  Biso   1.000  H
  N35      1.0000 0.96686  0.41128  0.31886  Biso   1.000  N
  C35      1.0000 0.89069  0.39010  0.33390  Biso   1.000  C
  H69      1.0000 0.84580  0.41120  0.30920  Biso   1.000  H
  H70      1.0000 0.11410  0.42730  0.36130  Biso   1.000  H
  N36      1.0000 0.46686  0.91128  0.81886  Biso   1.000  N
  C36      1.0000 0.39069  0.89010  0.83390  Biso   1.000  C
  H71      1.0000 0.34580  0.91120  0.80920  Biso   1.000  H
  H72      1.0000 0.61410  0.92730  0.86130  Biso   1.000  H
  N37      1.0000 0.96686  0.58872  0.68114  Biso   1.000  N
  C37      1.0000 0.89069  0.60990  0.66610  Biso   1.000  C
  H73      1.0000 0.84580  0.58880  0.69080  Biso   1.000  H
  H74      1.0000 0.11410  0.57270  0.63870  Biso   1.000  H
  N38      1.0000 0.46686  0.08872  0.18114  Biso   1.000  N
  C38      1.0000 0.39069  0.10990  0.16610  Biso   1.000  C
  H75      1.0000 0.34580  0.08880  0.19080  Biso   1.000  H
  H76      1.0000 0.61410  0.07270  0.13870  Biso   1.000  H
  N39      1.0000 0.03314  0.58872  0.31886  Biso   1.000  N
  C39      1.0000 0.10931  0.60990  0.33390  Biso   1.000  C
  H77      1.0000 0.15420  0.58880  0.30920  Biso   1.000  H
  H78      1.0000 0.88590  0.57270  0.36130  Biso   1.000  H
  N40      1.0000 0.53314  0.08872  0.81886  Biso   1.000  N
  C40      1.0000 0.60931  0.10990  0.83390  Biso   1.000  C
  H79      1.0000 0.65420  0.08880  0.80920  Biso   1.000  H
  H80      1.0000 0.38590  0.07270  0.86130  Biso   1.000  H
  N41      1.0000 0.41128  0.68114  0.03314  Biso   1.000  N
  C41      1.0000 0.39010  0.66610  0.10931  Biso   1.000  C
  H81      1.0000 0.41120  0.69080  0.15420  Biso   1.000  H
  H82      1.0000 0.42730  0.63870  0.88590  Biso   1.000  H
  N42      1.0000 0.91128  0.18114  0.53314  Biso   1.000  N
  C42      1.0000 0.89010  0.16610  0.60931  Biso   1.000  C
  H83      1.0000 0.91120  0.19080  0.65420  Biso   1.000  H
  H84      1.0000 0.92730  0.13870  0.38590  Biso   1.000  H
  N43      1.0000 0.41128  0.31886  0.96686  Biso   1.000  N
  C43      1.0000 0.39010  0.33390  0.89069  Biso   1.000  C
  H85      1.0000 0.41120  0.30920  0.84580  Biso   1.000  H
  H86      1.0000 0.42730  0.36130  0.11410  Biso   1.000  H
  N44      1.0000 0.91128  0.81886  0.46686  Biso   1.000  N
  C44      1.0000 0.89010  0.83390  0.39069  Biso   1.000  C
  H87      1.0000 0.91120  0.80920  0.34580  Biso   1.000  H
  H88      1.0000 0.92730  0.86130  0.61410  Biso   1.000  H
  N45      1.0000 0.58872  0.68114  0.96686  Biso   1.000  N
  C45      1.0000 0.60990  0.66610  0.89069  Biso   1.000  C
  H89      1.0000 0.58880  0.69080  0.84580  Biso   1.000  H
  H90      1.0000 0.57270  0.63870  0.11410  Biso   1.000  H
  N46      1.0000 0.08872  0.18114  0.46686  Biso   1.000  N
  C46      1.0000 0.10990  0.16610  0.39069  Biso   1.000  C
  H91      1.0000 0.08880  0.19080  0.34580  Biso   1.000  H
  H92      1.0000 0.07270  0.13870  0.61410  Biso   1.000  H
  N47      1.0000 0.58872  0.31886  0.03314  Biso   1.000  N
  C47      1.0000 0.60990  0.33390  0.10931  Biso   1.000  C
  H93      1.0000 0.58880  0.30920  0.15420  Biso   1.000  H
  H94      1.0000 0.57270  0.36130  0.88590  Biso   1.000  H
  N48      1.0000 0.08872  0.81886  0.53314  Biso   1.000  N
  C48      1.0000 0.10990  0.83390  0.60931  Biso   1.000  C
  H95      1.0000 0.08880  0.80920  0.65420  Biso   1.000  H
  H96      1.0000 0.07270  0.86130  0.38590  Biso   1.000  H
  Zn1      1.0000 0.00000  0.75000  0.50000  Biso   1.000  Zn
  Zn2      1.0000 0.00000  0.25000  0.50000  Biso   1.000  Zn
  Zn3      1.0000 0.50000  0.00000  0.75000  Biso   1.000  Zn
  Zn4      1.0000 0.50000  0.00000  0.25000  Biso   1.000  Zn
  Zn5      1.0000 0.75000  0.50000  0.00000  Biso   1.000  Zn
  Zn6      1.0000 0.25000  0.50000  0.00000  Biso   1.000  Zn
  Zn7      1.0000 0.75000  0.00000  0.50000  Biso   1.000  Zn
  Zn8      1.0000 0.25000  0.00000  0.50000  Biso   1.000  Zn
  Zn9      1.0000 0.00000  0.50000  0.75000  Biso   1.000  Zn
  Zn10     1.0000 0.00000  0.50000  0.25000  Biso   1.000  Zn
  Zn11     1.0000 0.50000  0.75000  0.00000  Biso   1.000  Zn
  Zn12     1.0000 0.50000  0.25000  0.00000  Biso   1.000  Zn
  C49      1.0000 0.99000  0.63219  0.36781  Biso   1.000  C
  C50      1.0000 0.90220  0.62600  0.37400  Biso   1.000  C
  H97      1.0000 0.87790  0.66260  0.33740  Biso   1.000  H
  C51      1.0000 0.49000  0.13219  0.86781  Biso   1.000  C
  C52      1.0000 0.40220  0.12600  0.87400  Biso   1.000  C
  H98      1.0000 0.37790  0.16260  0.83740  Biso   1.000  H
  C53      1.0000 0.01000  0.36781  0.36781  Biso   1.000  C
  C54      1.0000 0.09780  0.37400  0.37400  Biso   1.000  C
  H99      1.0000 0.12210  0.33740  0.33740  Biso   1.000  H
  C55      1.0000 0.51000  0.86781  0.86781  Biso   1.000  C
  C56      1.0000 0.59780  0.87400  0.87400  Biso   1.000  C
  H100     1.0000 0.62210  0.83740  0.83740  Biso   1.000  H
  C57      1.0000 0.01000  0.63219  0.63219  Biso   1.000  C
  C58      1.0000 0.09780  0.62600  0.62600  Biso   1.000  C
  H101     1.0000 0.12210  0.66260  0.66260  Biso   1.000  H
  C59      1.0000 0.51000  0.13219  0.13219  Biso   1.000  C
  C60      1.0000 0.59780  0.12600  0.12600  Biso   1.000  C
  H102     1.0000 0.62210  0.16260  0.16260  Biso   1.000  H
  C61      1.0000 0.99000  0.36781  0.63219  Biso   1.000  C
  C62      1.0000 0.90220  0.37400  0.62600  Biso   1.000  C
  H103     1.0000 0.87790  0.33740  0.66260  Biso   1.000  H
  C63      1.0000 0.49000  0.86781  0.13219  Biso   1.000  C
  C64      1.0000 0.40220  0.87400  0.12600  Biso   1.000  C
  H104     1.0000 0.37790  0.83740  0.16260  Biso   1.000  H
  C65      1.0000 0.36781  0.99000  0.63219  Biso   1.000  C
  C66      1.0000 0.37400  0.90220  0.62600  Biso   1.000  C
  H105     1.0000 0.33740  0.87790  0.66260  Biso   1.000  H
  C67      1.0000 0.86781  0.49000  0.13219  Biso   1.000  C
  C68      1.0000 0.87400  0.40220  0.12600  Biso   1.000  C
  H106     1.0000 0.83740  0.37790  0.16260  Biso   1.000  H
  C69      1.0000 0.36781  0.01000  0.36781  Biso   1.000  C
  C70      1.0000 0.37400  0.09780  0.37400  Biso   1.000  C
  H107     1.0000 0.33740  0.12210  0.33740  Biso   1.000  H
  C71      1.0000 0.86781  0.51000  0.86781  Biso   1.000  C
  C72      1.0000 0.87400  0.59780  0.87400  Biso   1.000  C
  H108     1.0000 0.83740  0.62210  0.83740  Biso   1.000  H
  C73      1.0000 0.63219  0.01000  0.63219  Biso   1.000  C
  C74      1.0000 0.62600  0.09780  0.62600  Biso   1.000  C
  H109     1.0000 0.66260  0.12210  0.66260  Biso   1.000  H
  C75      1.0000 0.13219  0.51000  0.13219  Biso   1.000  C
  C76      1.0000 0.12600  0.59780  0.12600  Biso   1.000  C
  H110     1.0000 0.16260  0.62210  0.16260  Biso   1.000  H
  C77      1.0000 0.63219  0.99000  0.36781  Biso   1.000  C
  C78      1.0000 0.62600  0.90220  0.37400  Biso   1.000  C
  H111     1.0000 0.66260  0.87790  0.33740  Biso   1.000  H
  C79      1.0000 0.13219  0.49000  0.86781  Biso   1.000  C
  C80      1.0000 0.12600  0.40220  0.87400  Biso   1.000  C
  H112     1.0000 0.16260  0.37790  0.83740  Biso   1.000  H
  C81      1.0000 0.63219  0.36781  0.99000  Biso   1.000  C
  C82      1.0000 0.62600  0.37400  0.90220  Biso   1.000  C
  H113     1.0000 0.66260  0.33740  0.87790  Biso   1.000  H
  C83      1.0000 0.13219  0.86781  0.49000  Biso   1.000  C
  C84      1.0000 0.12600  0.87400  0.40220  Biso   1.000  C
  H114     1.0000 0.16260  0.83740  0.37790  Biso   1.000  H
  C85      1.0000 0.36781  0.36781  0.01000  Biso   1.000  C
  C86      1.0000 0.37400  0.37400  0.09780  Biso   1.000  C
  H115     1.0000 0.33740  0.33740  0.12210  Biso   1.000  H
  C87      1.0000 0.86781  0.86781  0.51000  Biso   1.000  C
  C88      1.0000 0.87400  0.87400  0.59780  Biso   1.000  C
  H116     1.0000 0.83740  0.83740  0.62210  Biso   1.000  H
  C89      1.0000 0.63219  0.63219  0.01000  Biso   1.000  C
  C90      1.0000 0.62600  0.62600  0.09780  Biso   1.000  C
  H117     1.0000 0.66260  0.66260  0.12210  Biso   1.000  H
  C91      1.0000 0.13219  0.13219  0.51000  Biso   1.000  C
  C92      1.0000 0.12600  0.12600  0.59780  Biso   1.000  C
  H118     1.0000 0.16260  0.16260  0.62210  Biso   1.000  H
  C93      1.0000 0.36781  0.63219  0.99000  Biso   1.000  C
  C94      1.0000 0.37400  0.62600  0.90220  Biso   1.000  C
  H119     1.0000 0.33740  0.66260  0.87790  Biso   1.000  H
  C95      1.0000 0.86781  0.13219  0.49000  Biso   1.000  C
  C96      1.0000 0.87400  0.12600  0.40220  Biso   1.000  C
  H120     1.0000 0.83740  0.16260  0.37790  Biso   1.000  H
