data_image0
_cell_length_a       17.12
_cell_length_b       17.12
_cell_length_c       17.12
_cell_angle_alpha    90
_cell_angle_beta     90
_cell_angle_gamma    90

_symmetry_space_group_name_H-M    "P 1"
_symmetry_int_tables_number       1

loop_
  _symmetry_equiv_pos_as_xyz
  'x, y, z'

loop_
  _atom_site_label
  _atom_site_occupancy
  _atom_site_fract_x
  _atom_site_fract_y
  _atom_site_fract_z
  _atom_site_thermal_displace_type
  _atom_site_B_iso_or_equiv
  _atom_site_type_symbol
  N1       1.0000 0.03210  0.68190  0.41100  Biso   1.000  N
  C1       1.0000 0.10440  0.67550  0.37920  Biso   1.000  C
  H1       1.0000 0.14850  0.70580  0.39400  Biso   1.000  H
  H2       1.0000 0.89710  0.61990  0.44620  Biso   1.000  H
  N2       1.0000 0.53210  0.18190  0.91100  Biso   1.000  N
  C2       1.0000 0.60440  0.17550  0.87920  Biso   1.000  C
  H3       1.0000 0.64850  0.20580  0.89400  Biso   1.000  H
  H4       1.0000 0.39710  0.11990  0.94620  Biso   1.000  H
  N3       1.0000 0.96790  0.31810  0.41100  Biso   1.000  N
  C3       1.0000 0.89560  0.32450  0.37920  Biso   1.000  C
  H5       1.0000 0.85150  0.29420  0.39400  Biso   1.000  H
  H6       1.0000 0.10290  0.38010  0.44620  Biso   1.000  H
  N4       1.0000 0.46790  0.81810  0.91100  Biso   1.000  N
  C4       1.0000 0.39560  0.82450  0.87920  Biso   1.000  C
  H7       1.0000 0.35150  0.79420  0.89400  Biso   1.000  H
  H8       1.0000 0.60290  0.88010  0.94620  Biso   1.000  H
  N5       1.0000 0.96790  0.68190  0.58900  Biso   1.000  N
  C5       1.0000 0.89560  0.67550  0.62080  Biso   1.000  C
  H9       1.0000 0.85150  0.70580  0.60600  Biso   1.000  H
  H10      1.0000 0.10290  0.61990  0.55380  Biso   1.000  H
  N6       1.0000 0.46790  0.18190  0.08900  Biso   1.000  N
  C6       1.0000 0.39560  0.17550  0.12080  Biso   1.000  C
  H11      1.0000 0.35150  0.20580  0.10600  Biso   1.000  H
  H12      1.0000 0.60290  0.11990  0.05380  Biso   1.000  H
  N7       1.0000 0.03210  0.31810  0.58900  Biso   1.000  N
  C7       1.0000 0.10440  0.32450  0.62080  Biso   1.000  C
  H13      1.0000 0.14850  0.29420  0.60600  Biso   1.000  H
  H14      1.0000 0.89710  0.38010  0.55380  Biso   1.000  H
  N8       1.0000 0.53210  0.81810  0.08900  Biso   1.000  N
  C8       1.0000 0.60440  0.82450  0.12080  Biso   1.000  C
  H15      1.0000 0.64850  0.79420  0.10600  Biso   1.000  H
  H16      1.0000 0.39710  0.88010  0.05380  Biso   1.000  H
  N9       1.0000 0.41100  0.03210  0.68190  Biso   1.000  N
  C9       1.0000 0.37920  0.10440  0.67550  Biso   1.000  C
  H17      1.0000 0.39400  0.14850  0.70580  Biso   1.000  H
  H18      1.0000 0.44620  0.89710  0.61990  Biso   1.000  H
  N10      1.0000 0.91100  0.53210  0.18190  Biso   1.000  N
  C10      1.0000 0.87920  0.60440  0.17550  Biso   1.000  C
  H19      1.0000 0.89400  0.64850  0.20580  Biso   1.000  H
  H20      1.0000 0.94620  0.39710  0.11990  Biso   1.000  H
  N11      1.0000 0.41100  0.96790  0.31810  Biso   1.000  N
  C11      1.0000 0.37920  0.89560  0.32450  Biso   1.000  C
  H21      1.0000 0.39400  0.85150  0.29420  Biso   1.000  H
  H22      1.0000 0.44620  0.10290  0.38010  Biso   1.000  H
  N12      1.0000 0.91100  0.46790  0.81810  Biso   1.000  N
  C12      1.0000 0.87920  0.39560  0.82450  Biso   1.000  C
  H23      1.0000 0.89400  0.35150  0.79420  Biso   1.000  H
  H24      1.0000 0.94620  0.60290  0.88010  Biso   1.000  H
  N13      1.0000 0.58900  0.96790  0.68190  Biso   1.000  N
  C13      1.0000 0.62080  0.89560  0.67550  Biso   1.000  C
  H25      1.0000 0.60600  0.85150  0.70580  Biso   1.000  H
  H26      1.0000 0.55380  0.10290  0.61990  Biso   1.000  H
  N14      1.0000 0.08900  0.46790  0.18190  Biso   1.000  N
  C14      1.0000 0.12080  0.39560  0.17550  Biso   1.000  C
  H27      1.0000 0.10600  0.35150  0.20580  Biso   1.000  H
  H28      1.0000 0.05380  0.60290  0.11990  Biso   1.000  H
  N15      1.0000 0.58900  0.03210  0.31810  Biso   1.000  N
  C15      1.0000 0.62080  0.10440  0.32450  Biso   1.000  C
  H29      1.0000 0.60600  0.14850  0.29420  Biso   1.000  H
  H30      1.0000 0.55380  0.89710  0.38010  Biso   1.000  H
  N16      1.0000 0.08900  0.53210  0.81810  Biso   1.000  N
  C16      1.0000 0.12080  0.60440  0.82450  Biso   1.000  C
  H31      1.0000 0.10600  0.64850  0.79420  Biso   1.000  H
  H32      1.0000 0.05380  0.39710  0.88010  Biso   1.000  H
  N17      1.0000 0.68190  0.41100  0.03210  Biso   1.000  N
  C17      1.0000 0.67550  0.37920  0.10440  Biso   1.000  C
  H33      1.0000 0.70580  0.39400  0.14850  Biso   1.000  H
  H34      1.0000 0.61990  0.44620  0.89710  Biso   1.000  H
  N18      1.0000 0.18190  0.91100  0.53210  Biso   1.000  N
  C18      1.0000 0.17550  0.87920  0.60440  Biso   1.000  C
  H35      1.0000 0.20580  0.89400  0.64850  Biso   1.000  H
  H36      1.0000 0.11990  0.94620  0.39710  Biso   1.000  H
  N19      1.0000 0.31810  0.41100  0.96790  Biso   1.000  N
  C19      1.0000 0.32450  0.37920  0.89560  Biso   1.000  C
  H37      1.0000 0.29420  0.39400  0.85150  Biso   1.000  H
  H38      1.0000 0.38010  0.44620  0.10290  Biso   1.000  H
  N20      1.0000 0.81810  0.91100  0.46790  Biso   1.000  N
  C20      1.0000 0.82450  0.87920  0.39560  Biso   1.000  C
  H39      1.0000 0.79420  0.89400  0.35150  Biso   1.000  H
  H40      1.0000 0.88010  0.94620  0.60290  Biso   1.000  H
  N21      1.0000 0.68190  0.58900  0.96790  Biso   1.000  N
  C21      1.0000 0.67550  0.62080  0.89560  Biso   1.000  C
  H41      1.0000 0.70580  0.60600  0.85150  Biso   1.000  H
  H42      1.0000 0.61990  0.55380  0.10290  Biso   1.000  H
  N22      1.0000 0.18190  0.08900  0.46790  Biso   1.000  N
  C22      1.0000 0.17550  0.12080  0.39560  Biso   1.000  C
  H43      1.0000 0.20580  0.10600  0.35150  Biso   1.000  H
  H44      1.0000 0.11990  0.05380  0.60290  Biso   1.000  H
  N23      1.0000 0.31810  0.58900  0.03210  Biso   1.000  N
  C23      1.0000 0.32450  0.62080  0.10440  Biso   1.000  C
  H45      1.0000 0.29420  0.60600  0.14850  Biso   1.000  H
  H46      1.0000 0.38010  0.55380  0.89710  Biso   1.000  H
  N24      1.0000 0.81810  0.08900  0.53210  Biso   1.000  N
  C24      1.0000 0.82450  0.12080  0.60440  Biso   1.000  C
  H47      1.0000 0.79420  0.10600  0.64850  Biso   1.000  H
  H48      1.0000 0.88010  0.05380  0.39710  Biso   1.000  H
  N25      1.0000 0.68190  0.03210  0.41100  Biso   1.000  N
  C25      1.0000 0.67550  0.10440  0.37920  Biso   1.000  C
  H49      1.0000 0.70580  0.14850  0.39400  Biso   1.000  H
  H50      1.0000 0.61990  0.89710  0.44620  Biso   1.000  H
  N26      1.0000 0.18190  0.53210  0.91100  Biso   1.000  N
  C26      1.0000 0.17550  0.60440  0.87920  Biso   1.000  C
  H51      1.0000 0.20580  0.64850  0.89400  Biso   1.000  H
  H52      1.0000 0.11990  0.39710  0.94620  Biso   1.000  H
  N27      1.0000 0.31810  0.96790  0.41100  Biso   1.000  N
  C27      1.0000 0.32450  0.89560  0.37920  Biso   1.000  C
  H53      1.0000 0.29420  0.85150  0.39400  Biso   1.000  H
  H54      1.0000 0.38010  0.10290  0.44620  Biso   1.000  H
  N28      1.0000 0.81810  0.46790  0.91100  Biso   1.000  N
  C28      1.0000 0.82450  0.39560  0.87920  Biso   1.000  C
  H55      1.0000 0.79420  0.35150  0.89400  Biso   1.000  H
  H56      1.0000 0.88010  0.60290  0.94620  Biso   1.000  H
  N29      1.0000 0.68190  0.96790  0.58900  Biso   1.000  N
  C29      1.0000 0.67550  0.89560  0.62080  Biso   1.000  C
  H57      1.0000 0.70580  0.85150  0.60600  Biso   1.000  H
  H58      1.0000 0.61990  0.10290  0.55380  Biso   1.000  H
  N30      1.0000 0.18190  0.46790  0.08900  Biso   1.000  N
  C30      1.0000 0.17550  0.39560  0.12080  Biso   1.000  C
  H59      1.0000 0.20580  0.35150  0.10600  Biso   1.000  H
  H60      1.0000 0.11990  0.60290  0.05380  Biso   1.000  H
  N31      1.0000 0.31810  0.03210  0.58900  Biso   1.000  N
  C31      1.0000 0.32450  0.10440  0.62080  Biso   1.000  C
  H61      1.0000 0.29420  0.14850  0.60600  Biso   1.000  H
  H62      1.0000 0.38010  0.89710  0.55380  Biso   1.000  H
  N32      1.0000 0.81810  0.53210  0.08900  Biso   1.000  N
  C32      1.0000 0.82450  0.60440  0.12080  Biso   1.000  C
  H63      1.0000 0.79420  0.64850  0.10600  Biso   1.000  H
  H64      1.0000 0.88010  0.39710  0.05380  Biso   1.000  H
  N33      1.0000 0.03210  0.41100  0.68190  Biso   1.000  N
  C33      1.0000 0.10440  0.37920  0.67550  Biso   1.000  C
  H65      1.0000 0.14850  0.39400  0.70580  Biso   1.000  H
  H66      1.0000 0.89710  0.44620  0.61990  Biso   1.000  H
  N34      1.0000 0.53210  0.91100  0.18190  Biso   1.000  N
  C34      1.0000 0.60440  0.87920  0.17550  Biso   1.000  C
  H67      1.0000 0.64850  0.89400  0.20580  Biso   1.000  H
  H68      1.0000 0.39710  0.94620  0.11990  Biso   1.000  H
  N35      1.0000 0.96790  0.41100  0.31810  Biso   1.000  N
  C35      1.0000 0.89560  0.37920  0.32450  Biso   1.000  C
  H69      1.0000 0.85150  0.39400  0.29420  Biso   1.000  H
  H70      1.0000 0.10290  0.44620  0.38010  Biso   1.000  H
  N36      1.0000 0.46790  0.91100  0.81810  Biso   1.000  N
  C36      1.0000 0.39560  0.87920  0.82450  Biso   1.000  C
  H71      1.0000 0.35150  0.89400  0.79420  Biso   1.000  H
  H72      1.0000 0.60290  0.94620  0.88010  Biso   1.000  H
  N37      1.0000 0.96790  0.58900  0.68190  Biso   1.000  N
  C37      1.0000 0.89560  0.62080  0.67550  Biso   1.000  C
  H73      1.0000 0.85150  0.60600  0.70580  Biso   1.000  H
  H74      1.0000 0.10290  0.55380  0.61990  Biso   1.000  H
  N38      1.0000 0.46790  0.08900  0.18190  Biso   1.000  N
  C38      1.0000 0.39560  0.12080  0.17550  Biso   1.000  C
  H75      1.0000 0.35150  0.10600  0.20580  Biso   1.000  H
  H76      1.0000 0.60290  0.05380  0.11990  Biso   1.000  H
  N39      1.0000 0.03210  0.58900  0.31810  Biso   1.000  N
  C39      1.0000 0.10440  0.62080  0.32450  Biso   1.000  C
  H77      1.0000 0.14850  0.60600  0.29420  Biso   1.000  H
  H78      1.0000 0.89710  0.55380  0.38010  Biso   1.000  H
  N40      1.0000 0.53210  0.08900  0.81810  Biso   1.000  N
  C40      1.0000 0.60440  0.12080  0.82450  Biso   1.000  C
  H79      1.0000 0.64850  0.10600  0.79420  Biso   1.000  H
  H80      1.0000 0.39710  0.05380  0.88010  Biso   1.000  H
  N41      1.0000 0.41100  0.68190  0.03210  Biso   1.000  N
  C41      1.0000 0.37920  0.67550  0.10440  Biso   1.000  C
  H81      1.0000 0.39400  0.70580  0.14850  Biso   1.000  H
  H82      1.0000 0.44620  0.61990  0.89710  Biso   1.000  H
  N42      1.0000 0.91100  0.18190  0.53210  Biso   1.000  N
  C42      1.0000 0.87920  0.17550  0.60440  Biso   1.000  C
  H83      1.0000 0.89400  0.20580  0.64850  Biso   1.000  H
  H84      1.0000 0.94620  0.11990  0.39710  Biso   1.000  H
  N43      1.0000 0.41100  0.31810  0.96790  Biso   1.000  N
  C43      1.0000 0.37920  0.32450  0.89560  Biso   1.000  C
  H85      1.0000 0.39400  0.29420  0.85150  Biso   1.000  H
  H86      1.0000 0.44620  0.38010  0.10290  Biso   1.000  H
  N44      1.0000 0.91100  0.81810  0.46790  Biso   1.000  N
  C44      1.0000 0.87920  0.82450  0.39560  Biso   1.000  C
  H87      1.0000 0.89400  0.79420  0.35150  Biso   1.000  H
  H88      1.0000 0.94620  0.88010  0.60290  Biso   1.000  H
  N45      1.0000 0.58900  0.68190  0.96790  Biso   1.000  N
  C45      1.0000 0.62080  0.67550  0.89560  Biso   1.000  C
  H89      1.0000 0.60600  0.70580  0.85150  Biso   1.000  H
  H90      1.0000 0.55380  0.61990  0.10290  Biso   1.000  H
  N46      1.0000 0.08900  0.18190  0.46790  Biso   1.000  N
  C46      1.0000 0.12080  0.17550  0.39560  Biso   1.000  C
  H91      1.0000 0.10600  0.20580  0.35150  Biso   1.000  H
  H92      1.0000 0.05380  0.11990  0.60290  Biso   1.000  H
  N47      1.0000 0.58900  0.31810  0.03210  Biso   1.000  N
  C47      1.0000 0.62080  0.32450  0.10440  Biso   1.000  C
  H93      1.0000 0.60600  0.29420  0.14850  Biso   1.000  H
  H94      1.0000 0.55380  0.38010  0.89710  Biso   1.000  H
  N48      1.0000 0.08900  0.81810  0.53210  Biso   1.000  N
  C48      1.0000 0.12080  0.82450  0.60440  Biso   1.000  C
  H95      1.0000 0.10600  0.79420  0.64850  Biso   1.000  H
  H96      1.0000 0.05380  0.88010  0.39710  Biso   1.000  H
  Zn1      1.0000 0.00000  0.75000  0.50000  Biso   1.000  Zn
  Zn2      1.0000 0.00000  0.25000  0.50000  Biso   1.000  Zn
  Zn3      1.0000 0.50000  0.00000  0.75000  Biso   1.000  Zn
  Zn4      1.0000 0.50000  0.00000  0.25000  Biso   1.000  Zn
  Zn5      1.0000 0.75000  0.50000  0.00000  Biso   1.000  Zn
  Zn6      1.0000 0.25000  0.50000  0.00000  Biso   1.000  Zn
  Zn7      1.0000 0.75000  0.00000  0.50000  Biso   1.000  Zn
  Zn8      1.0000 0.25000  0.00000  0.50000  Biso   1.000  Zn
  Zn9      1.0000 0.00000  0.50000  0.75000  Biso   1.000  Zn
  Zn10     1.0000 0.00000  0.50000  0.25000  Biso   1.000  Zn
  Zn11     1.0000 0.50000  0.75000  0.00000  Biso   1.000  Zn
  Zn12     1.0000 0.50000  0.25000  0.00000  Biso   1.000  Zn
  C49      1.0000 0.99070  0.62700  0.37300  Biso   1.000  C
  C50      1.0000 0.90750  0.60910  0.39090  Biso   1.000  C
  H97      1.0000 0.87350  0.64160  0.35840  Biso   1.000  H
  C51      1.0000 0.49070  0.12700  0.87300  Biso   1.000  C
  C52      1.0000 0.40750  0.10910  0.89090  Biso   1.000  C
  H98      1.0000 0.37350  0.14160  0.85840  Biso   1.000  H
  C53      1.0000 0.00930  0.37300  0.37300  Biso   1.000  C
  C54      1.0000 0.09250  0.39090  0.39090  Biso   1.000  C
  H99      1.0000 0.12650  0.35840  0.35840  Biso   1.000  H
  C55      1.0000 0.50930  0.87300  0.87300  Biso   1.000  C
  C56      1.0000 0.59250  0.89090  0.89090  Biso   1.000  C
  H100     1.0000 0.62650  0.85840  0.85840  Biso   1.000  H
  C57      1.0000 0.00930  0.62700  0.62700  Biso   1.000  C
  C58      1.0000 0.09250  0.60910  0.60910  Biso   1.000  C
  H101     1.0000 0.12650  0.64160  0.64160  Biso   1.000  H
  C59      1.0000 0.50930  0.12700  0.12700  Biso   1.000  C
  C60      1.0000 0.59250  0.10910  0.10910  Biso   1.000  C
  H102     1.0000 0.62650  0.14160  0.14160  Biso   1.000  H
  C61      1.0000 0.99070  0.37300  0.62700  Biso   1.000  C
  C62      1.0000 0.90750  0.39090  0.60910  Biso   1.000  C
  H103     1.0000 0.87350  0.35840  0.64160  Biso   1.000  H
  C63      1.0000 0.49070  0.87300  0.12700  Biso   1.000  C
  C64      1.0000 0.40750  0.89090  0.10910  Biso   1.000  C
  H104     1.0000 0.37350  0.85840  0.14160  Biso   1.000  H
  C65      1.0000 0.37300  0.99070  0.62700  Biso   1.000  C
  C66      1.0000 0.39090  0.90750  0.60910  Biso   1.000  C
  H105     1.0000 0.35840  0.87350  0.64160  Biso   1.000  H
  C67      1.0000 0.87300  0.49070  0.12700  Biso   1.000  C
  C68      1.0000 0.89090  0.40750  0.10910  Biso   1.000  C
  H106     1.0000 0.85840  0.37350  0.14160  Biso   1.000  H
  C69      1.0000 0.37300  0.00930  0.37300  Biso   1.000  C
  C70      1.0000 0.39090  0.09250  0.39090  Biso   1.000  C
  H107     1.0000 0.35840  0.12650  0.35840  Biso   1.000  H
  C71      1.0000 0.87300  0.50930  0.87300  Biso   1.000  C
  C72      1.0000 0.89090  0.59250  0.89090  Biso   1.000  C
  H108     1.0000 0.85840  0.62650  0.85840  Biso   1.000  H
  C73      1.0000 0.62700  0.00930  0.62700  Biso   1.000  C
  C74      1.0000 0.60910  0.09250  0.60910  Biso   1.000  C
  H109     1.0000 0.64160  0.12650  0.64160  Biso   1.000  H
  C75      1.0000 0.12700  0.50930  0.12700  Biso   1.000  C
  C76      1.0000 0.10910  0.59250  0.10910  Biso   1.000  C
  H110     1.0000 0.14160  0.62650  0.14160  Biso   1.000  H
  C77      1.0000 0.62700  0.99070  0.37300  Biso   1.000  C
  C78      1.0000 0.60910  0.90750  0.39090  Biso   1.000  C
  H111     1.0000 0.64160  0.87350  0.35840  Biso   1.000  H
  C79      1.0000 0.12700  0.49070  0.87300  Biso   1.000  C
  C80      1.0000 0.10910  0.40750  0.89090  Biso   1.000  C
  H112     1.0000 0.14160  0.37350  0.85840  Biso   1.000  H
  C81      1.0000 0.62700  0.37300  0.99070  Biso   1.000  C
  C82      1.0000 0.60910  0.39090  0.90750  Biso   1.000  C
  H113     1.0000 0.64160  0.35840  0.87350  Biso   1.000  H
  C83      1.0000 0.12700  0.87300  0.49070  Biso   1.000  C
  C84      1.0000 0.10910  0.89090  0.40750  Biso   1.000  C
  H114     1.0000 0.14160  0.85840  0.37350  Biso   1.000  H
  C85      1.0000 0.37300  0.37300  0.00930  Biso   1.000  C
  C86      1.0000 0.39090  0.39090  0.09250  Biso   1.000  C
  H115     1.0000 0.35840  0.35840  0.12650  Biso   1.000  H
  C87      1.0000 0.87300  0.87300  0.50930  Biso   1.000  C
  C88      1.0000 0.89090  0.89090  0.59250  Biso   1.000  C
  H116     1.0000 0.85840  0.85840  0.62650  Biso   1.000  H
  C89      1.0000 0.62700  0.62700  0.00930  Biso   1.000  C
  C90      1.0000 0.60910  0.60910  0.09250  Biso   1.000  C
  H117     1.0000 0.64160  0.64160  0.12650  Biso   1.000  H
  C91      1.0000 0.12700  0.12700  0.50930  Biso   1.000  C
  C92      1.0000 0.10910  0.10910  0.59250  Biso   1.000  C
  H118     1.0000 0.14160  0.14160  0.62650  Biso   1.000  H
  C93      1.0000 0.37300  0.62700  0.99070  Biso   1.000  C
  C94      1.0000 0.39090  0.60910  0.90750  Biso   1.000  C
  H119     1.0000 0.35840  0.64160  0.87350  Biso   1.000  H
  C95      1.0000 0.87300  0.12700  0.49070  Biso   1.000  C
  C96      1.0000 0.89090  0.10910  0.40750  Biso   1.000  C
  H120     1.0000 0.85840  0.14160  0.37350  Biso   1.000  H
