data_image0
_cell_length_a       17.055
_cell_length_b       17.055
_cell_length_c       17.055
_cell_angle_alpha    90
_cell_angle_beta     90
_cell_angle_gamma    90

_symmetry_space_group_name_H-M    "P 1"
_symmetry_int_tables_number       1

loop_
  _symmetry_equiv_pos_as_xyz
  'x, y, z'

loop_
  _atom_site_label
  _atom_site_occupancy
  _atom_site_fract_x
  _atom_site_fract_y
  _atom_site_fract_z
  _atom_site_thermal_displace_type
  _atom_site_B_iso_or_equiv
  _atom_site_type_symbol
  N1       1.0000 0.02707  0.68242  0.40880  Biso   1.000  N
  C1       1.0000 0.09540  0.68580  0.36900  Biso   1.000  C
  H1       1.0000 0.13680  0.72170  0.37880  Biso   1.000  H
  H2       1.0000 0.90150  0.60770  0.45840  Biso   1.000  H
  N2       1.0000 0.52707  0.18242  0.90880  Biso   1.000  N
  C2       1.0000 0.59540  0.18580  0.86900  Biso   1.000  C
  H3       1.0000 0.63680  0.22170  0.87880  Biso   1.000  H
  H4       1.0000 0.40150  0.10770  0.95840  Biso   1.000  H
  N3       1.0000 0.97293  0.31758  0.40880  Biso   1.000  N
  C3       1.0000 0.90460  0.31420  0.36900  Biso   1.000  C
  H5       1.0000 0.86320  0.27830  0.37880  Biso   1.000  H
  H6       1.0000 0.09850  0.39230  0.45840  Biso   1.000  H
  N4       1.0000 0.47293  0.81758  0.90880  Biso   1.000  N
  C4       1.0000 0.40460  0.81420  0.86900  Biso   1.000  C
  H7       1.0000 0.36320  0.77830  0.87880  Biso   1.000  H
  H8       1.0000 0.59850  0.89230  0.95840  Biso   1.000  H
  N5       1.0000 0.97293  0.68242  0.59120  Biso   1.000  N
  C5       1.0000 0.90460  0.68580  0.63100  Biso   1.000  C
  H9       1.0000 0.86320  0.72170  0.62120  Biso   1.000  H
  H10      1.0000 0.09850  0.60770  0.54160  Biso   1.000  H
  N6       1.0000 0.47293  0.18242  0.09120  Biso   1.000  N
  C6       1.0000 0.40460  0.18580  0.13100  Biso   1.000  C
  H11      1.0000 0.36320  0.22170  0.12120  Biso   1.000  H
  H12      1.0000 0.59850  0.10770  0.04160  Biso   1.000  H
  N7       1.0000 0.02707  0.31758  0.59120  Biso   1.000  N
  C7       1.0000 0.09540  0.31420  0.63100  Biso   1.000  C
  H13      1.0000 0.13680  0.27830  0.62120  Biso   1.000  H
  H14      1.0000 0.90150  0.39230  0.54160  Biso   1.000  H
  N8       1.0000 0.52707  0.81758  0.09120  Biso   1.000  N
  C8       1.0000 0.59540  0.81420  0.13100  Biso   1.000  C
  H15      1.0000 0.63680  0.77830  0.12120  Biso   1.000  H
  H16      1.0000 0.40150  0.89230  0.04160  Biso   1.000  H
  N9       1.0000 0.40880  0.02707  0.68242  Biso   1.000  N
  C9       1.0000 0.36900  0.09540  0.68580  Biso   1.000  C
  H17      1.0000 0.37880  0.13680  0.72170  Biso   1.000  H
  H18      1.0000 0.45840  0.90150  0.60770  Biso   1.000  H
  N10      1.0000 0.90880  0.52707  0.18242  Biso   1.000  N
  C10      1.0000 0.86900  0.59540  0.18580  Biso   1.000  C
  H19      1.0000 0.87880  0.63680  0.22170  Biso   1.000  H
  H20      1.0000 0.95840  0.40150  0.10770  Biso   1.000  H
  N11      1.0000 0.40880  0.97293  0.31758  Biso   1.000  N
  C11      1.0000 0.36900  0.90460  0.31420  Biso   1.000  C
  H21      1.0000 0.37880  0.86320  0.27830  Biso   1.000  H
  H22      1.0000 0.45840  0.09850  0.39230  Biso   1.000  H
  N12      1.0000 0.90880  0.47293  0.81758  Biso   1.000  N
  C12      1.0000 0.86900  0.40460  0.81420  Biso   1.000  C
  H23      1.0000 0.87880  0.36320  0.77830  Biso   1.000  H
  H24      1.0000 0.95840  0.59850  0.89230  Biso   1.000  H
  N13      1.0000 0.59120  0.97293  0.68242  Biso   1.000  N
  C13      1.0000 0.63100  0.90460  0.68580  Biso   1.000  C
  H25      1.0000 0.62120  0.86320  0.72170  Biso   1.000  H
  H26      1.0000 0.54160  0.09850  0.60770  Biso   1.000  H
  N14      1.0000 0.09120  0.47293  0.18242  Biso   1.000  N
  C14      1.0000 0.13100  0.40460  0.18580  Biso   1.000  C
  H27      1.0000 0.12120  0.36320  0.22170  Biso   1.000  H
  H28      1.0000 0.04160  0.59850  0.10770  Biso   1.000  H
  N15      1.0000 0.59120  0.02707  0.31758  Biso   1.000  N
  C15      1.0000 0.63100  0.09540  0.31420  Biso   1.000  C
  H29      1.0000 0.62120  0.13680  0.27830  Biso   1.000  H
  H30      1.0000 0.54160  0.90150  0.39230  Biso   1.000  H
  N16      1.0000 0.09120  0.52707  0.81758  Biso   1.000  N
  C16      1.0000 0.13100  0.59540  0.81420  Biso   1.000  C
  H31      1.0000 0.12120  0.63680  0.77830  Biso   1.000  H
  H32      1.0000 0.04160  0.40150  0.89230  Biso   1.000  H
  N17      1.0000 0.68242  0.40880  0.02707  Biso   1.000  N
  C17      1.0000 0.68580  0.36900  0.09540  Biso   1.000  C
  H33      1.0000 0.72170  0.37880  0.13680  Biso   1.000  H
  H34      1.0000 0.60770  0.45840  0.90150  Biso   1.000  H
  N18      1.0000 0.18242  0.90880  0.52707  Biso   1.000  N
  C18      1.0000 0.18580  0.86900  0.59540  Biso   1.000  C
  H35      1.0000 0.22170  0.87880  0.63680  Biso   1.000  H
  H36      1.0000 0.10770  0.95840  0.40150  Biso   1.000  H
  N19      1.0000 0.31758  0.40880  0.97293  Biso   1.000  N
  C19      1.0000 0.31420  0.36900  0.90460  Biso   1.000  C
  H37      1.0000 0.27830  0.37880  0.86320  Biso   1.000  H
  H38      1.0000 0.39230  0.45840  0.09850  Biso   1.000  H
  N20      1.0000 0.81758  0.90880  0.47293  Biso   1.000  N
  C20      1.0000 0.81420  0.86900  0.40460  Biso   1.000  C
  H39      1.0000 0.77830  0.87880  0.36320  Biso   1.000  H
  H40      1.0000 0.89230  0.95840  0.59850  Biso   1.000  H
  N21      1.0000 0.68242  0.59120  0.97293  Biso   1.000  N
  C21      1.0000 0.68580  0.63100  0.90460  Biso   1.000  C
  H41      1.0000 0.72170  0.62120  0.86320  Biso   1.000  H
  H42      1.0000 0.60770  0.54160  0.09850  Biso   1.000  H
  N22      1.0000 0.18242  0.09120  0.47293  Biso   1.000  N
  C22      1.0000 0.18580  0.13100  0.40460  Biso   1.000  C
  H43      1.0000 0.22170  0.12120  0.36320  Biso   1.000  H
  H44      1.0000 0.10770  0.04160  0.59850  Biso   1.000  H
  N23      1.0000 0.31758  0.59120  0.02707  Biso   1.000  N
  C23      1.0000 0.31420  0.63100  0.09540  Biso   1.000  C
  H45      1.0000 0.27830  0.62120  0.13680  Biso   1.000  H
  H46      1.0000 0.39230  0.54160  0.90150  Biso   1.000  H
  N24      1.0000 0.81758  0.09120  0.52707  Biso   1.000  N
  C24      1.0000 0.81420  0.13100  0.59540  Biso   1.000  C
  H47      1.0000 0.77830  0.12120  0.63680  Biso   1.000  H
  H48      1.0000 0.89230  0.04160  0.40150  Biso   1.000  H
  N25      1.0000 0.68242  0.02707  0.40880  Biso   1.000  N
  C25      1.0000 0.68580  0.09540  0.36900  Biso   1.000  C
  H49      1.0000 0.72170  0.13680  0.37880  Biso   1.000  H
  H50      1.0000 0.60770  0.90150  0.45840  Biso   1.000  H
  N26      1.0000 0.18242  0.52707  0.90880  Biso   1.000  N
  C26      1.0000 0.18580  0.59540  0.86900  Biso   1.000  C
  H51      1.0000 0.22170  0.63680  0.87880  Biso   1.000  H
  H52      1.0000 0.10770  0.40150  0.95840  Biso   1.000  H
  N27      1.0000 0.31758  0.97293  0.40880  Biso   1.000  N
  C27      1.0000 0.31420  0.90460  0.36900  Biso   1.000  C
  H53      1.0000 0.27830  0.86320  0.37880  Biso   1.000  H
  H54      1.0000 0.39230  0.09850  0.45840  Biso   1.000  H
  N28      1.0000 0.81758  0.47293  0.90880  Biso   1.000  N
  C28      1.0000 0.81420  0.40460  0.86900  Biso   1.000  C
  H55      1.0000 0.77830  0.36320  0.87880  Biso   1.000  H
  H56      1.0000 0.89230  0.59850  0.95840  Biso   1.000  H
  N29      1.0000 0.68242  0.97293  0.59120  Biso   1.000  N
  C29      1.0000 0.68580  0.90460  0.63100  Biso   1.000  C
  H57      1.0000 0.72170  0.86320  0.62120  Biso   1.000  H
  H58      1.0000 0.60770  0.09850  0.54160  Biso   1.000  H
  N30      1.0000 0.18242  0.47293  0.09120  Biso   1.000  N
  C30      1.0000 0.18580  0.40460  0.13100  Biso   1.000  C
  H59      1.0000 0.22170  0.36320  0.12120  Biso   1.000  H
  H60      1.0000 0.10770  0.59850  0.04160  Biso   1.000  H
  N31      1.0000 0.31758  0.02707  0.59120  Biso   1.000  N
  C31      1.0000 0.31420  0.09540  0.63100  Biso   1.000  C
  H61      1.0000 0.27830  0.13680  0.62120  Biso   1.000  H
  H62      1.0000 0.39230  0.90150  0.54160  Biso   1.000  H
  N32      1.0000 0.81758  0.52707  0.09120  Biso   1.000  N
  C32      1.0000 0.81420  0.59540  0.13100  Biso   1.000  C
  H63      1.0000 0.77830  0.63680  0.12120  Biso   1.000  H
  H64      1.0000 0.89230  0.40150  0.04160  Biso   1.000  H
  N33      1.0000 0.02707  0.40880  0.68242  Biso   1.000  N
  C33      1.0000 0.09540  0.36900  0.68580  Biso   1.000  C
  H65      1.0000 0.13680  0.37880  0.72170  Biso   1.000  H
  H66      1.0000 0.90150  0.45840  0.60770  Biso   1.000  H
  N34      1.0000 0.52707  0.90880  0.18242  Biso   1.000  N
  C34      1.0000 0.59540  0.86900  0.18580  Biso   1.000  C
  H67      1.0000 0.63680  0.87880  0.22170  Biso   1.000  H
  H68      1.0000 0.40150  0.95840  0.10770  Biso   1.000  H
  N35      1.0000 0.97293  0.40880  0.31758  Biso   1.000  N
  C35      1.0000 0.90460  0.36900  0.31420  Biso   1.000  C
  H69      1.0000 0.86320  0.37880  0.27830  Biso   1.000  H
  H70      1.0000 0.09850  0.45840  0.39230  Biso   1.000  H
  N36      1.0000 0.47293  0.90880  0.81758  Biso   1.000  N
  C36      1.0000 0.40460  0.86900  0.81420  Biso   1.000  C
  H71      1.0000 0.36320  0.87880  0.77830  Biso   1.000  H
  H72      1.0000 0.59850  0.95840  0.89230  Biso   1.000  H
  N37      1.0000 0.97293  0.59120  0.68242  Biso   1.000  N
  C37      1.0000 0.90460  0.63100  0.68580  Biso   1.000  C
  H73      1.0000 0.86320  0.62120  0.72170  Biso   1.000  H
  H74      1.0000 0.09850  0.54160  0.60770  Biso   1.000  H
  N38      1.0000 0.47293  0.09120  0.18242  Biso   1.000  N
  C38      1.0000 0.40460  0.13100  0.18580  Biso   1.000  C
  H75      1.0000 0.36320  0.12120  0.22170  Biso   1.000  H
  H76      1.0000 0.59850  0.04160  0.10770  Biso   1.000  H
  N39      1.0000 0.02707  0.59120  0.31758  Biso   1.000  N
  C39      1.0000 0.09540  0.63100  0.31420  Biso   1.000  C
  H77      1.0000 0.13680  0.62120  0.27830  Biso   1.000  H
  H78      1.0000 0.90150  0.54160  0.39230  Biso   1.000  H
  N40      1.0000 0.52707  0.09120  0.81758  Biso   1.000  N
  C40      1.0000 0.59540  0.13100  0.81420  Biso   1.000  C
  H79      1.0000 0.63680  0.12120  0.77830  Biso   1.000  H
  H80      1.0000 0.40150  0.04160  0.89230  Biso   1.000  H
  N41      1.0000 0.40880  0.68242  0.02707  Biso   1.000  N
  C41      1.0000 0.36900  0.68580  0.09540  Biso   1.000  C
  H81      1.0000 0.37880  0.72170  0.13680  Biso   1.000  H
  H82      1.0000 0.45840  0.60770  0.90150  Biso   1.000  H
  N42      1.0000 0.90880  0.18242  0.52707  Biso   1.000  N
  C42      1.0000 0.86900  0.18580  0.59540  Biso   1.000  C
  H83      1.0000 0.87880  0.22170  0.63680  Biso   1.000  H
  H84      1.0000 0.95840  0.10770  0.40150  Biso   1.000  H
  N43      1.0000 0.40880  0.31758  0.97293  Biso   1.000  N
  C43      1.0000 0.36900  0.31420  0.90460  Biso   1.000  C
  H85      1.0000 0.37880  0.27830  0.86320  Biso   1.000  H
  H86      1.0000 0.45840  0.39230  0.09850  Biso   1.000  H
  N44      1.0000 0.90880  0.81758  0.47293  Biso   1.000  N
  C44      1.0000 0.86900  0.81420  0.40460  Biso   1.000  C
  H87      1.0000 0.87880  0.77830  0.36320  Biso   1.000  H
  H88      1.0000 0.95840  0.89230  0.59850  Biso   1.000  H
  N45      1.0000 0.59120  0.68242  0.97293  Biso   1.000  N
  C45      1.0000 0.63100  0.68580  0.90460  Biso   1.000  C
  H89      1.0000 0.62120  0.72170  0.86320  Biso   1.000  H
  H90      1.0000 0.54160  0.60770  0.09850  Biso   1.000  H
  N46      1.0000 0.09120  0.18242  0.47293  Biso   1.000  N
  C46      1.0000 0.13100  0.18580  0.40460  Biso   1.000  C
  H91      1.0000 0.12120  0.22170  0.36320  Biso   1.000  H
  H92      1.0000 0.04160  0.10770  0.59850  Biso   1.000  H
  N47      1.0000 0.59120  0.31758  0.02707  Biso   1.000  N
  C47      1.0000 0.63100  0.31420  0.09540  Biso   1.000  C
  H93      1.0000 0.62120  0.27830  0.13680  Biso   1.000  H
  H94      1.0000 0.54160  0.39230  0.90150  Biso   1.000  H
  N48      1.0000 0.09120  0.81758  0.52707  Biso   1.000  N
  C48      1.0000 0.13100  0.81420  0.59540  Biso   1.000  C
  H95      1.0000 0.12120  0.77830  0.63680  Biso   1.000  H
  H96      1.0000 0.04160  0.89230  0.40150  Biso   1.000  H
  Zn1      1.0000 0.00000  0.75000  0.50000  Biso   1.000  Zn
  Zn2      1.0000 0.00000  0.25000  0.50000  Biso   1.000  Zn
  Zn3      1.0000 0.50000  0.00000  0.75000  Biso   1.000  Zn
  Zn4      1.0000 0.50000  0.00000  0.25000  Biso   1.000  Zn
  Zn5      1.0000 0.75000  0.50000  0.00000  Biso   1.000  Zn
  Zn6      1.0000 0.25000  0.50000  0.00000  Biso   1.000  Zn
  Zn7      1.0000 0.75000  0.00000  0.50000  Biso   1.000  Zn
  Zn8      1.0000 0.25000  0.00000  0.50000  Biso   1.000  Zn
  Zn9      1.0000 0.00000  0.50000  0.75000  Biso   1.000  Zn
  Zn10     1.0000 0.00000  0.50000  0.25000  Biso   1.000  Zn
  Zn11     1.0000 0.50000  0.75000  0.00000  Biso   1.000  Zn
  Zn12     1.0000 0.50000  0.25000  0.00000  Biso   1.000  Zn
  C49      1.0000 0.98700  0.62520  0.37480  Biso   1.000  C
  C50      1.0000 0.90690  0.59790  0.40210  Biso   1.000  C
  H97      1.0000 0.86610  0.62660  0.37340  Biso   1.000  H
  C51      1.0000 0.48700  0.12520  0.87480  Biso   1.000  C
  C52      1.0000 0.40690  0.09790  0.90210  Biso   1.000  C
  H98      1.0000 0.36610  0.12660  0.87340  Biso   1.000  H
  C53      1.0000 0.01300  0.37480  0.37480  Biso   1.000  C
  C54      1.0000 0.09310  0.40210  0.40210  Biso   1.000  C
  H99      1.0000 0.13390  0.37340  0.37340  Biso   1.000  H
  C55      1.0000 0.51300  0.87480  0.87480  Biso   1.000  C
  C56      1.0000 0.59310  0.90210  0.90210  Biso   1.000  C
  H100     1.0000 0.63390  0.87340  0.87340  Biso   1.000  H
  C57      1.0000 0.01300  0.62520  0.62520  Biso   1.000  C
  C58      1.0000 0.09310  0.59790  0.59790  Biso   1.000  C
  H101     1.0000 0.13390  0.62660  0.62660  Biso   1.000  H
  C59      1.0000 0.51300  0.12520  0.12520  Biso   1.000  C
  C60      1.0000 0.59310  0.09790  0.09790  Biso   1.000  C
  H102     1.0000 0.63390  0.12660  0.12660  Biso   1.000  H
  C61      1.0000 0.98700  0.37480  0.62520  Biso   1.000  C
  C62      1.0000 0.90690  0.40210  0.59790  Biso   1.000  C
  H103     1.0000 0.86610  0.37340  0.62660  Biso   1.000  H
  C63      1.0000 0.48700  0.87480  0.12520  Biso   1.000  C
  C64      1.0000 0.40690  0.90210  0.09790  Biso   1.000  C
  H104     1.0000 0.36610  0.87340  0.12660  Biso   1.000  H
  C65      1.0000 0.37480  0.98700  0.62520  Biso   1.000  C
  C66      1.0000 0.40210  0.90690  0.59790  Biso   1.000  C
  H105     1.0000 0.37340  0.86610  0.62660  Biso   1.000  H
  C67      1.0000 0.87480  0.48700  0.12520  Biso   1.000  C
  C68      1.0000 0.90210  0.40690  0.09790  Biso   1.000  C
  H106     1.0000 0.87340  0.36610  0.12660  Biso   1.000  H
  C69      1.0000 0.37480  0.01300  0.37480  Biso   1.000  C
  C70      1.0000 0.40210  0.09310  0.40210  Biso   1.000  C
  H107     1.0000 0.37340  0.13390  0.37340  Biso   1.000  H
  C71      1.0000 0.87480  0.51300  0.87480  Biso   1.000  C
  C72      1.0000 0.90210  0.59310  0.90210  Biso   1.000  C
  H108     1.0000 0.87340  0.63390  0.87340  Biso   1.000  H
  C73      1.0000 0.62520  0.01300  0.62520  Biso   1.000  C
  C74      1.0000 0.59790  0.09310  0.59790  Biso   1.000  C
  H109     1.0000 0.62660  0.13390  0.62660  Biso   1.000  H
  C75      1.0000 0.12520  0.51300  0.12520  Biso   1.000  C
  C76      1.0000 0.09790  0.59310  0.09790  Biso   1.000  C
  H110     1.0000 0.12660  0.63390  0.12660  Biso   1.000  H
  C77      1.0000 0.62520  0.98700  0.37480  Biso   1.000  C
  C78      1.0000 0.59790  0.90690  0.40210  Biso   1.000  C
  H111     1.0000 0.62660  0.86610  0.37340  Biso   1.000  H
  C79      1.0000 0.12520  0.48700  0.87480  Biso   1.000  C
  C80      1.0000 0.09790  0.40690  0.90210  Biso   1.000  C
  H112     1.0000 0.12660  0.36610  0.87340  Biso   1.000  H
  C81      1.0000 0.62520  0.37480  0.98700  Biso   1.000  C
  C82      1.0000 0.59790  0.40210  0.90690  Biso   1.000  C
  H113     1.0000 0.62660  0.37340  0.86610  Biso   1.000  H
  C83      1.0000 0.12520  0.87480  0.48700  Biso   1.000  C
  C84      1.0000 0.09790  0.90210  0.40690  Biso   1.000  C
  H114     1.0000 0.12660  0.87340  0.36610  Biso   1.000  H
  C85      1.0000 0.37480  0.37480  0.01300  Biso   1.000  C
  C86      1.0000 0.40210  0.40210  0.09310  Biso   1.000  C
  H115     1.0000 0.37340  0.37340  0.13390  Biso   1.000  H
  C87      1.0000 0.87480  0.87480  0.51300  Biso   1.000  C
  C88      1.0000 0.90210  0.90210  0.59310  Biso   1.000  C
  H116     1.0000 0.87340  0.87340  0.63390  Biso   1.000  H
  C89      1.0000 0.62520  0.62520  0.01300  Biso   1.000  C
  C90      1.0000 0.59790  0.59790  0.09310  Biso   1.000  C
  H117     1.0000 0.62660  0.62660  0.13390  Biso   1.000  H
  C91      1.0000 0.12520  0.12520  0.51300  Biso   1.000  C
  C92      1.0000 0.09790  0.09790  0.59310  Biso   1.000  C
  H118     1.0000 0.12660  0.12660  0.63390  Biso   1.000  H
  C93      1.0000 0.37480  0.62520  0.98700  Biso   1.000  C
  C94      1.0000 0.40210  0.59790  0.90690  Biso   1.000  C
  H119     1.0000 0.37340  0.62660  0.86610  Biso   1.000  H
  C95      1.0000 0.87480  0.12520  0.48700  Biso   1.000  C
  C96      1.0000 0.90210  0.09790  0.40690  Biso   1.000  C
  H120     1.0000 0.87340  0.12660  0.36610  Biso   1.000  H
