data_image0
_cell_length_a       17.0797
_cell_length_b       17.0797
_cell_length_c       17.0797
_cell_angle_alpha    90
_cell_angle_beta     90
_cell_angle_gamma    90

_symmetry_space_group_name_H-M    "P 1"
_symmetry_int_tables_number       1

loop_
  _symmetry_equiv_pos_as_xyz
  'x, y, z'

loop_
  _atom_site_label
  _atom_site_occupancy
  _atom_site_fract_x
  _atom_site_fract_y
  _atom_site_fract_z
  _atom_site_thermal_displace_type
  _atom_site_B_iso_or_equiv
  _atom_site_type_symbol
  N1       1.0000 0.03059  0.68037  0.41120  Biso   1.000  N
  C1       1.0000 0.10658  0.66326  0.39184  Biso   1.000  C
  H1       1.0000 0.15180  0.68680  0.41410  Biso   1.000  H
  H2       1.0000 0.88060  0.64470  0.42160  Biso   1.000  H
  N2       1.0000 0.10658  0.60816  0.33674  Biso   1.000  N
  N3       1.0000 0.53059  0.18037  0.91120  Biso   1.000  N
  C2       1.0000 0.60658  0.16326  0.89184  Biso   1.000  C
  H3       1.0000 0.65180  0.18680  0.91410  Biso   1.000  H
  H4       1.0000 0.38060  0.14470  0.92160  Biso   1.000  H
  N4       1.0000 0.60658  0.10816  0.83674  Biso   1.000  N
  N5       1.0000 0.96941  0.31963  0.41120  Biso   1.000  N
  C3       1.0000 0.89342  0.33674  0.39184  Biso   1.000  C
  H5       1.0000 0.84820  0.31320  0.41410  Biso   1.000  H
  H6       1.0000 0.11940  0.35530  0.42160  Biso   1.000  H
  N6       1.0000 0.89342  0.39184  0.33674  Biso   1.000  N
  N7       1.0000 0.46941  0.81963  0.91120  Biso   1.000  N
  C4       1.0000 0.39342  0.83674  0.89184  Biso   1.000  C
  H7       1.0000 0.34820  0.81320  0.91410  Biso   1.000  H
  H8       1.0000 0.61940  0.85530  0.92160  Biso   1.000  H
  N8       1.0000 0.39342  0.89184  0.83674  Biso   1.000  N
  N9       1.0000 0.96941  0.68037  0.58880  Biso   1.000  N
  C5       1.0000 0.89342  0.66326  0.60816  Biso   1.000  C
  H9       1.0000 0.84820  0.68680  0.58590  Biso   1.000  H
  H10      1.0000 0.11940  0.64470  0.57840  Biso   1.000  H
  N10      1.0000 0.89342  0.60816  0.66326  Biso   1.000  N
  N11      1.0000 0.46941  0.18037  0.08880  Biso   1.000  N
  C6       1.0000 0.39342  0.16326  0.10816  Biso   1.000  C
  H11      1.0000 0.34820  0.18680  0.08590  Biso   1.000  H
  H12      1.0000 0.61940  0.14470  0.07840  Biso   1.000  H
  N12      1.0000 0.39342  0.10816  0.16326  Biso   1.000  N
  N13      1.0000 0.03059  0.31963  0.58880  Biso   1.000  N
  C7       1.0000 0.10658  0.33674  0.60816  Biso   1.000  C
  H13      1.0000 0.15180  0.31320  0.58590  Biso   1.000  H
  H14      1.0000 0.88060  0.35530  0.57840  Biso   1.000  H
  N14      1.0000 0.10658  0.39184  0.66326  Biso   1.000  N
  N15      1.0000 0.53059  0.81963  0.08880  Biso   1.000  N
  C8       1.0000 0.60658  0.83674  0.10816  Biso   1.000  C
  H15      1.0000 0.65180  0.81320  0.08590  Biso   1.000  H
  H16      1.0000 0.38060  0.85530  0.07840  Biso   1.000  H
  N16      1.0000 0.60658  0.89184  0.16326  Biso   1.000  N
  N17      1.0000 0.41120  0.03059  0.68037  Biso   1.000  N
  C9       1.0000 0.39184  0.10658  0.66326  Biso   1.000  C
  H17      1.0000 0.41410  0.15180  0.68680  Biso   1.000  H
  H18      1.0000 0.42160  0.88060  0.64470  Biso   1.000  H
  N18      1.0000 0.33674  0.10658  0.60816  Biso   1.000  N
  N19      1.0000 0.91120  0.53059  0.18037  Biso   1.000  N
  C10      1.0000 0.89184  0.60658  0.16326  Biso   1.000  C
  H19      1.0000 0.91410  0.65180  0.18680  Biso   1.000  H
  H20      1.0000 0.92160  0.38060  0.14470  Biso   1.000  H
  N20      1.0000 0.83674  0.60658  0.10816  Biso   1.000  N
  N21      1.0000 0.41120  0.96941  0.31963  Biso   1.000  N
  C11      1.0000 0.39184  0.89342  0.33674  Biso   1.000  C
  H21      1.0000 0.41410  0.84820  0.31320  Biso   1.000  H
  H22      1.0000 0.42160  0.11940  0.35530  Biso   1.000  H
  N22      1.0000 0.33674  0.89342  0.39184  Biso   1.000  N
  N23      1.0000 0.91120  0.46941  0.81963  Biso   1.000  N
  C12      1.0000 0.89184  0.39342  0.83674  Biso   1.000  C
  H23      1.0000 0.91410  0.34820  0.81320  Biso   1.000  H
  H24      1.0000 0.92160  0.61940  0.85530  Biso   1.000  H
  N24      1.0000 0.83674  0.39342  0.89184  Biso   1.000  N
  N25      1.0000 0.58880  0.96941  0.68037  Biso   1.000  N
  C13      1.0000 0.60816  0.89342  0.66326  Biso   1.000  C
  H25      1.0000 0.58590  0.84820  0.68680  Biso   1.000  H
  H26      1.0000 0.57840  0.11940  0.64470  Biso   1.000  H
  N26      1.0000 0.66326  0.89342  0.60816  Biso   1.000  N
  N27      1.0000 0.08880  0.46941  0.18037  Biso   1.000  N
  C14      1.0000 0.10816  0.39342  0.16326  Biso   1.000  C
  H27      1.0000 0.08590  0.34820  0.18680  Biso   1.000  H
  H28      1.0000 0.07840  0.61940  0.14470  Biso   1.000  H
  N28      1.0000 0.16326  0.39342  0.10816  Biso   1.000  N
  N29      1.0000 0.58880  0.03059  0.31963  Biso   1.000  N
  C15      1.0000 0.60816  0.10658  0.33674  Biso   1.000  C
  H29      1.0000 0.58590  0.15180  0.31320  Biso   1.000  H
  H30      1.0000 0.57840  0.88060  0.35530  Biso   1.000  H
  N30      1.0000 0.66326  0.10658  0.39184  Biso   1.000  N
  N31      1.0000 0.08880  0.53059  0.81963  Biso   1.000  N
  C16      1.0000 0.10816  0.60658  0.83674  Biso   1.000  C
  H31      1.0000 0.08590  0.65180  0.81320  Biso   1.000  H
  H32      1.0000 0.07840  0.38060  0.85530  Biso   1.000  H
  N32      1.0000 0.16326  0.60658  0.89184  Biso   1.000  N
  N33      1.0000 0.68037  0.41120  0.03059  Biso   1.000  N
  C17      1.0000 0.66326  0.39184  0.10658  Biso   1.000  C
  H33      1.0000 0.68680  0.41410  0.15180  Biso   1.000  H
  H34      1.0000 0.64470  0.42160  0.88060  Biso   1.000  H
  N34      1.0000 0.60816  0.33674  0.10658  Biso   1.000  N
  N35      1.0000 0.18037  0.91120  0.53059  Biso   1.000  N
  C18      1.0000 0.16326  0.89184  0.60658  Biso   1.000  C
  H35      1.0000 0.18680  0.91410  0.65180  Biso   1.000  H
  H36      1.0000 0.14470  0.92160  0.38060  Biso   1.000  H
  N36      1.0000 0.10816  0.83674  0.60658  Biso   1.000  N
  N37      1.0000 0.31963  0.41120  0.96941  Biso   1.000  N
  C19      1.0000 0.33674  0.39184  0.89342  Biso   1.000  C
  H37      1.0000 0.31320  0.41410  0.84820  Biso   1.000  H
  H38      1.0000 0.35530  0.42160  0.11940  Biso   1.000  H
  N38      1.0000 0.39184  0.33674  0.89342  Biso   1.000  N
  N39      1.0000 0.81963  0.91120  0.46941  Biso   1.000  N
  C20      1.0000 0.83674  0.89184  0.39342  Biso   1.000  C
  H39      1.0000 0.81320  0.91410  0.34820  Biso   1.000  H
  H40      1.0000 0.85530  0.92160  0.61940  Biso   1.000  H
  N40      1.0000 0.89184  0.83674  0.39342  Biso   1.000  N
  N41      1.0000 0.68037  0.58880  0.96941  Biso   1.000  N
  C21      1.0000 0.66326  0.60816  0.89342  Biso   1.000  C
  H41      1.0000 0.68680  0.58590  0.84820  Biso   1.000  H
  H42      1.0000 0.64470  0.57840  0.11940  Biso   1.000  H
  N42      1.0000 0.60816  0.66326  0.89342  Biso   1.000  N
  N43      1.0000 0.18037  0.08880  0.46941  Biso   1.000  N
  C22      1.0000 0.16326  0.10816  0.39342  Biso   1.000  C
  H43      1.0000 0.18680  0.08590  0.34820  Biso   1.000  H
  H44      1.0000 0.14470  0.07840  0.61940  Biso   1.000  H
  N44      1.0000 0.10816  0.16326  0.39342  Biso   1.000  N
  N45      1.0000 0.31963  0.58880  0.03059  Biso   1.000  N
  C23      1.0000 0.33674  0.60816  0.10658  Biso   1.000  C
  H45      1.0000 0.31320  0.58590  0.15180  Biso   1.000  H
  H46      1.0000 0.35530  0.57840  0.88060  Biso   1.000  H
  N46      1.0000 0.39184  0.66326  0.10658  Biso   1.000  N
  N47      1.0000 0.81963  0.08880  0.53059  Biso   1.000  N
  C24      1.0000 0.83674  0.10816  0.60658  Biso   1.000  C
  H47      1.0000 0.81320  0.08590  0.65180  Biso   1.000  H
  H48      1.0000 0.85530  0.07840  0.38060  Biso   1.000  H
  N48      1.0000 0.89184  0.16326  0.60658  Biso   1.000  N
  N49      1.0000 0.68037  0.03059  0.41120  Biso   1.000  N
  H49      1.0000 0.68680  0.15180  0.41410  Biso   1.000  H
  H50      1.0000 0.64470  0.88060  0.42160  Biso   1.000  H
  N50      1.0000 0.18037  0.53059  0.91120  Biso   1.000  N
  H51      1.0000 0.18680  0.65180  0.91410  Biso   1.000  H
  H52      1.0000 0.14470  0.38060  0.92160  Biso   1.000  H
  N51      1.0000 0.31963  0.96941  0.41120  Biso   1.000  N
  H53      1.0000 0.31320  0.84820  0.41410  Biso   1.000  H
  H54      1.0000 0.35530  0.11940  0.42160  Biso   1.000  H
  N52      1.0000 0.81963  0.46941  0.91120  Biso   1.000  N
  H55      1.0000 0.81320  0.34820  0.91410  Biso   1.000  H
  H56      1.0000 0.85530  0.61940  0.92160  Biso   1.000  H
  N53      1.0000 0.68037  0.96941  0.58880  Biso   1.000  N
  H57      1.0000 0.68680  0.84820  0.58590  Biso   1.000  H
  H58      1.0000 0.64470  0.11940  0.57840  Biso   1.000  H
  N54      1.0000 0.18037  0.46941  0.08880  Biso   1.000  N
  H59      1.0000 0.18680  0.34820  0.08590  Biso   1.000  H
  H60      1.0000 0.14470  0.61940  0.07840  Biso   1.000  H
  N55      1.0000 0.31963  0.03059  0.58880  Biso   1.000  N
  H61      1.0000 0.31320  0.15180  0.58590  Biso   1.000  H
  H62      1.0000 0.35530  0.88060  0.57840  Biso   1.000  H
  N56      1.0000 0.81963  0.53059  0.08880  Biso   1.000  N
  H63      1.0000 0.81320  0.65180  0.08590  Biso   1.000  H
  H64      1.0000 0.85530  0.38060  0.07840  Biso   1.000  H
  N57      1.0000 0.03059  0.41120  0.68037  Biso   1.000  N
  H65      1.0000 0.15180  0.41410  0.68680  Biso   1.000  H
  H66      1.0000 0.88060  0.42160  0.64470  Biso   1.000  H
  N58      1.0000 0.53059  0.91120  0.18037  Biso   1.000  N
  H67      1.0000 0.65180  0.91410  0.18680  Biso   1.000  H
  H68      1.0000 0.38060  0.92160  0.14470  Biso   1.000  H
  N59      1.0000 0.96941  0.41120  0.31963  Biso   1.000  N
  H69      1.0000 0.84820  0.41410  0.31320  Biso   1.000  H
  H70      1.0000 0.11940  0.42160  0.35530  Biso   1.000  H
  N60      1.0000 0.46941  0.91120  0.81963  Biso   1.000  N
  H71      1.0000 0.34820  0.91410  0.81320  Biso   1.000  H
  H72      1.0000 0.61940  0.92160  0.85530  Biso   1.000  H
  N61      1.0000 0.96941  0.58880  0.68037  Biso   1.000  N
  H73      1.0000 0.84820  0.58590  0.68680  Biso   1.000  H
  H74      1.0000 0.11940  0.57840  0.64470  Biso   1.000  H
  N62      1.0000 0.46941  0.08880  0.18037  Biso   1.000  N
  H75      1.0000 0.34820  0.08590  0.18680  Biso   1.000  H
  H76      1.0000 0.61940  0.07840  0.14470  Biso   1.000  H
  N63      1.0000 0.03059  0.58880  0.31963  Biso   1.000  N
  H77      1.0000 0.15180  0.58590  0.31320  Biso   1.000  H
  H78      1.0000 0.88060  0.57840  0.35530  Biso   1.000  H
  N64      1.0000 0.53059  0.08880  0.81963  Biso   1.000  N
  H79      1.0000 0.65180  0.08590  0.81320  Biso   1.000  H
  H80      1.0000 0.38060  0.07840  0.85530  Biso   1.000  H
  N65      1.0000 0.41120  0.68037  0.03059  Biso   1.000  N
  H81      1.0000 0.41410  0.68680  0.15180  Biso   1.000  H
  H82      1.0000 0.42160  0.64470  0.88060  Biso   1.000  H
  N66      1.0000 0.91120  0.18037  0.53059  Biso   1.000  N
  H83      1.0000 0.91410  0.18680  0.65180  Biso   1.000  H
  H84      1.0000 0.92160  0.14470  0.38060  Biso   1.000  H
  N67      1.0000 0.41120  0.31963  0.96941  Biso   1.000  N
  H85      1.0000 0.41410  0.31320  0.84820  Biso   1.000  H
  H86      1.0000 0.42160  0.35530  0.11940  Biso   1.000  H
  N68      1.0000 0.91120  0.81963  0.46941  Biso   1.000  N
  H87      1.0000 0.91410  0.81320  0.34820  Biso   1.000  H
  H88      1.0000 0.92160  0.85530  0.61940  Biso   1.000  H
  N69      1.0000 0.58880  0.68037  0.96941  Biso   1.000  N
  H89      1.0000 0.58590  0.68680  0.84820  Biso   1.000  H
  H90      1.0000 0.57840  0.64470  0.11940  Biso   1.000  H
  N70      1.0000 0.08880  0.18037  0.46941  Biso   1.000  N
  H91      1.0000 0.08590  0.18680  0.34820  Biso   1.000  H
  H92      1.0000 0.07840  0.14470  0.61940  Biso   1.000  H
  N71      1.0000 0.58880  0.31963  0.03059  Biso   1.000  N
  H93      1.0000 0.58590  0.31320  0.15180  Biso   1.000  H
  H94      1.0000 0.57840  0.35530  0.88060  Biso   1.000  H
  N72      1.0000 0.08880  0.81963  0.53059  Biso   1.000  N
  H95      1.0000 0.08590  0.81320  0.65180  Biso   1.000  H
  H96      1.0000 0.07840  0.85530  0.38060  Biso   1.000  H
  Zn1      1.0000 0.00000  0.75000  0.50000  Biso   1.000  Zn
  Zn2      1.0000 0.00000  0.25000  0.50000  Biso   1.000  Zn
  Zn3      1.0000 0.50000  0.00000  0.75000  Biso   1.000  Zn
  Zn4      1.0000 0.50000  0.00000  0.25000  Biso   1.000  Zn
  Zn5      1.0000 0.75000  0.50000  0.00000  Biso   1.000  Zn
  Zn6      1.0000 0.25000  0.50000  0.00000  Biso   1.000  Zn
  Zn7      1.0000 0.75000  0.00000  0.50000  Biso   1.000  Zn
  Zn8      1.0000 0.25000  0.00000  0.50000  Biso   1.000  Zn
  Zn9      1.0000 0.00000  0.50000  0.75000  Biso   1.000  Zn
  Zn10     1.0000 0.00000  0.50000  0.25000  Biso   1.000  Zn
  Zn11     1.0000 0.50000  0.75000  0.00000  Biso   1.000  Zn
  Zn12     1.0000 0.50000  0.25000  0.00000  Biso   1.000  Zn
  C25      1.0000 0.98670  0.63382  0.36618  Biso   1.000  C
  C26      1.0000 0.89860  0.63120  0.36879  Biso   1.000  C
  H97      1.0000 0.87720  0.66885  0.33115  Biso   1.000  H
  C27      1.0000 0.48670  0.13382  0.86618  Biso   1.000  C
  C28      1.0000 0.39860  0.13120  0.86879  Biso   1.000  C
  H98      1.0000 0.37720  0.16885  0.83115  Biso   1.000  H
  C29      1.0000 0.01330  0.36618  0.36618  Biso   1.000  C
  C30      1.0000 0.10140  0.36880  0.36879  Biso   1.000  C
  H99      1.0000 0.12280  0.33115  0.33115  Biso   1.000  H
  C31      1.0000 0.51330  0.86618  0.86618  Biso   1.000  C
  C32      1.0000 0.60140  0.86880  0.86879  Biso   1.000  C
  H100     1.0000 0.62280  0.83115  0.83115  Biso   1.000  H
  C33      1.0000 0.01330  0.63382  0.63382  Biso   1.000  C
  C34      1.0000 0.10140  0.63120  0.63121  Biso   1.000  C
  H101     1.0000 0.12280  0.66885  0.66885  Biso   1.000  H
  C35      1.0000 0.51330  0.13382  0.13382  Biso   1.000  C
  C36      1.0000 0.60140  0.13120  0.13121  Biso   1.000  C
  H102     1.0000 0.62280  0.16885  0.16885  Biso   1.000  H
  C37      1.0000 0.98670  0.36618  0.63382  Biso   1.000  C
  C38      1.0000 0.89860  0.36880  0.63121  Biso   1.000  C
  H103     1.0000 0.87720  0.33115  0.66885  Biso   1.000  H
  C39      1.0000 0.48670  0.86618  0.13382  Biso   1.000  C
  C40      1.0000 0.39860  0.86880  0.13121  Biso   1.000  C
  H104     1.0000 0.37720  0.83115  0.16885  Biso   1.000  H
  C41      1.0000 0.36618  0.98670  0.63382  Biso   1.000  C
  C42      1.0000 0.36879  0.89860  0.63120  Biso   1.000  C
  H105     1.0000 0.33115  0.87720  0.66885  Biso   1.000  H
  C43      1.0000 0.86618  0.48670  0.13382  Biso   1.000  C
  C44      1.0000 0.86879  0.39860  0.13120  Biso   1.000  C
  H106     1.0000 0.83115  0.37720  0.16885  Biso   1.000  H
  C45      1.0000 0.36618  0.01330  0.36618  Biso   1.000  C
  C46      1.0000 0.36879  0.10140  0.36880  Biso   1.000  C
  H107     1.0000 0.33115  0.12280  0.33115  Biso   1.000  H
  C47      1.0000 0.86618  0.51330  0.86618  Biso   1.000  C
  C48      1.0000 0.86879  0.60140  0.86880  Biso   1.000  C
  H108     1.0000 0.83115  0.62280  0.83115  Biso   1.000  H
  C49      1.0000 0.63382  0.01330  0.63382  Biso   1.000  C
  C50      1.0000 0.63121  0.10140  0.63120  Biso   1.000  C
  H109     1.0000 0.66885  0.12280  0.66885  Biso   1.000  H
  C51      1.0000 0.13382  0.51330  0.13382  Biso   1.000  C
  C52      1.0000 0.13121  0.60140  0.13120  Biso   1.000  C
  H110     1.0000 0.16885  0.62280  0.16885  Biso   1.000  H
  C53      1.0000 0.63382  0.98670  0.36618  Biso   1.000  C
  C54      1.0000 0.63121  0.89860  0.36880  Biso   1.000  C
  H111     1.0000 0.66885  0.87720  0.33115  Biso   1.000  H
  C55      1.0000 0.13382  0.48670  0.86618  Biso   1.000  C
  C56      1.0000 0.13121  0.39860  0.86880  Biso   1.000  C
  H112     1.0000 0.16885  0.37720  0.83115  Biso   1.000  H
  C57      1.0000 0.63382  0.36618  0.98670  Biso   1.000  C
  C58      1.0000 0.63120  0.36879  0.89860  Biso   1.000  C
  H113     1.0000 0.66885  0.33115  0.87720  Biso   1.000  H
  C59      1.0000 0.13382  0.86618  0.48670  Biso   1.000  C
  C60      1.0000 0.13120  0.86879  0.39860  Biso   1.000  C
  H114     1.0000 0.16885  0.83115  0.37720  Biso   1.000  H
  C61      1.0000 0.36618  0.36618  0.01330  Biso   1.000  C
  C62      1.0000 0.36880  0.36879  0.10140  Biso   1.000  C
  H115     1.0000 0.33115  0.33115  0.12280  Biso   1.000  H
  C63      1.0000 0.86618  0.86618  0.51330  Biso   1.000  C
  C64      1.0000 0.86879  0.86879  0.60140  Biso   1.000  C
  H116     1.0000 0.83115  0.83115  0.62280  Biso   1.000  H
  C65      1.0000 0.63382  0.63382  0.01330  Biso   1.000  C
  C66      1.0000 0.63120  0.63121  0.10140  Biso   1.000  C
  H117     1.0000 0.66885  0.66885  0.12280  Biso   1.000  H
  C67      1.0000 0.13382  0.13382  0.51330  Biso   1.000  C
  C68      1.0000 0.13120  0.13121  0.60140  Biso   1.000  C
  H118     1.0000 0.16885  0.16885  0.62280  Biso   1.000  H
  C69      1.0000 0.36618  0.63382  0.98670  Biso   1.000  C
  C70      1.0000 0.36880  0.63121  0.89860  Biso   1.000  C
  H119     1.0000 0.33115  0.66885  0.87720  Biso   1.000  H
  C71      1.0000 0.86618  0.13382  0.48670  Biso   1.000  C
  C72      1.0000 0.86879  0.13121  0.39860  Biso   1.000  C
  H120     1.0000 0.83115  0.16885  0.37720  Biso   1.000  H
