data_SEGBIR_clean
_audit_creation_date              2014-07-02
_audit_creation_method            'Materials Studio'
_symmetry_space_group_name_H-M    'P1'
_symmetry_Int_Tables_number       1
_symmetry_cell_setting            triclinic
loop_
_symmetry_equiv_pos_as_xyz
  x,y,z
_cell_length_a                    4.8013
_cell_length_b                    19.4951
_cell_length_c                    19.4951
_cell_angle_alpha                 60.6666
_cell_angle_beta                  85.2910
_cell_angle_gamma                 94.7090
loop_
_atom_site_label
_atom_site_type_symbol
_atom_site_fract_x
_atom_site_fract_y
_atom_site_fract_z
_atom_site_U_iso_or_equiv
_atom_site_adp_type
_atom_site_occupancy
Cu1    Cu    0.50000   0.50000   0.50000   0.01267  Uiso   1.00
Cu2    Cu    0.00000   0.50000  -0.00000   0.01267  Uiso   1.00
Cu3    Cu    0.00000   0.00000   0.50000   0.01267  Uiso   1.00
H1     H     0.51700   0.55750   0.62940   0.01267  Uiso   1.00
H2     H     0.18460   0.34020   0.74090   0.01267  Uiso   1.00
H3     H     0.70870   0.52510   0.78210   0.01267  Uiso   1.00
H4     H     0.22800   0.35480   0.85120   0.01267  Uiso   1.00
H5     H     0.91630   0.40980   0.59990   0.01267  Uiso   1.00
H6     H     0.14640   0.62940   0.81310   0.01267  Uiso   1.00
H7     H     0.92550   0.74090   0.91890   0.01267  Uiso   1.00
H8     H     0.49080   0.78210   0.69280   0.01267  Uiso   1.00
H9     H     0.07920   0.85120   0.79400   0.01267  Uiso   1.00
H10    H     0.51620   0.59990   0.99030   0.01267  Uiso   1.00
H11    H     0.95950   0.81310   0.55750   0.01267  Uiso   1.00
H12    H     0.84440   0.91890   0.34020   0.01267  Uiso   1.00
H13    H     0.18360   0.69280   0.52510   0.01267  Uiso   1.00
H14    H     0.87320   0.79400   0.35480   0.01267  Uiso   1.00
H15    H     0.50650   0.99030   0.40980   0.01267  Uiso   1.00
H16    H     0.48300   0.44250   0.37060   0.01267  Uiso   1.00
H17    H     0.81540   0.65980   0.25910   0.01267  Uiso   1.00
H18    H     0.29130   0.47490   0.21790   0.01267  Uiso   1.00
H19    H     0.77200   0.64520   0.14880   0.01267  Uiso   1.00
H20    H     0.08370   0.59020   0.40010   0.01267  Uiso   1.00
H21    H     0.85360   0.37060   0.18690   0.01267  Uiso   1.00
H22    H     0.07450   0.25910   0.08110   0.01267  Uiso   1.00
H23    H     0.50920   0.21790   0.30720   0.01267  Uiso   1.00
H24    H     0.92080   0.14880   0.20600   0.01267  Uiso   1.00
H25    H     0.48380   0.40010   0.00970   0.01267  Uiso   1.00
H26    H     0.04050   0.18690   0.44250   0.01267  Uiso   1.00
H27    H     0.15560   0.08110   0.65980   0.01267  Uiso   1.00
H28    H     0.81640   0.30720   0.47490   0.01267  Uiso   1.00
H29    H     0.12680   0.20600   0.64520   0.01267  Uiso   1.00
H30    H     0.49350   0.00970   0.59020   0.01267  Uiso   1.00
C1     C     0.63185   0.51692   0.63937   0.01267  Uiso   1.00
C2     C     0.97179   0.44069   0.82672   0.01267  Uiso   1.00
C3     C     0.09014   0.37715   0.74893   0.01267  Uiso   1.00
C4     C     0.80397   0.48851   0.77350   0.01267  Uiso   1.00
C5     C     0.77979   0.48125   0.70558   0.01267  Uiso   1.00
C6     C     0.11289   0.38620   0.81363   0.01267  Uiso   1.00
C7     C     0.91856   0.42593   0.69475   0.01267  Uiso   1.00
C8     C     0.56362   0.65371   0.44715   0.01267  Uiso   1.00
C9     C     0.27122   0.63937   0.84371   0.01267  Uiso   1.00
C10    C     0.79851   0.82672   0.73259   0.01267  Uiso   1.00
C11    C     0.83907   0.74893   0.87392   0.01267  Uiso   1.00
C12    C     0.57747   0.77350   0.73799   0.01267  Uiso   1.00
C13    C     0.48537   0.70558   0.81317   0.01267  Uiso   1.00
C14    C     0.92652   0.81363   0.80017   0.01267  Uiso   1.00
C15    C     0.61331   0.69475   0.87932   0.01267  Uiso   1.00
C16    C     0.01077   0.44715   0.89914   0.01267  Uiso   1.00
C17    C     0.11493   0.84371   0.51692   0.01267  Uiso   1.00
C18    C     0.53110   0.73259   0.44069   0.01267  Uiso   1.00
C19    C     0.71299   0.87392   0.37715   0.01267  Uiso   1.00
C20    C     0.31546   0.73799   0.48851   0.01267  Uiso   1.00
C21    C     0.29854   0.81317   0.48125   0.01267  Uiso   1.00
C22    C     0.72669   0.80017   0.38620   0.01267  Uiso   1.00
C23    C     0.49263   0.87932   0.42593   0.01267  Uiso   1.00
C24    C     0.90991   0.89914   0.65371   0.01267  Uiso   1.00
C25    C     0.36815   0.48308   0.36063   0.01267  Uiso   1.00
C26    C     0.02821   0.55931   0.17328   0.01267  Uiso   1.00
C27    C     0.90986   0.62285   0.25107   0.01267  Uiso   1.00
C28    C     0.19603   0.51149   0.22650   0.01267  Uiso   1.00
C29    C     0.22021   0.51875   0.29442   0.01267  Uiso   1.00
C30    C     0.88711   0.61380   0.18637   0.01267  Uiso   1.00
C31    C     0.08144   0.57407   0.30525   0.01267  Uiso   1.00
C32    C     0.43638   0.34629   0.55285   0.01267  Uiso   1.00
C33    C     0.72878   0.36063   0.15629   0.01267  Uiso   1.00
C34    C     0.20149   0.17328   0.26741   0.01267  Uiso   1.00
C35    C     0.16093   0.25107   0.12608   0.01267  Uiso   1.00
C36    C     0.42253   0.22650   0.26201   0.01267  Uiso   1.00
C37    C     0.51463   0.29442   0.18683   0.01267  Uiso   1.00
C38    C     0.07348   0.18637   0.19983   0.01267  Uiso   1.00
C39    C     0.38669   0.30525   0.12068   0.01267  Uiso   1.00
C40    C     0.98923   0.55285   0.10086   0.01267  Uiso   1.00
C41    C     0.88507   0.15629   0.48308   0.01267  Uiso   1.00
C42    C     0.46890   0.26741   0.55931   0.01267  Uiso   1.00
C43    C     0.28701   0.12608   0.62285   0.01267  Uiso   1.00
C44    C     0.68454   0.26201   0.51149   0.01267  Uiso   1.00
C45    C     0.70146   0.18683   0.51875   0.01267  Uiso   1.00
C46    C     0.27331   0.19983   0.61380   0.01267  Uiso   1.00
C47    C     0.50737   0.12068   0.57407   0.01267  Uiso   1.00
C48    C     0.09009   0.10086   0.34629   0.01267  Uiso   1.00
N1     N     0.67716   0.48569   0.59341   0.01267  Uiso   1.00
N2     N     0.85037   0.43012   0.62721   0.01267  Uiso   1.00
N3     N     0.27057   0.59341   0.92090   0.01267  Uiso   1.00
N4     N     0.47758   0.62721   0.94267   0.01267  Uiso   1.00
N5     N     0.19147   0.92090   0.48569   0.01267  Uiso   1.00
N6     N     0.42025   0.94267   0.43012   0.01267  Uiso   1.00
N7     N     0.32284   0.51431   0.40659   0.01267  Uiso   1.00
N8     N     0.14963   0.56988   0.37279   0.01267  Uiso   1.00
N9     N     0.72943   0.40659   0.07910   0.01267  Uiso   1.00
N10    N     0.52242   0.37279   0.05733   0.01267  Uiso   1.00
N11    N     0.80853   0.07910   0.51431   0.01267  Uiso   1.00
N12    N     0.57975   0.05733   0.56988   0.01267  Uiso   1.00
O1     O     0.37097   0.59584   0.49173   0.01267  Uiso   1.00
O2     O     0.77477   0.64811   0.40990   0.01267  Uiso   1.00
O3     O     0.86270   0.49173   0.91243   0.01267  Uiso   1.00
O4     O     0.18467   0.40990   0.94199   0.01267  Uiso   1.00
O5     O     0.77513   0.91243   0.59584   0.01267  Uiso   1.00
O6     O     0.12666   0.94199   0.64811   0.01267  Uiso   1.00
O7     O     0.62903   0.40416   0.50827   0.01267  Uiso   1.00
O8     O     0.22523   0.35189   0.59010   0.01267  Uiso   1.00
O9     O     0.13730   0.50827   0.08757   0.01267  Uiso   1.00
O10    O     0.81533   0.59010   0.05801   0.01267  Uiso   1.00
O11    O     0.22487   0.08757   0.40416   0.01267  Uiso   1.00
O12    O     0.87334   0.05801   0.35189   0.01267  Uiso   1.00
