data_image0
_cell_length_a       13.868
_cell_length_b       26.591
_cell_length_c       7.84
_cell_angle_alpha    90
_cell_angle_beta     90
_cell_angle_gamma    90

_symmetry_space_group_name_H-M    "P 1"
_symmetry_int_tables_number       1

loop_
  _symmetry_equiv_pos_as_xyz
  'x, y, z'

loop_
  _atom_site_label
  _atom_site_occupancy
  _atom_site_fract_x
  _atom_site_fract_y
  _atom_site_fract_z
  _atom_site_thermal_displace_type
  _atom_site_B_iso_or_equiv
  _atom_site_type_symbol
  Cd1      1.0000 0.67515  0.50000  0.62130  Biso   1.000  Cd
  Cd2      1.0000 0.75433  0.76473  0.61800  Biso   1.000  Cd
  Ni1      1.0000 0.73270  0.63186  0.11080  Biso   1.000  Ni
  N1       1.0000 0.70100  0.55640  0.83400  Biso   1.000  N
  N2       1.0000 0.69400  0.55570  0.38300  Biso   1.000  N
  N3       1.0000 0.83160  0.46720  0.60500  Biso   1.000  N
  N4       1.0000 0.63900  0.44070  0.40500  Biso   1.000  N
  N5       1.0000 0.50750  0.50320  0.59300  Biso   1.000  N
  N6       1.0000 0.76400  0.71120  0.83800  Biso   1.000  N
  N7       1.0000 0.76900  0.70750  0.39500  Biso   1.000  N
  N8       1.0000 0.90800  0.79870  0.61800  Biso   1.000  N
  N9       1.0000 0.72300  0.82400  0.39500  Biso   1.000  N
  N10      1.0000 0.58400  0.75870  0.57500  Biso   1.000  N
  C1       1.0000 0.71100  0.58410  0.94000  Biso   1.000  C
  C2       1.0000 0.70900  0.58410  0.27400  Biso   1.000  C
  C3       1.0000 0.88100  0.43440  0.56400  Biso   1.000  C
  C4       1.0000 0.75400  0.68130  0.94300  Biso   1.000  C
  C5       1.0000 0.75800  0.67880  0.29000  Biso   1.000  C
  C6       1.0000 0.95800  0.82930  0.57300  Biso   1.000  C
  C7       1.0000 0.53800  0.44600  0.35700  Biso   1.000  C
  C8       1.0000 0.47700  0.46400  0.46500  Biso   1.000  C
  C9       1.0000 0.36900  0.46720  0.43200  Biso   1.000  C
  C10      1.0000 0.61800  0.82400  0.35700  Biso   1.000  C
  C11      1.0000 0.55400  0.79500  0.45600  Biso   1.000  C
  C12      1.0000 0.44900  0.79600  0.40200  Biso   1.000  C
  Cd3      1.0000 0.32485  0.00000  0.37870  Biso   1.000  Cd
  Cd4      1.0000 0.24567  0.26473  0.38200  Biso   1.000  Cd
  Ni2      1.0000 0.26730  0.13186  0.88920  Biso   1.000  Ni
  N11      1.0000 0.29900  0.05640  0.16600  Biso   1.000  N
  N12      1.0000 0.30600  0.05570  0.61700  Biso   1.000  N
  N13      1.0000 0.16840  0.96720  0.39500  Biso   1.000  N
  N14      1.0000 0.36100  0.94070  0.59500  Biso   1.000  N
  N15      1.0000 0.49250  0.00320  0.40700  Biso   1.000  N
  N16      1.0000 0.23600  0.21120  0.16200  Biso   1.000  N
  N17      1.0000 0.23100  0.20750  0.60500  Biso   1.000  N
  N18      1.0000 0.09200  0.29870  0.38200  Biso   1.000  N
  N19      1.0000 0.27700  0.32400  0.60500  Biso   1.000  N
  N20      1.0000 0.41600  0.25870  0.42500  Biso   1.000  N
  C13      1.0000 0.28900  0.08410  0.06000  Biso   1.000  C
  C14      1.0000 0.29100  0.08410  0.72600  Biso   1.000  C
  C15      1.0000 0.11900  0.93440  0.43600  Biso   1.000  C
  C16      1.0000 0.24600  0.18130  0.05700  Biso   1.000  C
  C17      1.0000 0.24200  0.17880  0.71000  Biso   1.000  C
  C18      1.0000 0.04200  0.32930  0.42700  Biso   1.000  C
  C19      1.0000 0.46200  0.94600  0.64300  Biso   1.000  C
  C20      1.0000 0.52300  0.96400  0.53500  Biso   1.000  C
  C21      1.0000 0.63100  0.96720  0.56800  Biso   1.000  C
  C22      1.0000 0.38200  0.32400  0.64300  Biso   1.000  C
  C23      1.0000 0.44600  0.29500  0.54400  Biso   1.000  C
  C24      1.0000 0.55100  0.29600  0.59800  Biso   1.000  C
  Ni3      1.0000 0.96210  0.38259  0.49450  Biso   1.000  Ni
  N21      1.0000 0.13100  0.43390  0.66300  Biso   1.000  N
  N22      1.0000 0.20810  0.83210  0.67500  Biso   1.000  N
  C25      1.0000 0.06700  0.41500  0.59300  Biso   1.000  C
  C26      1.0000 0.14600  0.85120  0.60500  Biso   1.000  C
  Ni4      1.0000 0.03790  0.88259  0.50550  Biso   1.000  Ni
  N23      1.0000 0.86900  0.93390  0.33700  Biso   1.000  N
  N24      1.0000 0.79190  0.33210  0.32500  Biso   1.000  N
  C27      1.0000 0.93300  0.91500  0.40700  Biso   1.000  C
  C28      1.0000 0.85400  0.35120  0.39500  Biso   1.000  C
  Ni5      1.0000 0.46210  0.38259  0.00550  Biso   1.000  Ni
  N25      1.0000 0.63100  0.43390  0.83700  Biso   1.000  N
  N26      1.0000 0.70810  0.83210  0.82500  Biso   1.000  N
  C29      1.0000 0.56700  0.41500  0.90700  Biso   1.000  C
  C30      1.0000 0.64600  0.85120  0.89500  Biso   1.000  C
  Ni6      1.0000 0.53790  0.88259  0.99450  Biso   1.000  Ni
  N27      1.0000 0.36900  0.93390  0.16300  Biso   1.000  N
  N28      1.0000 0.29190  0.33210  0.17500  Biso   1.000  N
  C31      1.0000 0.43300  0.91500  0.09300  Biso   1.000  C
  C32      1.0000 0.35400  0.35120  0.10500  Biso   1.000  C
  Cd5      1.0000 0.17515  0.50000  0.87870  Biso   1.000  Cd
  Cd6      1.0000 0.25433  0.76473  0.88200  Biso   1.000  Cd
  Ni7      1.0000 0.23270  0.63186  0.38920  Biso   1.000  Ni
  N29      1.0000 0.20100  0.55640  0.66600  Biso   1.000  N
  N30      1.0000 0.19400  0.55570  0.11700  Biso   1.000  N
  N31      1.0000 0.33160  0.46720  0.89500  Biso   1.000  N
  N32      1.0000 0.13900  0.44070  0.09500  Biso   1.000  N
  N33      1.0000 0.00750  0.50320  0.90700  Biso   1.000  N
  N34      1.0000 0.26400  0.71120  0.66200  Biso   1.000  N
  N35      1.0000 0.26900  0.70750  0.10500  Biso   1.000  N
  N36      1.0000 0.40800  0.79870  0.88200  Biso   1.000  N
  N37      1.0000 0.22300  0.82400  0.10500  Biso   1.000  N
  N38      1.0000 0.08400  0.75870  0.92500  Biso   1.000  N
  C33      1.0000 0.21100  0.58410  0.56000  Biso   1.000  C
  C34      1.0000 0.20900  0.58410  0.22600  Biso   1.000  C
  C35      1.0000 0.38100  0.43440  0.93600  Biso   1.000  C
  C36      1.0000 0.25400  0.68130  0.55700  Biso   1.000  C
  C37      1.0000 0.25800  0.67880  0.21000  Biso   1.000  C
  C38      1.0000 0.45800  0.82930  0.92700  Biso   1.000  C
  C39      1.0000 0.03800  0.44600  0.14300  Biso   1.000  C
  C40      1.0000 0.97700  0.46400  0.03500  Biso   1.000  C
  C41      1.0000 0.86900  0.46720  0.06800  Biso   1.000  C
  C42      1.0000 0.11800  0.82400  0.14300  Biso   1.000  C
  C43      1.0000 0.05400  0.79500  0.04400  Biso   1.000  C
  C44      1.0000 0.94900  0.79600  0.09800  Biso   1.000  C
  Cd7      1.0000 0.82485  0.00000  0.12130  Biso   1.000  Cd
  Cd8      1.0000 0.74567  0.26473  0.11800  Biso   1.000  Cd
  Ni8      1.0000 0.76730  0.13186  0.61080  Biso   1.000  Ni
  N39      1.0000 0.79900  0.05640  0.33400  Biso   1.000  N
  N40      1.0000 0.80600  0.05570  0.88300  Biso   1.000  N
  N41      1.0000 0.66840  0.96720  0.10500  Biso   1.000  N
  N42      1.0000 0.86100  0.94070  0.90500  Biso   1.000  N
  N43      1.0000 0.99250  0.00320  0.09300  Biso   1.000  N
  N44      1.0000 0.73600  0.21120  0.33800  Biso   1.000  N
  N45      1.0000 0.73100  0.20750  0.89500  Biso   1.000  N
  N46      1.0000 0.59200  0.29870  0.11800  Biso   1.000  N
  N47      1.0000 0.77700  0.32400  0.89500  Biso   1.000  N
  N48      1.0000 0.91600  0.25870  0.07500  Biso   1.000  N
  C45      1.0000 0.78900  0.08410  0.44000  Biso   1.000  C
  C46      1.0000 0.79100  0.08410  0.77400  Biso   1.000  C
  C47      1.0000 0.61900  0.93440  0.06400  Biso   1.000  C
  C48      1.0000 0.74600  0.18130  0.44300  Biso   1.000  C
  C49      1.0000 0.74200  0.17880  0.79000  Biso   1.000  C
  C50      1.0000 0.54200  0.32930  0.07300  Biso   1.000  C
  C51      1.0000 0.96200  0.94600  0.85700  Biso   1.000  C
  C52      1.0000 0.02300  0.96400  0.96500  Biso   1.000  C
  C53      1.0000 0.13100  0.96720  0.93200  Biso   1.000  C
  C54      1.0000 0.88200  0.32400  0.85700  Biso   1.000  C
  C55      1.0000 0.94600  0.29500  0.95600  Biso   1.000  C
  C56      1.0000 0.05100  0.29600  0.90200  Biso   1.000  C
