data_image0
_cell_length_a       25.16
_cell_length_b       22.2
_cell_length_c       13.623
_cell_angle_alpha    90
_cell_angle_beta     90
_cell_angle_gamma    90

_symmetry_space_group_name_H-M    "P 1"
_symmetry_int_tables_number       1

loop_
  _symmetry_equiv_pos_as_xyz
  'x, y, z'

loop_
  _atom_site_label
  _atom_site_occupancy
  _atom_site_fract_x
  _atom_site_fract_y
  _atom_site_fract_z
  _atom_site_thermal_displace_type
  _atom_site_B_iso_or_equiv
  _atom_site_type_symbol
  Eu1      1.0000 0.96695  0.17145  0.48257  Biso   1.000  Eu
  Ru1      1.0000 0.64885  0.30141  0.25917  Biso   1.000  Ru
  Ru2      1.0000 0.87055  0.34885  0.26090  Biso   1.000  Ru
  C1       1.0000 0.75780  0.33810  0.31190  Biso   1.000  C
  C2       1.0000 0.79680  0.39050  0.43550  Biso   1.000  C
  H1       1.0000 0.82680  0.40630  0.46610  Biso   1.000  H
  C3       1.0000 0.74780  0.39860  0.47800  Biso   1.000  C
  H2       1.0000 0.74440  0.41980  0.53650  Biso   1.000  H
  C4       1.0000 0.70370  0.37460  0.43240  Biso   1.000  C
  H3       1.0000 0.67030  0.38010  0.46030  Biso   1.000  H
  C5       1.0000 0.76350  0.30430  0.21920  Biso   1.000  C
  C6       1.0000 0.81690  0.26820  0.09790  Biso   1.000  C
  H4       1.0000 0.85040  0.26320  0.07030  Biso   1.000  H
  C7       1.0000 0.77350  0.24270  0.05230  Biso   1.000  C
  H5       1.0000 0.77740  0.22070  0.99460  Biso   1.000  H
  C8       1.0000 0.72380  0.25070  0.09490  Biso   1.000  C
  H6       1.0000 0.69390  0.23440  0.06480  Biso   1.000  H
  C9       1.0000 0.65530  0.22060  0.33200  Biso   1.000  C
  C10      1.0000 0.89800  0.26020  0.66490  Biso   1.000  C
  C11      1.0000 0.08640  0.17730  0.34120  Biso   1.000  C
  C12      1.0000 0.64110  0.38040  0.18630  Biso   1.000  C
  C13      1.0000 0.89630  0.27380  0.32960  Biso   1.000  C
  C14      1.0000 0.93000  0.33630  0.16820  Biso   1.000  C
  C15      1.0000 0.91660  0.39700  0.34860  Biso   1.000  C
  C16      1.0000 0.84900  0.42460  0.18580  Biso   1.000  C
  N1       1.0000 0.80229  0.36030  0.35050  Biso   1.000  N
  N2       1.0000 0.70818  0.34300  0.34750  Biso   1.000  N
  N3       1.0000 0.81222  0.29970  0.18040  Biso   1.000  N
  N4       1.0000 0.71834  0.28190  0.17970  Biso   1.000  N
  N5       1.0000 0.65850  0.17560  0.37090  Biso   1.000  N
  N6       1.0000 0.92360  0.23220  0.60920  Biso   1.000  N
  N7       1.0000 0.04970  0.16630  0.38840  Biso   1.000  N
  N8       1.0000 0.63630  0.42620  0.14510  Biso   1.000  N
  N9       1.0000 0.91390  0.23100  0.36630  Biso   1.000  N
  N10      1.0000 0.96500  0.32880  0.11660  Biso   1.000  N
  N11      1.0000 0.94210  0.42550  0.40140  Biso   1.000  N
  N12      1.0000 0.83700  0.46750  0.14490  Biso   1.000  N
  O1       1.0000 0.99890  0.06830  0.50900  Biso   1.000  O
  O2       1.0000 0.04690  0.41840  0.07550  Biso   1.000  O
  Eu2      1.0000 0.96695  0.67145  0.98257  Biso   1.000  Eu
  Ru3      1.0000 0.64885  0.80141  0.75917  Biso   1.000  Ru
  Ru4      1.0000 0.87055  0.84885  0.76090  Biso   1.000  Ru
  C17      1.0000 0.75780  0.83810  0.81190  Biso   1.000  C
  C18      1.0000 0.79680  0.89050  0.93550  Biso   1.000  C
  H7       1.0000 0.82680  0.90630  0.96610  Biso   1.000  H
  C19      1.0000 0.74780  0.89860  0.97800  Biso   1.000  C
  H8       1.0000 0.74440  0.91980  0.03650  Biso   1.000  H
  C20      1.0000 0.70370  0.87460  0.93240  Biso   1.000  C
  H9       1.0000 0.67030  0.88010  0.96030  Biso   1.000  H
  C21      1.0000 0.76350  0.80430  0.71920  Biso   1.000  C
  C22      1.0000 0.81690  0.76820  0.59790  Biso   1.000  C
  H10      1.0000 0.85040  0.76320  0.57030  Biso   1.000  H
  C23      1.0000 0.77350  0.74270  0.55230  Biso   1.000  C
  H11      1.0000 0.77740  0.72070  0.49460  Biso   1.000  H
  C24      1.0000 0.72380  0.75070  0.59490  Biso   1.000  C
  H12      1.0000 0.69390  0.73440  0.56480  Biso   1.000  H
  C25      1.0000 0.65530  0.72060  0.83200  Biso   1.000  C
  C26      1.0000 0.89800  0.76020  0.16490  Biso   1.000  C
  C27      1.0000 0.08640  0.67730  0.84120  Biso   1.000  C
  C28      1.0000 0.64110  0.88040  0.68630  Biso   1.000  C
  C29      1.0000 0.89630  0.77380  0.82960  Biso   1.000  C
  C30      1.0000 0.93000  0.83630  0.66820  Biso   1.000  C
  C31      1.0000 0.91660  0.89700  0.84860  Biso   1.000  C
  C32      1.0000 0.84900  0.92460  0.68580  Biso   1.000  C
  N13      1.0000 0.80229  0.86030  0.85050  Biso   1.000  N
  N14      1.0000 0.70818  0.84300  0.84750  Biso   1.000  N
  N15      1.0000 0.81222  0.79970  0.68040  Biso   1.000  N
  N16      1.0000 0.71834  0.78190  0.67970  Biso   1.000  N
  N17      1.0000 0.65850  0.67560  0.87090  Biso   1.000  N
  N18      1.0000 0.92360  0.73220  0.10920  Biso   1.000  N
  N19      1.0000 0.04970  0.66630  0.88840  Biso   1.000  N
  N20      1.0000 0.63630  0.92620  0.64510  Biso   1.000  N
  N21      1.0000 0.91390  0.73100  0.86630  Biso   1.000  N
  N22      1.0000 0.96500  0.82880  0.61660  Biso   1.000  N
  N23      1.0000 0.94210  0.92550  0.90140  Biso   1.000  N
  N24      1.0000 0.83700  0.96750  0.64490  Biso   1.000  N
  O3       1.0000 0.99890  0.56830  0.00900  Biso   1.000  O
  O4       1.0000 0.04690  0.91840  0.57550  Biso   1.000  O
  Eu3      1.0000 0.03305  0.82855  0.48257  Biso   1.000  Eu
  Ru5      1.0000 0.35115  0.69859  0.25917  Biso   1.000  Ru
  Ru6      1.0000 0.12945  0.65115  0.26090  Biso   1.000  Ru
  C33      1.0000 0.24220  0.66190  0.31190  Biso   1.000  C
  C34      1.0000 0.20320  0.60950  0.43550  Biso   1.000  C
  H13      1.0000 0.17320  0.59370  0.46610  Biso   1.000  H
  C35      1.0000 0.25220  0.60140  0.47800  Biso   1.000  C
  H14      1.0000 0.25560  0.58020  0.53650  Biso   1.000  H
  C36      1.0000 0.29630  0.62540  0.43240  Biso   1.000  C
  H15      1.0000 0.32970  0.61990  0.46030  Biso   1.000  H
  C37      1.0000 0.23650  0.69570  0.21920  Biso   1.000  C
  C38      1.0000 0.18310  0.73180  0.09790  Biso   1.000  C
  H16      1.0000 0.14960  0.73680  0.07030  Biso   1.000  H
  C39      1.0000 0.22650  0.75730  0.05230  Biso   1.000  C
  H17      1.0000 0.22260  0.77930  0.99460  Biso   1.000  H
  C40      1.0000 0.27620  0.74930  0.09490  Biso   1.000  C
  H18      1.0000 0.30610  0.76560  0.06480  Biso   1.000  H
  C41      1.0000 0.34470  0.77940  0.33200  Biso   1.000  C
  C42      1.0000 0.10200  0.73980  0.66490  Biso   1.000  C
  C43      1.0000 0.91360  0.82270  0.34120  Biso   1.000  C
  C44      1.0000 0.35890  0.61960  0.18630  Biso   1.000  C
  C45      1.0000 0.10370  0.72620  0.32960  Biso   1.000  C
  C46      1.0000 0.07000  0.66370  0.16820  Biso   1.000  C
  C47      1.0000 0.08340  0.60300  0.34860  Biso   1.000  C
  C48      1.0000 0.15100  0.57540  0.18580  Biso   1.000  C
  N25      1.0000 0.19771  0.63970  0.35050  Biso   1.000  N
  N26      1.0000 0.29182  0.65700  0.34750  Biso   1.000  N
  N27      1.0000 0.18778  0.70030  0.18040  Biso   1.000  N
  N28      1.0000 0.28166  0.71810  0.17970  Biso   1.000  N
  N29      1.0000 0.34150  0.82440  0.37090  Biso   1.000  N
  N30      1.0000 0.07640  0.76780  0.60920  Biso   1.000  N
  N31      1.0000 0.95030  0.83370  0.38840  Biso   1.000  N
  N32      1.0000 0.36370  0.57380  0.14510  Biso   1.000  N
  N33      1.0000 0.08610  0.76900  0.36630  Biso   1.000  N
  N34      1.0000 0.03500  0.67120  0.11660  Biso   1.000  N
  N35      1.0000 0.05790  0.57450  0.40140  Biso   1.000  N
  N36      1.0000 0.16300  0.53250  0.14490  Biso   1.000  N
  O5       1.0000 0.00110  0.93170  0.50900  Biso   1.000  O
  O6       1.0000 0.95310  0.58160  0.07550  Biso   1.000  O
  Eu4      1.0000 0.03305  0.32855  0.98257  Biso   1.000  Eu
  Ru7      1.0000 0.35115  0.19859  0.75917  Biso   1.000  Ru
  Ru8      1.0000 0.12945  0.15115  0.76090  Biso   1.000  Ru
  C49      1.0000 0.24220  0.16190  0.81190  Biso   1.000  C
  C50      1.0000 0.20320  0.10950  0.93550  Biso   1.000  C
  H19      1.0000 0.17320  0.09370  0.96610  Biso   1.000  H
  C51      1.0000 0.25220  0.10140  0.97800  Biso   1.000  C
  H20      1.0000 0.25560  0.08020  0.03650  Biso   1.000  H
  C52      1.0000 0.29630  0.12540  0.93240  Biso   1.000  C
  H21      1.0000 0.32970  0.11990  0.96030  Biso   1.000  H
  C53      1.0000 0.23650  0.19570  0.71920  Biso   1.000  C
  C54      1.0000 0.18310  0.23180  0.59790  Biso   1.000  C
  H22      1.0000 0.14960  0.23680  0.57030  Biso   1.000  H
  C55      1.0000 0.22650  0.25730  0.55230  Biso   1.000  C
  H23      1.0000 0.22260  0.27930  0.49460  Biso   1.000  H
  C56      1.0000 0.27620  0.24930  0.59490  Biso   1.000  C
  H24      1.0000 0.30610  0.26560  0.56480  Biso   1.000  H
  C57      1.0000 0.34470  0.27940  0.83200  Biso   1.000  C
  C58      1.0000 0.10200  0.23980  0.16490  Biso   1.000  C
  C59      1.0000 0.91360  0.32270  0.84120  Biso   1.000  C
  C60      1.0000 0.35890  0.11960  0.68630  Biso   1.000  C
  C61      1.0000 0.10370  0.22620  0.82960  Biso   1.000  C
  C62      1.0000 0.07000  0.16370  0.66820  Biso   1.000  C
  C63      1.0000 0.08340  0.10300  0.84860  Biso   1.000  C
  C64      1.0000 0.15100  0.07540  0.68580  Biso   1.000  C
  N37      1.0000 0.19771  0.13970  0.85050  Biso   1.000  N
  N38      1.0000 0.29182  0.15700  0.84750  Biso   1.000  N
  N39      1.0000 0.18778  0.20030  0.68040  Biso   1.000  N
  N40      1.0000 0.28166  0.21810  0.67970  Biso   1.000  N
  N41      1.0000 0.34150  0.32440  0.87090  Biso   1.000  N
  N42      1.0000 0.07640  0.26780  0.10920  Biso   1.000  N
  N43      1.0000 0.95030  0.33370  0.88840  Biso   1.000  N
  N44      1.0000 0.36370  0.07380  0.64510  Biso   1.000  N
  N45      1.0000 0.08610  0.26900  0.86630  Biso   1.000  N
  N46      1.0000 0.03500  0.17120  0.61660  Biso   1.000  N
  N47      1.0000 0.05790  0.07450  0.90140  Biso   1.000  N
  N48      1.0000 0.16300  0.03250  0.64490  Biso   1.000  N
  O7       1.0000 0.00110  0.43170  0.00900  Biso   1.000  O
  O8       1.0000 0.95310  0.08160  0.57550  Biso   1.000  O
  Eu5      1.0000 0.46695  0.32855  0.48257  Biso   1.000  Eu
  Ru9      1.0000 0.14885  0.19859  0.25917  Biso   1.000  Ru
  Ru10     1.0000 0.37055  0.15115  0.26090  Biso   1.000  Ru
  C65      1.0000 0.25780  0.16190  0.31190  Biso   1.000  C
  C66      1.0000 0.29680  0.10950  0.43550  Biso   1.000  C
  H25      1.0000 0.32680  0.09370  0.46610  Biso   1.000  H
  C67      1.0000 0.24780  0.10140  0.47800  Biso   1.000  C
  H26      1.0000 0.24440  0.08020  0.53650  Biso   1.000  H
  C68      1.0000 0.20370  0.12540  0.43240  Biso   1.000  C
  H27      1.0000 0.17030  0.11990  0.46030  Biso   1.000  H
  C69      1.0000 0.26350  0.19570  0.21920  Biso   1.000  C
  C70      1.0000 0.31690  0.23180  0.09790  Biso   1.000  C
  H28      1.0000 0.35040  0.23680  0.07030  Biso   1.000  H
  C71      1.0000 0.27350  0.25730  0.05230  Biso   1.000  C
  H29      1.0000 0.27740  0.27930  0.99460  Biso   1.000  H
  C72      1.0000 0.22380  0.24930  0.09490  Biso   1.000  C
  H30      1.0000 0.19390  0.26560  0.06480  Biso   1.000  H
  C73      1.0000 0.15530  0.27940  0.33200  Biso   1.000  C
  C74      1.0000 0.39800  0.23980  0.66490  Biso   1.000  C
  C75      1.0000 0.58640  0.32270  0.34120  Biso   1.000  C
  C76      1.0000 0.14110  0.11960  0.18630  Biso   1.000  C
  C77      1.0000 0.39630  0.22620  0.32960  Biso   1.000  C
  C78      1.0000 0.43000  0.16370  0.16820  Biso   1.000  C
  C79      1.0000 0.41660  0.10300  0.34860  Biso   1.000  C
  C80      1.0000 0.34900  0.07540  0.18580  Biso   1.000  C
  N49      1.0000 0.30229  0.13970  0.35050  Biso   1.000  N
  N50      1.0000 0.20818  0.15700  0.34750  Biso   1.000  N
  N51      1.0000 0.31222  0.20030  0.18040  Biso   1.000  N
  N52      1.0000 0.21834  0.21810  0.17970  Biso   1.000  N
  N53      1.0000 0.15850  0.32440  0.37090  Biso   1.000  N
  N54      1.0000 0.42360  0.26780  0.60920  Biso   1.000  N
  N55      1.0000 0.54970  0.33370  0.38840  Biso   1.000  N
  N56      1.0000 0.13630  0.07380  0.14510  Biso   1.000  N
  N57      1.0000 0.41390  0.26900  0.36630  Biso   1.000  N
  N58      1.0000 0.46500  0.17120  0.11660  Biso   1.000  N
  N59      1.0000 0.44210  0.07450  0.40140  Biso   1.000  N
  N60      1.0000 0.33700  0.03250  0.14490  Biso   1.000  N
  O9       1.0000 0.49890  0.43170  0.50900  Biso   1.000  O
  O10      1.0000 0.54690  0.08160  0.07550  Biso   1.000  O
  Eu6      1.0000 0.46695  0.82855  0.98257  Biso   1.000  Eu
  Ru11     1.0000 0.14885  0.69859  0.75917  Biso   1.000  Ru
  Ru12     1.0000 0.37055  0.65115  0.76090  Biso   1.000  Ru
  C81      1.0000 0.25780  0.66190  0.81190  Biso   1.000  C
  C82      1.0000 0.29680  0.60950  0.93550  Biso   1.000  C
  H31      1.0000 0.32680  0.59370  0.96610  Biso   1.000  H
  C83      1.0000 0.24780  0.60140  0.97800  Biso   1.000  C
  H32      1.0000 0.24440  0.58020  0.03650  Biso   1.000  H
  C84      1.0000 0.20370  0.62540  0.93240  Biso   1.000  C
  H33      1.0000 0.17030  0.61990  0.96030  Biso   1.000  H
  C85      1.0000 0.26350  0.69570  0.71920  Biso   1.000  C
  C86      1.0000 0.31690  0.73180  0.59790  Biso   1.000  C
  H34      1.0000 0.35040  0.73680  0.57030  Biso   1.000  H
  C87      1.0000 0.27350  0.75730  0.55230  Biso   1.000  C
  H35      1.0000 0.27740  0.77930  0.49460  Biso   1.000  H
  C88      1.0000 0.22380  0.74930  0.59490  Biso   1.000  C
  H36      1.0000 0.19390  0.76560  0.56480  Biso   1.000  H
  C89      1.0000 0.15530  0.77940  0.83200  Biso   1.000  C
  C90      1.0000 0.39800  0.73980  0.16490  Biso   1.000  C
  C91      1.0000 0.58640  0.82270  0.84120  Biso   1.000  C
  C92      1.0000 0.14110  0.61960  0.68630  Biso   1.000  C
  C93      1.0000 0.39630  0.72620  0.82960  Biso   1.000  C
  C94      1.0000 0.43000  0.66370  0.66820  Biso   1.000  C
  C95      1.0000 0.41660  0.60300  0.84860  Biso   1.000  C
  C96      1.0000 0.34900  0.57540  0.68580  Biso   1.000  C
  N61      1.0000 0.30229  0.63970  0.85050  Biso   1.000  N
  N62      1.0000 0.20818  0.65700  0.84750  Biso   1.000  N
  N63      1.0000 0.31222  0.70030  0.68040  Biso   1.000  N
  N64      1.0000 0.21834  0.71810  0.67970  Biso   1.000  N
  N65      1.0000 0.15850  0.82440  0.87090  Biso   1.000  N
  N66      1.0000 0.42360  0.76780  0.10920  Biso   1.000  N
  N67      1.0000 0.54970  0.83370  0.88840  Biso   1.000  N
  N68      1.0000 0.13630  0.57380  0.64510  Biso   1.000  N
  N69      1.0000 0.41390  0.76900  0.86630  Biso   1.000  N
  N70      1.0000 0.46500  0.67120  0.61660  Biso   1.000  N
  N71      1.0000 0.44210  0.57450  0.90140  Biso   1.000  N
  N72      1.0000 0.33700  0.53250  0.64490  Biso   1.000  N
  O11      1.0000 0.49890  0.93170  0.00900  Biso   1.000  O
  O12      1.0000 0.54690  0.58160  0.57550  Biso   1.000  O
  Eu7      1.0000 0.53305  0.67145  0.48257  Biso   1.000  Eu
  Ru13     1.0000 0.85115  0.80141  0.25917  Biso   1.000  Ru
  Ru14     1.0000 0.62945  0.84885  0.26090  Biso   1.000  Ru
  C97      1.0000 0.74220  0.83810  0.31190  Biso   1.000  C
  C98      1.0000 0.70320  0.89050  0.43550  Biso   1.000  C
  H37      1.0000 0.67320  0.90630  0.46610  Biso   1.000  H
  C99      1.0000 0.75220  0.89860  0.47800  Biso   1.000  C
  H38      1.0000 0.75560  0.91980  0.53650  Biso   1.000  H
  C100     1.0000 0.79630  0.87460  0.43240  Biso   1.000  C
  H39      1.0000 0.82970  0.88010  0.46030  Biso   1.000  H
  C101     1.0000 0.73650  0.80430  0.21920  Biso   1.000  C
  C102     1.0000 0.68310  0.76820  0.09790  Biso   1.000  C
  H40      1.0000 0.64960  0.76320  0.07030  Biso   1.000  H
  C103     1.0000 0.72650  0.74270  0.05230  Biso   1.000  C
  H41      1.0000 0.72260  0.72070  0.99460  Biso   1.000  H
  C104     1.0000 0.77620  0.75070  0.09490  Biso   1.000  C
  H42      1.0000 0.80610  0.73440  0.06480  Biso   1.000  H
  C105     1.0000 0.84470  0.72060  0.33200  Biso   1.000  C
  C106     1.0000 0.60200  0.76020  0.66490  Biso   1.000  C
  C107     1.0000 0.41360  0.67730  0.34120  Biso   1.000  C
  C108     1.0000 0.85890  0.88040  0.18630  Biso   1.000  C
  C109     1.0000 0.60370  0.77380  0.32960  Biso   1.000  C
  C110     1.0000 0.57000  0.83630  0.16820  Biso   1.000  C
  C111     1.0000 0.58340  0.89700  0.34860  Biso   1.000  C
  C112     1.0000 0.65100  0.92460  0.18580  Biso   1.000  C
  N73      1.0000 0.69771  0.86030  0.35050  Biso   1.000  N
  N74      1.0000 0.79182  0.84300  0.34750  Biso   1.000  N
  N75      1.0000 0.68778  0.79970  0.18040  Biso   1.000  N
  N76      1.0000 0.78166  0.78190  0.17970  Biso   1.000  N
  N77      1.0000 0.84150  0.67560  0.37090  Biso   1.000  N
  N78      1.0000 0.57640  0.73220  0.60920  Biso   1.000  N
  N79      1.0000 0.45030  0.66630  0.38840  Biso   1.000  N
  N80      1.0000 0.86370  0.92620  0.14510  Biso   1.000  N
  N81      1.0000 0.58610  0.73100  0.36630  Biso   1.000  N
  N82      1.0000 0.53500  0.82880  0.11660  Biso   1.000  N
  N83      1.0000 0.55790  0.92550  0.40140  Biso   1.000  N
  N84      1.0000 0.66300  0.96750  0.14490  Biso   1.000  N
  O13      1.0000 0.50110  0.56830  0.50900  Biso   1.000  O
  O14      1.0000 0.45310  0.91840  0.07550  Biso   1.000  O
  Eu8      1.0000 0.53305  0.17145  0.98257  Biso   1.000  Eu
  Ru15     1.0000 0.85115  0.30141  0.75917  Biso   1.000  Ru
  Ru16     1.0000 0.62945  0.34885  0.76090  Biso   1.000  Ru
  C113     1.0000 0.74220  0.33810  0.81190  Biso   1.000  C
  C114     1.0000 0.70320  0.39050  0.93550  Biso   1.000  C
  H43      1.0000 0.67320  0.40630  0.96610  Biso   1.000  H
  C115     1.0000 0.75220  0.39860  0.97800  Biso   1.000  C
  H44      1.0000 0.75560  0.41980  0.03650  Biso   1.000  H
  C116     1.0000 0.79630  0.37460  0.93240  Biso   1.000  C
  H45      1.0000 0.82970  0.38010  0.96030  Biso   1.000  H
  C117     1.0000 0.73650  0.30430  0.71920  Biso   1.000  C
  C118     1.0000 0.68310  0.26820  0.59790  Biso   1.000  C
  H46      1.0000 0.64960  0.26320  0.57030  Biso   1.000  H
  C119     1.0000 0.72650  0.24270  0.55230  Biso   1.000  C
  H47      1.0000 0.72260  0.22070  0.49460  Biso   1.000  H
  C120     1.0000 0.77620  0.25070  0.59490  Biso   1.000  C
  H48      1.0000 0.80610  0.23440  0.56480  Biso   1.000  H
  C121     1.0000 0.84470  0.22060  0.83200  Biso   1.000  C
  C122     1.0000 0.60200  0.26020  0.16490  Biso   1.000  C
  C123     1.0000 0.41360  0.17730  0.84120  Biso   1.000  C
  C124     1.0000 0.85890  0.38040  0.68630  Biso   1.000  C
  C125     1.0000 0.60370  0.27380  0.82960  Biso   1.000  C
  C126     1.0000 0.57000  0.33630  0.66820  Biso   1.000  C
  C127     1.0000 0.58340  0.39700  0.84860  Biso   1.000  C
  C128     1.0000 0.65100  0.42460  0.68580  Biso   1.000  C
  N85      1.0000 0.69771  0.36030  0.85050  Biso   1.000  N
  N86      1.0000 0.79182  0.34300  0.84750  Biso   1.000  N
  N87      1.0000 0.68778  0.29970  0.68040  Biso   1.000  N
  N88      1.0000 0.78166  0.28190  0.67970  Biso   1.000  N
  N89      1.0000 0.84150  0.17560  0.87090  Biso   1.000  N
  N90      1.0000 0.57640  0.23220  0.10920  Biso   1.000  N
  N91      1.0000 0.45030  0.16630  0.88840  Biso   1.000  N
  N92      1.0000 0.86370  0.42620  0.64510  Biso   1.000  N
  N93      1.0000 0.58610  0.23100  0.86630  Biso   1.000  N
  N94      1.0000 0.53500  0.32880  0.61660  Biso   1.000  N
  N95      1.0000 0.55790  0.42550  0.90140  Biso   1.000  N
  N96      1.0000 0.66300  0.46750  0.64490  Biso   1.000  N
  O15      1.0000 0.50110  0.06830  0.00900  Biso   1.000  O
  O16      1.0000 0.45310  0.41840  0.57550  Biso   1.000  O
  Eu9      1.0000 0.00000  0.50000  0.48389  Biso   1.000  Eu
  Eu10     1.0000 0.00000  0.00000  0.98389  Biso   1.000  Eu
  Eu11     1.0000 0.50000  0.00000  0.48389  Biso   1.000  Eu
  Eu12     1.0000 0.50000  0.50000  0.98389  Biso   1.000  Eu
