data_SEHSOO_clean
_audit_creation_date              2014-07-02
_audit_creation_method            'Materials Studio'
_symmetry_space_group_name_H-M    'P1'
_symmetry_Int_Tables_number       1
_symmetry_cell_setting            triclinic
loop_
_symmetry_equiv_pos_as_xyz
  x,y,z
_cell_length_a                    10.8440
_cell_length_b                    10.9610
_cell_length_c                    15.5850
_cell_angle_alpha                 90.0000
_cell_angle_beta                  90.0000
_cell_angle_gamma                 100.5570
loop_
_atom_site_label
_atom_site_type_symbol
_atom_site_fract_x
_atom_site_fract_y
_atom_site_fract_z
_atom_site_U_iso_or_equiv
_atom_site_adp_type
_atom_site_occupancy
Ho1    Ho    0.85707   0.10300   0.89797   0.01267  Uiso   1.00
Ho2    Ho    0.64293   0.39700   0.39797   0.01267  Uiso   1.00
Ho3    Ho    0.14293   0.89700   0.10203   0.01267  Uiso   1.00
Ho4    Ho    0.35707   0.60300   0.60203   0.01267  Uiso   1.00
H1     H     0.39880   0.08820   0.95330   0.01267  Uiso   1.00
H2     H     0.55240   0.32000   0.76610   0.01267  Uiso   1.00
H3     H     0.18420   0.27770   0.81460   0.01267  Uiso   1.00
H4     H     0.10120   0.41180   0.45330   0.01267  Uiso   1.00
H5     H     0.94760   0.18000   0.26610   0.01267  Uiso   1.00
H6     H     0.31580   0.22230   0.31460   0.01267  Uiso   1.00
H7     H     0.60120   0.91180   0.04670   0.01267  Uiso   1.00
H8     H     0.44760   0.68000   0.23390   0.01267  Uiso   1.00
H9     H     0.81580   0.72230   0.18540   0.01267  Uiso   1.00
H10    H     0.89880   0.58820   0.54670   0.01267  Uiso   1.00
H11    H     0.05240   0.82000   0.73390   0.01267  Uiso   1.00
H12    H     0.68420   0.77770   0.68540   0.01267  Uiso   1.00
C1     C     0.16070   0.11640   0.94350   0.01267  Uiso   1.00
C2     C     0.62230   0.16550   0.87820   0.01267  Uiso   1.00
C3     C     0.35710   0.40420   0.70940   0.01267  Uiso   1.00
C4     C     0.27390   0.17520   0.89240   0.01267  Uiso   1.00
C5     C     0.39070   0.14450   0.91000   0.01267  Uiso   1.00
C6     C     0.49530   0.19910   0.86210   0.01267  Uiso   1.00
C7     C     0.48250   0.28330   0.79750   0.01267  Uiso   1.00
C8     C     0.36620   0.31310   0.77950   0.01267  Uiso   1.00
C9     C     0.26240   0.25840   0.82690   0.01267  Uiso   1.00
C10    C     0.33930   0.38360   0.44350   0.01267  Uiso   1.00
C11    C     0.87770   0.33450   0.37820   0.01267  Uiso   1.00
C12    C     0.14290   0.09580   0.20940   0.01267  Uiso   1.00
C13    C     0.22610   0.32480   0.39240   0.01267  Uiso   1.00
C14    C     0.10930   0.35550   0.41000   0.01267  Uiso   1.00
C15    C     0.00470   0.30090   0.36210   0.01267  Uiso   1.00
C16    C     0.01750   0.21670   0.29750   0.01267  Uiso   1.00
C17    C     0.13380   0.18690   0.27950   0.01267  Uiso   1.00
C18    C     0.23760   0.24160   0.32690   0.01267  Uiso   1.00
C19    C     0.83930   0.88360   0.05650   0.01267  Uiso   1.00
C20    C     0.37770   0.83450   0.12180   0.01267  Uiso   1.00
C21    C     0.64290   0.59580   0.29060   0.01267  Uiso   1.00
C22    C     0.72610   0.82480   0.10760   0.01267  Uiso   1.00
C23    C     0.60930   0.85550   0.09000   0.01267  Uiso   1.00
C24    C     0.50470   0.80090   0.13790   0.01267  Uiso   1.00
C25    C     0.51750   0.71670   0.20250   0.01267  Uiso   1.00
C26    C     0.63380   0.68690   0.22050   0.01267  Uiso   1.00
C27    C     0.73760   0.74160   0.17310   0.01267  Uiso   1.00
C28    C     0.66070   0.61640   0.55650   0.01267  Uiso   1.00
C29    C     0.12230   0.66550   0.62180   0.01267  Uiso   1.00
C30    C     0.85710   0.90420   0.79060   0.01267  Uiso   1.00
C31    C     0.77390   0.67520   0.60760   0.01267  Uiso   1.00
C32    C     0.89070   0.64450   0.59000   0.01267  Uiso   1.00
C33    C     0.99530   0.69910   0.63790   0.01267  Uiso   1.00
C34    C     0.98250   0.78330   0.70250   0.01267  Uiso   1.00
C35    C     0.86620   0.81310   0.72050   0.01267  Uiso   1.00
C36    C     0.76240   0.75840   0.67310   0.01267  Uiso   1.00
O1     O     0.06350   0.16320   0.93790   0.01267  Uiso   1.00
O2     O     0.17070   0.02540   0.98940   0.01267  Uiso   1.00
O3     O     0.63630   0.09060   0.93560   0.01267  Uiso   1.00
O4     O     0.71150   0.21240   0.82980   0.01267  Uiso   1.00
O5     O     0.45110   0.44050   0.66320   0.01267  Uiso   1.00
O6     O     0.25680   0.44640   0.69940   0.01267  Uiso   1.00
O7     O     0.43650   0.33680   0.43790   0.01267  Uiso   1.00
O8     O     0.32930   0.47460   0.48940   0.01267  Uiso   1.00
O9     O     0.86370   0.40940   0.43560   0.01267  Uiso   1.00
O10    O     0.78850   0.28760   0.32980   0.01267  Uiso   1.00
O11    O     0.04890   0.05950   0.16320   0.01267  Uiso   1.00
O12    O     0.24320   0.05360   0.19940   0.01267  Uiso   1.00
O13    O     0.93650   0.83680   0.06210   0.01267  Uiso   1.00
O14    O     0.82930   0.97460   0.01060   0.01267  Uiso   1.00
O15    O     0.36370   0.90940   0.06440   0.01267  Uiso   1.00
O16    O     0.28850   0.78760   0.17020   0.01267  Uiso   1.00
O17    O     0.54890   0.55950   0.33680   0.01267  Uiso   1.00
O18    O     0.74320   0.55360   0.30060   0.01267  Uiso   1.00
O19    O     0.56350   0.66320   0.56210   0.01267  Uiso   1.00
O20    O     0.67070   0.52540   0.51060   0.01267  Uiso   1.00
O21    O     0.13630   0.59060   0.56440   0.01267  Uiso   1.00
O22    O     0.21150   0.71240   0.67020   0.01267  Uiso   1.00
O23    O     0.95110   0.94050   0.83680   0.01267  Uiso   1.00
O24    O     0.75680   0.94640   0.80060   0.01267  Uiso   1.00
