data_SEHSUU_clean
_audit_creation_date              2014-07-02
_audit_creation_method            'Materials Studio'
_symmetry_space_group_name_H-M    'P1'
_symmetry_Int_Tables_number       1
_symmetry_cell_setting            triclinic
loop_
_symmetry_equiv_pos_as_xyz
  x,y,z
_cell_length_a                    10.8158
_cell_length_b                    10.9331
_cell_length_c                    15.5514
_cell_angle_alpha                 90.0000
_cell_angle_beta                  90.0000
_cell_angle_gamma                 100.5570
loop_
_atom_site_label
_atom_site_type_symbol
_atom_site_fract_x
_atom_site_fract_y
_atom_site_fract_z
_atom_site_U_iso_or_equiv
_atom_site_adp_type
_atom_site_occupancy
Er1    Er    0.64303   0.39723   0.89801   0.01267  Uiso   1.00
Er2    Er    0.85697   0.10277   0.39801   0.01267  Uiso   1.00
Er3    Er    0.35697   0.60277   0.10199   0.01267  Uiso   1.00
Er4    Er    0.14303   0.89723   0.60199   0.01267  Uiso   1.00
H1     H     0.10020   0.40990   0.95360   0.01267  Uiso   1.00
H2     H     0.94800   0.18110   0.76560   0.01267  Uiso   1.00
H3     H     0.31570   0.22180   0.81410   0.01267  Uiso   1.00
H4     H     0.39980   0.09010   0.45360   0.01267  Uiso   1.00
H5     H     0.55200   0.31890   0.26560   0.01267  Uiso   1.00
H6     H     0.18430   0.27820   0.31410   0.01267  Uiso   1.00
H7     H     0.89980   0.59010   0.04640   0.01267  Uiso   1.00
H8     H     0.05200   0.81890   0.23440   0.01267  Uiso   1.00
H9     H     0.68430   0.77820   0.18590   0.01267  Uiso   1.00
H10    H     0.60020   0.90990   0.54640   0.01267  Uiso   1.00
H11    H     0.44800   0.68110   0.73440   0.01267  Uiso   1.00
H12    H     0.81570   0.72180   0.68590   0.01267  Uiso   1.00
C1     C     0.33970   0.38450   0.94440   0.01267  Uiso   1.00
C2     C     0.87770   0.33590   0.87750   0.01267  Uiso   1.00
C3     C     0.14300   0.09610   0.70820   0.01267  Uiso   1.00
C4     C     0.22710   0.32490   0.89200   0.01267  Uiso   1.00
C5     C     0.10860   0.35440   0.90960   0.01267  Uiso   1.00
C6     C     0.00470   0.30170   0.86220   0.01267  Uiso   1.00
C7     C     0.01810   0.21750   0.79720   0.01267  Uiso   1.00
C8     C     0.13390   0.18680   0.77880   0.01267  Uiso   1.00
C9     C     0.23740   0.24140   0.82640   0.01267  Uiso   1.00
C10    C     0.16030   0.11550   0.44440   0.01267  Uiso   1.00
C11    C     0.62230   0.16410   0.37750   0.01267  Uiso   1.00
C12    C     0.35700   0.40390   0.20820   0.01267  Uiso   1.00
C13    C     0.27290   0.17510   0.39200   0.01267  Uiso   1.00
C14    C     0.39140   0.14560   0.40960   0.01267  Uiso   1.00
C15    C     0.49530   0.19830   0.36220   0.01267  Uiso   1.00
C16    C     0.48190   0.28250   0.29720   0.01267  Uiso   1.00
C17    C     0.36610   0.31320   0.27880   0.01267  Uiso   1.00
C18    C     0.26260   0.25860   0.32640   0.01267  Uiso   1.00
C19    C     0.66030   0.61550   0.05560   0.01267  Uiso   1.00
C20    C     0.12230   0.66410   0.12250   0.01267  Uiso   1.00
C21    C     0.85700   0.90390   0.29180   0.01267  Uiso   1.00
C22    C     0.77290   0.67510   0.10800   0.01267  Uiso   1.00
C23    C     0.89140   0.64560   0.09040   0.01267  Uiso   1.00
C24    C     0.99530   0.69830   0.13780   0.01267  Uiso   1.00
C25    C     0.98190   0.78250   0.20280   0.01267  Uiso   1.00
C26    C     0.86610   0.81320   0.22120   0.01267  Uiso   1.00
C27    C     0.76260   0.75860   0.17360   0.01267  Uiso   1.00
C28    C     0.83970   0.88450   0.55560   0.01267  Uiso   1.00
C29    C     0.37770   0.83590   0.62250   0.01267  Uiso   1.00
C30    C     0.64300   0.59610   0.79180   0.01267  Uiso   1.00
C31    C     0.72710   0.82490   0.60800   0.01267  Uiso   1.00
C32    C     0.60860   0.85440   0.59040   0.01267  Uiso   1.00
C33    C     0.50470   0.80170   0.63780   0.01267  Uiso   1.00
C34    C     0.51810   0.71750   0.70280   0.01267  Uiso   1.00
C35    C     0.63390   0.68680   0.72120   0.01267  Uiso   1.00
C36    C     0.73740   0.74140   0.67360   0.01267  Uiso   1.00
O1     O     0.43780   0.33690   0.93710   0.01267  Uiso   1.00
O2     O     0.32940   0.47500   0.98970   0.01267  Uiso   1.00
O3     O     0.86350   0.40940   0.93650   0.01267  Uiso   1.00
O4     O     0.78790   0.28830   0.82950   0.01267  Uiso   1.00
O5     O     0.04820   0.05900   0.66240   0.01267  Uiso   1.00
O6     O     0.24350   0.05340   0.69900   0.01267  Uiso   1.00
O7     O     0.06220   0.16310   0.43710   0.01267  Uiso   1.00
O8     O     0.17060   0.02500   0.48970   0.01267  Uiso   1.00
O9     O     0.63650   0.09060   0.43650   0.01267  Uiso   1.00
O10    O     0.71210   0.21170   0.32950   0.01267  Uiso   1.00
O11    O     0.45180   0.44100   0.16240   0.01267  Uiso   1.00
O12    O     0.25650   0.44660   0.19900   0.01267  Uiso   1.00
O13    O     0.56220   0.66310   0.06290   0.01267  Uiso   1.00
O14    O     0.67060   0.52500   0.01030   0.01267  Uiso   1.00
O15    O     0.13650   0.59060   0.06350   0.01267  Uiso   1.00
O16    O     0.21210   0.71170   0.17050   0.01267  Uiso   1.00
O17    O     0.95180   0.94100   0.33760   0.01267  Uiso   1.00
O18    O     0.75650   0.94660   0.30100   0.01267  Uiso   1.00
O19    O     0.93780   0.83690   0.56290   0.01267  Uiso   1.00
O20    O     0.82940   0.97500   0.51030   0.01267  Uiso   1.00
O21    O     0.36350   0.90940   0.56350   0.01267  Uiso   1.00
O22    O     0.28790   0.78830   0.67050   0.01267  Uiso   1.00
O23    O     0.54820   0.55900   0.83760   0.01267  Uiso   1.00
O24    O     0.74350   0.55340   0.80100   0.01267  Uiso   1.00
