data_SEHTEF_clean
_audit_creation_date              2014-07-02
_audit_creation_method            'Materials Studio'
_symmetry_space_group_name_H-M    'P1'
_symmetry_Int_Tables_number       1
_symmetry_cell_setting            triclinic
loop_
_symmetry_equiv_pos_as_xyz
  x,y,z
_cell_length_a                    10.8388
_cell_length_b                    10.9421
_cell_length_c                    15.5918
_cell_angle_alpha                 90.0000
_cell_angle_beta                  90.0000
_cell_angle_gamma                 100.5130
loop_
_atom_site_label
_atom_site_type_symbol
_atom_site_fract_x
_atom_site_fract_y
_atom_site_fract_z
_atom_site_U_iso_or_equiv
_atom_site_adp_type
_atom_site_occupancy
Y1     Y     0.14338   0.39735   0.89791   0.01267  Uiso   1.00
Y2     Y     0.35662   0.10265   0.39791   0.01267  Uiso   1.00
Y3     Y     0.85662   0.60265   0.10209   0.01267  Uiso   1.00
Y4     Y     0.64338   0.89735   0.60209   0.01267  Uiso   1.00
H1     H     0.60120   0.41120   0.95280   0.01267  Uiso   1.00
H2     H     0.44850   0.18130   0.76650   0.01267  Uiso   1.00
H3     H     0.81580   0.22120   0.81490   0.01267  Uiso   1.00
H4     H     0.89880   0.08880   0.45280   0.01267  Uiso   1.00
H5     H     0.05150   0.31870   0.26650   0.01267  Uiso   1.00
H6     H     0.68420   0.27880   0.31490   0.01267  Uiso   1.00
H7     H     0.39880   0.58880   0.04720   0.01267  Uiso   1.00
H8     H     0.55150   0.81870   0.23350   0.01267  Uiso   1.00
H9     H     0.18420   0.77880   0.18510   0.01267  Uiso   1.00
H10    H     0.10120   0.91120   0.54720   0.01267  Uiso   1.00
H11    H     0.94850   0.68130   0.73350   0.01267  Uiso   1.00
H12    H     0.31580   0.72120   0.68510   0.01267  Uiso   1.00
C1     C     0.84010   0.38420   0.94380   0.01267  Uiso   1.00
C2     C     0.37830   0.33580   0.87820   0.01267  Uiso   1.00
C3     C     0.64370   0.09600   0.70910   0.01267  Uiso   1.00
C4     C     0.72680   0.32440   0.89190   0.01267  Uiso   1.00
C5     C     0.60910   0.35470   0.90950   0.01267  Uiso   1.00
C6     C     0.50390   0.30060   0.86260   0.01267  Uiso   1.00
C7     C     0.51840   0.21780   0.79810   0.01267  Uiso   1.00
C8     C     0.63420   0.18730   0.77900   0.01267  Uiso   1.00
C9     C     0.73780   0.24120   0.82680   0.01267  Uiso   1.00
C10    C     0.65990   0.11580   0.44380   0.01267  Uiso   1.00
C11    C     0.12170   0.16420   0.37820   0.01267  Uiso   1.00
C12    C     0.85630   0.40400   0.20910   0.01267  Uiso   1.00
C13    C     0.77320   0.17560   0.39190   0.01267  Uiso   1.00
C14    C     0.89090   0.14530   0.40950   0.01267  Uiso   1.00
C15    C     0.99610   0.19940   0.36260   0.01267  Uiso   1.00
C16    C     0.98160   0.28220   0.29810   0.01267  Uiso   1.00
C17    C     0.86580   0.31270   0.27900   0.01267  Uiso   1.00
C18    C     0.76220   0.25880   0.32680   0.01267  Uiso   1.00
C19    C     0.15990   0.61580   0.05620   0.01267  Uiso   1.00
C20    C     0.62170   0.66420   0.12180   0.01267  Uiso   1.00
C21    C     0.35630   0.90400   0.29090   0.01267  Uiso   1.00
C22    C     0.27320   0.67560   0.10810   0.01267  Uiso   1.00
C23    C     0.39090   0.64530   0.09050   0.01267  Uiso   1.00
C24    C     0.49610   0.69940   0.13740   0.01267  Uiso   1.00
C25    C     0.48160   0.78220   0.20190   0.01267  Uiso   1.00
C26    C     0.36580   0.81270   0.22100   0.01267  Uiso   1.00
C27    C     0.26220   0.75880   0.17320   0.01267  Uiso   1.00
C28    C     0.34010   0.88420   0.55620   0.01267  Uiso   1.00
C29    C     0.87830   0.83580   0.62180   0.01267  Uiso   1.00
C30    C     0.14370   0.59600   0.79090   0.01267  Uiso   1.00
C31    C     0.22680   0.82440   0.60810   0.01267  Uiso   1.00
C32    C     0.10910   0.85470   0.59050   0.01267  Uiso   1.00
C33    C     0.00390   0.80060   0.63740   0.01267  Uiso   1.00
C34    C     0.01840   0.71780   0.70190   0.01267  Uiso   1.00
C35    C     0.13420   0.68730   0.72100   0.01267  Uiso   1.00
C36    C     0.23780   0.74120   0.67320   0.01267  Uiso   1.00
O1     O     0.93740   0.33790   0.93708   0.01267  Uiso   1.00
O2     O     0.82880   0.47410   0.98996   0.01267  Uiso   1.00
O3     O     0.36420   0.40950   0.93627   0.01267  Uiso   1.00
O4     O     0.28850   0.28770   0.83012   0.01267  Uiso   1.00
O5     O     0.54940   0.05970   0.66280   0.01267  Uiso   1.00
O6     O     0.74330   0.05450   0.69912   0.01267  Uiso   1.00
O7     O     0.56260   0.16210   0.43708   0.01267  Uiso   1.00
O8     O     0.67120   0.02590   0.48996   0.01267  Uiso   1.00
O9     O     0.13580   0.09050   0.43627   0.01267  Uiso   1.00
O10    O     0.21150   0.21230   0.33012   0.01267  Uiso   1.00
O11    O     0.95060   0.44030   0.16280   0.01267  Uiso   1.00
O12    O     0.75670   0.44550   0.19912   0.01267  Uiso   1.00
O13    O     0.06260   0.66210   0.06292   0.01267  Uiso   1.00
O14    O     0.17120   0.52590   0.01004   0.01267  Uiso   1.00
O15    O     0.63580   0.59050   0.06373   0.01267  Uiso   1.00
O16    O     0.71150   0.71230   0.16988   0.01267  Uiso   1.00
O17    O     0.45060   0.94030   0.33720   0.01267  Uiso   1.00
O18    O     0.25670   0.94550   0.30088   0.01267  Uiso   1.00
O19    O     0.43740   0.83790   0.56292   0.01267  Uiso   1.00
O20    O     0.32880   0.97410   0.51004   0.01267  Uiso   1.00
O21    O     0.86420   0.90950   0.56373   0.01267  Uiso   1.00
O22    O     0.78850   0.78770   0.66988   0.01267  Uiso   1.00
O23    O     0.04940   0.55970   0.83720   0.01267  Uiso   1.00
O24    O     0.24330   0.55450   0.80088   0.01267  Uiso   1.00
