data_image0
_cell_length_a       14.206
_cell_length_b       33.308
_cell_length_c       11.587
_cell_angle_alpha    90
_cell_angle_beta     90
_cell_angle_gamma    90

_symmetry_space_group_name_H-M    "P 1"
_symmetry_int_tables_number       1

loop_
  _symmetry_equiv_pos_as_xyz
  'x, y, z'

loop_
  _atom_site_label
  _atom_site_occupancy
  _atom_site_fract_x
  _atom_site_fract_y
  _atom_site_fract_z
  _atom_site_thermal_displace_type
  _atom_site_B_iso_or_equiv
  _atom_site_type_symbol
  V1       1.0000 0.79970  0.13990  0.83600  Biso   1.000  V
  V2       1.0000 0.95760  0.10860  0.68370  Biso   1.000  V
  P1       1.0000 0.64410  0.07340  0.80950  Biso   1.000  P
  P2       1.0000 0.12130  0.17340  0.70430  Biso   1.000  P
  O1       1.0000 0.93530  0.14390  0.81590  Biso   1.000  O
  O2       1.0000 0.70660  0.09980  0.88500  Biso   1.000  O
  O3       1.0000 0.70610  0.05530  0.71030  Biso   1.000  O
  O4       1.0000 0.60510  0.03900  0.87860  Biso   1.000  O
  O5       1.0000 0.81860  0.15030  0.00300  Biso   1.000  O
  O6       1.0000 0.06070  0.14380  0.63480  Biso   1.000  O
  O7       1.0000 0.05750  0.19320  0.79940  Biso   1.000  O
  O8       1.0000 0.15700  0.20540  0.62460  Biso   1.000  O
  O9       1.0000 0.94990  0.09970  0.51650  Biso   1.000  O
  O10      1.0000 0.81990  0.10870  0.69340  Biso   1.000  O
  B1       1.0000 0.00360  0.16660  0.87830  Biso   1.000  B
  V3       1.0000 0.79970  0.63990  0.33600  Biso   1.000  V
  V4       1.0000 0.95760  0.60860  0.18370  Biso   1.000  V
  P3       1.0000 0.64410  0.57340  0.30950  Biso   1.000  P
  P4       1.0000 0.12130  0.67340  0.20430  Biso   1.000  P
  O11      1.0000 0.93530  0.64390  0.31590  Biso   1.000  O
  O12      1.0000 0.70660  0.59980  0.38500  Biso   1.000  O
  O13      1.0000 0.70610  0.55530  0.21030  Biso   1.000  O
  O14      1.0000 0.60510  0.53900  0.37860  Biso   1.000  O
  O15      1.0000 0.81860  0.65030  0.50300  Biso   1.000  O
  O16      1.0000 0.06070  0.64380  0.13480  Biso   1.000  O
  O17      1.0000 0.05750  0.69320  0.29940  Biso   1.000  O
  O18      1.0000 0.15700  0.70540  0.12460  Biso   1.000  O
  O19      1.0000 0.94990  0.59970  0.01650  Biso   1.000  O
  O20      1.0000 0.81990  0.60870  0.19340  Biso   1.000  O
  B2       1.0000 0.00360  0.66660  0.37830  Biso   1.000  B
  V5       1.0000 0.29970  0.13990  0.33600  Biso   1.000  V
  V6       1.0000 0.45760  0.10860  0.18370  Biso   1.000  V
  P5       1.0000 0.14410  0.07340  0.30950  Biso   1.000  P
  P6       1.0000 0.62130  0.17340  0.20430  Biso   1.000  P
  O21      1.0000 0.43530  0.14390  0.31590  Biso   1.000  O
  O22      1.0000 0.20660  0.09980  0.38500  Biso   1.000  O
  O23      1.0000 0.20610  0.05530  0.21030  Biso   1.000  O
  O24      1.0000 0.10510  0.03900  0.37860  Biso   1.000  O
  O25      1.0000 0.31860  0.15030  0.50300  Biso   1.000  O
  O26      1.0000 0.56070  0.14380  0.13480  Biso   1.000  O
  O27      1.0000 0.55750  0.19320  0.29940  Biso   1.000  O
  O28      1.0000 0.65700  0.20540  0.12460  Biso   1.000  O
  O29      1.0000 0.44990  0.09970  0.01650  Biso   1.000  O
  O30      1.0000 0.31990  0.10870  0.19340  Biso   1.000  O
  B3       1.0000 0.50360  0.16660  0.37830  Biso   1.000  B
  V7       1.0000 0.29970  0.63990  0.83600  Biso   1.000  V
  V8       1.0000 0.45760  0.60860  0.68370  Biso   1.000  V
  P7       1.0000 0.14410  0.57340  0.80950  Biso   1.000  P
  P8       1.0000 0.62130  0.67340  0.70430  Biso   1.000  P
  O31      1.0000 0.43530  0.64390  0.81590  Biso   1.000  O
  O32      1.0000 0.20660  0.59980  0.88500  Biso   1.000  O
  O33      1.0000 0.20610  0.55530  0.71030  Biso   1.000  O
  O34      1.0000 0.10510  0.53900  0.87860  Biso   1.000  O
  O35      1.0000 0.31860  0.65030  0.00300  Biso   1.000  O
  O36      1.0000 0.56070  0.64380  0.63480  Biso   1.000  O
  O37      1.0000 0.55750  0.69320  0.79940  Biso   1.000  O
  O38      1.0000 0.65700  0.70540  0.62460  Biso   1.000  O
  O39      1.0000 0.44990  0.59970  0.51650  Biso   1.000  O
  O40      1.0000 0.31990  0.60870  0.69340  Biso   1.000  O
  B4       1.0000 0.50360  0.66660  0.87830  Biso   1.000  B
  V9       1.0000 0.20030  0.86010  0.83600  Biso   1.000  V
  V10      1.0000 0.04240  0.89140  0.68370  Biso   1.000  V
  P9       1.0000 0.35590  0.92660  0.80950  Biso   1.000  P
  P10      1.0000 0.87870  0.82660  0.70430  Biso   1.000  P
  O41      1.0000 0.06470  0.85610  0.81590  Biso   1.000  O
  O42      1.0000 0.29340  0.90020  0.88500  Biso   1.000  O
  O43      1.0000 0.29390  0.94470  0.71030  Biso   1.000  O
  O44      1.0000 0.39490  0.96100  0.87860  Biso   1.000  O
  O45      1.0000 0.18140  0.84970  0.00300  Biso   1.000  O
  O46      1.0000 0.93930  0.85620  0.63480  Biso   1.000  O
  O47      1.0000 0.94250  0.80680  0.79940  Biso   1.000  O
  O48      1.0000 0.84300  0.79460  0.62460  Biso   1.000  O
  O49      1.0000 0.05010  0.90030  0.51650  Biso   1.000  O
  O50      1.0000 0.18010  0.89130  0.69340  Biso   1.000  O
  B5       1.0000 0.99640  0.83340  0.87830  Biso   1.000  B
  V11      1.0000 0.20030  0.36010  0.33600  Biso   1.000  V
  V12      1.0000 0.04240  0.39140  0.18370  Biso   1.000  V
  P11      1.0000 0.35590  0.42660  0.30950  Biso   1.000  P
  P12      1.0000 0.87870  0.32660  0.20430  Biso   1.000  P
  O51      1.0000 0.06470  0.35610  0.31590  Biso   1.000  O
  O52      1.0000 0.29340  0.40020  0.38500  Biso   1.000  O
  O53      1.0000 0.29390  0.44470  0.21030  Biso   1.000  O
  O54      1.0000 0.39490  0.46100  0.37860  Biso   1.000  O
  O55      1.0000 0.18140  0.34970  0.50300  Biso   1.000  O
  O56      1.0000 0.93930  0.35620  0.13480  Biso   1.000  O
  O57      1.0000 0.94250  0.30680  0.29940  Biso   1.000  O
  O58      1.0000 0.84300  0.29460  0.12460  Biso   1.000  O
  O59      1.0000 0.05010  0.40030  0.01650  Biso   1.000  O
  O60      1.0000 0.18010  0.39130  0.19340  Biso   1.000  O
  B6       1.0000 0.99640  0.33340  0.37830  Biso   1.000  B
  V13      1.0000 0.70030  0.86010  0.33600  Biso   1.000  V
  V14      1.0000 0.54240  0.89140  0.18370  Biso   1.000  V
  P13      1.0000 0.85590  0.92660  0.30950  Biso   1.000  P
  P14      1.0000 0.37870  0.82660  0.20430  Biso   1.000  P
  O61      1.0000 0.56470  0.85610  0.31590  Biso   1.000  O
  O62      1.0000 0.79340  0.90020  0.38500  Biso   1.000  O
  O63      1.0000 0.79390  0.94470  0.21030  Biso   1.000  O
  O64      1.0000 0.89490  0.96100  0.37860  Biso   1.000  O
  O65      1.0000 0.68140  0.84970  0.50300  Biso   1.000  O
  O66      1.0000 0.43930  0.85620  0.13480  Biso   1.000  O
  O67      1.0000 0.44250  0.80680  0.29940  Biso   1.000  O
  O68      1.0000 0.34300  0.79460  0.12460  Biso   1.000  O
  O69      1.0000 0.55010  0.90030  0.01650  Biso   1.000  O
  O70      1.0000 0.68010  0.89130  0.19340  Biso   1.000  O
  B7       1.0000 0.49640  0.83340  0.37830  Biso   1.000  B
  V15      1.0000 0.70030  0.36010  0.83600  Biso   1.000  V
  V16      1.0000 0.54240  0.39140  0.68370  Biso   1.000  V
  P15      1.0000 0.85590  0.42660  0.80950  Biso   1.000  P
  P16      1.0000 0.37870  0.32660  0.70430  Biso   1.000  P
  O71      1.0000 0.56470  0.35610  0.81590  Biso   1.000  O
  O72      1.0000 0.79340  0.40020  0.88500  Biso   1.000  O
  O73      1.0000 0.79390  0.44470  0.71030  Biso   1.000  O
  O74      1.0000 0.89490  0.46100  0.87860  Biso   1.000  O
  O75      1.0000 0.68140  0.34970  0.00300  Biso   1.000  O
  O76      1.0000 0.43930  0.35620  0.63480  Biso   1.000  O
  O77      1.0000 0.44250  0.30680  0.79940  Biso   1.000  O
  O78      1.0000 0.34300  0.29460  0.62460  Biso   1.000  O
  O79      1.0000 0.55010  0.40030  0.51650  Biso   1.000  O
  O80      1.0000 0.68010  0.39130  0.69340  Biso   1.000  O
  B8       1.0000 0.49640  0.33340  0.87830  Biso   1.000  B
  V17      1.0000 0.04970  0.11010  0.08600  Biso   1.000  V
  V18      1.0000 0.20760  0.14140  0.93370  Biso   1.000  V
  P17      1.0000 0.89410  0.17660  0.05950  Biso   1.000  P
  P18      1.0000 0.37130  0.07660  0.95430  Biso   1.000  P
  O81      1.0000 0.18530  0.10610  0.06590  Biso   1.000  O
  O82      1.0000 0.95660  0.15020  0.13500  Biso   1.000  O
  O83      1.0000 0.95610  0.19470  0.96030  Biso   1.000  O
  O84      1.0000 0.85510  0.21100  0.12860  Biso   1.000  O
  O85      1.0000 0.06860  0.09970  0.25300  Biso   1.000  O
  O86      1.0000 0.31070  0.10620  0.88480  Biso   1.000  O
  O87      1.0000 0.30750  0.05680  0.04940  Biso   1.000  O
  O88      1.0000 0.40700  0.04460  0.87460  Biso   1.000  O
  O89      1.0000 0.19990  0.15030  0.76650  Biso   1.000  O
  O90      1.0000 0.06990  0.14130  0.94340  Biso   1.000  O
  B9       1.0000 0.25360  0.08340  0.12830  Biso   1.000  B
  V19      1.0000 0.04970  0.61010  0.58600  Biso   1.000  V
  V20      1.0000 0.20760  0.64140  0.43370  Biso   1.000  V
  P19      1.0000 0.89410  0.67660  0.55950  Biso   1.000  P
  P20      1.0000 0.37130  0.57660  0.45430  Biso   1.000  P
  O91      1.0000 0.18530  0.60610  0.56590  Biso   1.000  O
  O92      1.0000 0.95660  0.65020  0.63500  Biso   1.000  O
  O93      1.0000 0.95610  0.69470  0.46030  Biso   1.000  O
  O94      1.0000 0.85510  0.71100  0.62860  Biso   1.000  O
  O95      1.0000 0.06860  0.59970  0.75300  Biso   1.000  O
  O96      1.0000 0.31070  0.60620  0.38480  Biso   1.000  O
  O97      1.0000 0.30750  0.55680  0.54940  Biso   1.000  O
  O98      1.0000 0.40700  0.54460  0.37460  Biso   1.000  O
  O99      1.0000 0.19990  0.65030  0.26650  Biso   1.000  O
  O100     1.0000 0.06990  0.64130  0.44340  Biso   1.000  O
  B10      1.0000 0.25360  0.58340  0.62830  Biso   1.000  B
  V21      1.0000 0.54970  0.11010  0.58600  Biso   1.000  V
  V22      1.0000 0.70760  0.14140  0.43370  Biso   1.000  V
  P21      1.0000 0.39410  0.17660  0.55950  Biso   1.000  P
  P22      1.0000 0.87130  0.07660  0.45430  Biso   1.000  P
  O101     1.0000 0.68530  0.10610  0.56590  Biso   1.000  O
  O102     1.0000 0.45660  0.15020  0.63500  Biso   1.000  O
  O103     1.0000 0.45610  0.19470  0.46030  Biso   1.000  O
  O104     1.0000 0.35510  0.21100  0.62860  Biso   1.000  O
  O105     1.0000 0.56860  0.09970  0.75300  Biso   1.000  O
  O106     1.0000 0.81070  0.10620  0.38480  Biso   1.000  O
  O107     1.0000 0.80750  0.05680  0.54940  Biso   1.000  O
  O108     1.0000 0.90700  0.04460  0.37460  Biso   1.000  O
  O109     1.0000 0.69990  0.15030  0.26650  Biso   1.000  O
  O110     1.0000 0.56990  0.14130  0.44340  Biso   1.000  O
  B11      1.0000 0.75360  0.08340  0.62830  Biso   1.000  B
  V23      1.0000 0.54970  0.61010  0.08600  Biso   1.000  V
  V24      1.0000 0.70760  0.64140  0.93370  Biso   1.000  V
  P23      1.0000 0.39410  0.67660  0.05950  Biso   1.000  P
  P24      1.0000 0.87130  0.57660  0.95430  Biso   1.000  P
  O111     1.0000 0.68530  0.60610  0.06590  Biso   1.000  O
  O112     1.0000 0.45660  0.65020  0.13500  Biso   1.000  O
  O113     1.0000 0.45610  0.69470  0.96030  Biso   1.000  O
  O114     1.0000 0.35510  0.71100  0.12860  Biso   1.000  O
  O115     1.0000 0.56860  0.59970  0.25300  Biso   1.000  O
  O116     1.0000 0.81070  0.60620  0.88480  Biso   1.000  O
  O117     1.0000 0.80750  0.55680  0.04940  Biso   1.000  O
  O118     1.0000 0.90700  0.54460  0.87460  Biso   1.000  O
  O119     1.0000 0.69990  0.65030  0.76650  Biso   1.000  O
  O120     1.0000 0.56990  0.64130  0.94340  Biso   1.000  O
  B12      1.0000 0.75360  0.58340  0.12830  Biso   1.000  B
  V25      1.0000 0.45030  0.38990  0.08600  Biso   1.000  V
  V26      1.0000 0.29240  0.35860  0.93370  Biso   1.000  V
  P25      1.0000 0.60590  0.32340  0.05950  Biso   1.000  P
  P26      1.0000 0.12870  0.42340  0.95430  Biso   1.000  P
  O121     1.0000 0.31470  0.39390  0.06590  Biso   1.000  O
  O122     1.0000 0.54340  0.34980  0.13500  Biso   1.000  O
  O123     1.0000 0.54390  0.30530  0.96030  Biso   1.000  O
  O124     1.0000 0.64490  0.28900  0.12860  Biso   1.000  O
  O125     1.0000 0.43140  0.40030  0.25300  Biso   1.000  O
  O126     1.0000 0.18930  0.39380  0.88480  Biso   1.000  O
  O127     1.0000 0.19250  0.44320  0.04940  Biso   1.000  O
  O128     1.0000 0.09300  0.45540  0.87460  Biso   1.000  O
  O129     1.0000 0.30010  0.34970  0.76650  Biso   1.000  O
  O130     1.0000 0.43010  0.35870  0.94340  Biso   1.000  O
  B13      1.0000 0.24640  0.41660  0.12830  Biso   1.000  B
  V27      1.0000 0.45030  0.88990  0.58600  Biso   1.000  V
  V28      1.0000 0.29240  0.85860  0.43370  Biso   1.000  V
  P27      1.0000 0.60590  0.82340  0.55950  Biso   1.000  P
  P28      1.0000 0.12870  0.92340  0.45430  Biso   1.000  P
  O131     1.0000 0.31470  0.89390  0.56590  Biso   1.000  O
  O132     1.0000 0.54340  0.84980  0.63500  Biso   1.000  O
  O133     1.0000 0.54390  0.80530  0.46030  Biso   1.000  O
  O134     1.0000 0.64490  0.78900  0.62860  Biso   1.000  O
  O135     1.0000 0.43140  0.90030  0.75300  Biso   1.000  O
  O136     1.0000 0.18930  0.89380  0.38480  Biso   1.000  O
  O137     1.0000 0.19250  0.94320  0.54940  Biso   1.000  O
  O138     1.0000 0.09300  0.95540  0.37460  Biso   1.000  O
  O139     1.0000 0.30010  0.84970  0.26650  Biso   1.000  O
  O140     1.0000 0.43010  0.85870  0.44340  Biso   1.000  O
  B14      1.0000 0.24640  0.91660  0.62830  Biso   1.000  B
  V29      1.0000 0.95030  0.38990  0.58600  Biso   1.000  V
  V30      1.0000 0.79240  0.35860  0.43370  Biso   1.000  V
  P29      1.0000 0.10590  0.32340  0.55950  Biso   1.000  P
  P30      1.0000 0.62870  0.42340  0.45430  Biso   1.000  P
  O141     1.0000 0.81470  0.39390  0.56590  Biso   1.000  O
  O142     1.0000 0.04340  0.34980  0.63500  Biso   1.000  O
  O143     1.0000 0.04390  0.30530  0.46030  Biso   1.000  O
  O144     1.0000 0.14490  0.28900  0.62860  Biso   1.000  O
  O145     1.0000 0.93140  0.40030  0.75300  Biso   1.000  O
  O146     1.0000 0.68930  0.39380  0.38480  Biso   1.000  O
  O147     1.0000 0.69250  0.44320  0.54940  Biso   1.000  O
  O148     1.0000 0.59300  0.45540  0.37460  Biso   1.000  O
  O149     1.0000 0.80010  0.34970  0.26650  Biso   1.000  O
  O150     1.0000 0.93010  0.35870  0.44340  Biso   1.000  O
  B15      1.0000 0.74640  0.41660  0.62830  Biso   1.000  B
  V31      1.0000 0.95030  0.88990  0.08600  Biso   1.000  V
  V32      1.0000 0.79240  0.85860  0.93370  Biso   1.000  V
  P31      1.0000 0.10590  0.82340  0.05950  Biso   1.000  P
  P32      1.0000 0.62870  0.92340  0.95430  Biso   1.000  P
  O151     1.0000 0.81470  0.89390  0.06590  Biso   1.000  O
  O152     1.0000 0.04340  0.84980  0.13500  Biso   1.000  O
  O153     1.0000 0.04390  0.80530  0.96030  Biso   1.000  O
  O154     1.0000 0.14490  0.78900  0.12860  Biso   1.000  O
  O155     1.0000 0.93140  0.90030  0.25300  Biso   1.000  O
  O156     1.0000 0.68930  0.89380  0.88480  Biso   1.000  O
  O157     1.0000 0.69250  0.94320  0.04940  Biso   1.000  O
  O158     1.0000 0.59300  0.95540  0.87460  Biso   1.000  O
  O159     1.0000 0.80010  0.84970  0.76650  Biso   1.000  O
  O160     1.0000 0.93010  0.85870  0.94340  Biso   1.000  O
  B16      1.0000 0.74640  0.91660  0.12830  Biso   1.000  B
  V33      1.0000 0.50000  0.00000  0.90200  Biso   1.000  V
  V34      1.0000 0.50000  0.50000  0.40200  Biso   1.000  V
  V35      1.0000 0.00000  0.00000  0.40200  Biso   1.000  V
  V36      1.0000 0.00000  0.50000  0.90200  Biso   1.000  V
  V37      1.0000 0.75000  0.25000  0.15200  Biso   1.000  V
  V38      1.0000 0.75000  0.75000  0.65200  Biso   1.000  V
  V39      1.0000 0.25000  0.25000  0.65200  Biso   1.000  V
  V40      1.0000 0.25000  0.75000  0.15200  Biso   1.000  V
