data_SEJBAL_clean
_audit_creation_date              2014-07-02
_audit_creation_method            'Materials Studio'
_symmetry_space_group_name_H-M    'P1'
_symmetry_Int_Tables_number       1
_symmetry_cell_setting            triclinic
loop_
_symmetry_equiv_pos_as_xyz
  x,y,z
_cell_length_a                    8.2420
_cell_length_b                    11.2590
_cell_length_c                    12.8981
_cell_angle_alpha                 104.2390
_cell_angle_beta                  108.6330
_cell_angle_gamma                 90.0000
loop_
_atom_site_label
_atom_site_type_symbol
_atom_site_fract_x
_atom_site_fract_y
_atom_site_fract_z
_atom_site_U_iso_or_equiv
_atom_site_adp_type
_atom_site_occupancy
Ni1    Ni    0.49144   0.43674   0.37130   0.01267  Uiso   1.00
Ni2    Ni    0.12014   0.56326   0.62870   0.01267  Uiso   1.00
H1     H     0.99850   0.70070   0.35680   0.01267  Uiso   1.00
H2     H     0.92640   0.78790   0.20520   0.01267  Uiso   1.00
H3     H     0.70750   0.69330   0.03980   0.01267  Uiso   1.00
H4     H     0.32030   0.59800   0.22340   0.01267  Uiso   1.00
H5     H     0.31420   0.79560   0.21680   0.01267  Uiso   1.00
H6     H     0.66180   0.88950   0.52860   0.01267  Uiso   1.00
H7     H     0.64850   0.68940   0.52900   0.01267  Uiso   1.00
H8     H     0.73620   0.25530   0.46400   0.01267  Uiso   1.00
H9     H     0.73900   0.05420   0.46960   0.01267  Uiso   1.00
H10    H     0.25310   0.99300   0.26180   0.01267  Uiso   1.00
H11    H     0.26460   0.19700   0.25820   0.01267  Uiso   1.00
H12    H     0.64170   0.29930   0.64320   0.01267  Uiso   1.00
H13    H     0.72120   0.21210   0.79480   0.01267  Uiso   1.00
H14    H     0.66770   0.30670   0.96020   0.01267  Uiso   1.00
H15    H     0.09690   0.40200   0.77660   0.01267  Uiso   1.00
H16    H     0.09740   0.20440   0.78320   0.01267  Uiso   1.00
H17    H     0.13320   0.11050   0.47140   0.01267  Uiso   1.00
H18    H     0.11950   0.31060   0.47100   0.01267  Uiso   1.00
H19    H     0.27220   0.74470   0.53600   0.01267  Uiso   1.00
H20    H     0.26940   0.94580   0.53040   0.01267  Uiso   1.00
H21    H     0.99130   0.00700   0.73820   0.01267  Uiso   1.00
H22    H     0.00640   0.80300   0.74180   0.01267  Uiso   1.00
C1     C     0.64320   0.55530   0.09660   0.01267  Uiso   1.00
C2     C     0.68390   0.50030   0.18860   0.01267  Uiso   1.00
C3     C     0.81630   0.55880   0.28700   0.01267  Uiso   1.00
C4     C     0.90760   0.66410   0.29140   0.01267  Uiso   1.00
C5     C     0.86590   0.71580   0.20020   0.01267  Uiso   1.00
C6     C     0.73430   0.66020   0.10180   0.01267  Uiso   1.00
C7     C     0.58540   0.38270   0.17760   0.01267  Uiso   1.00
C8     C     0.86040   0.50960   0.39120   0.01267  Uiso   1.00
C9     C     0.38980   0.65750   0.28580   0.01267  Uiso   1.00
C10    C     0.38790   0.77560   0.28020   0.01267  Uiso   1.00
C11    C     0.49640   0.86880   0.36960   0.01267  Uiso   1.00
C12    C     0.59200   0.83190   0.46480   0.01267  Uiso   1.00
C13    C     0.58300   0.71120   0.46420   0.01267  Uiso   1.00
C14    C     0.63700   0.20300   0.42300   0.01267  Uiso   1.00
C15    C     0.63930   0.08070   0.42640   0.01267  Uiso   1.00
C16    C     0.50060   0.99900   0.36840   0.01267  Uiso   1.00
C17    C     0.35290   0.04440   0.30340   0.01267  Uiso   1.00
C18    C     0.36070   0.16830   0.30300   0.01267  Uiso   1.00
C19    C     0.54660   0.44470   0.90340   0.01267  Uiso   1.00
C20    C     0.49530   0.49970   0.81140   0.01267  Uiso   1.00
C21    C     0.52930   0.44120   0.71300   0.01267  Uiso   1.00
C22    C     0.61620   0.33590   0.70860   0.01267  Uiso   1.00
C23    C     0.66570   0.28420   0.79980   0.01267  Uiso   1.00
C24    C     0.63250   0.33980   0.89820   0.01267  Uiso   1.00
C25    C     0.40780   0.61730   0.82240   0.01267  Uiso   1.00
C26    C     0.46920   0.49040   0.60880   0.01267  Uiso   1.00
C27    C     0.10400   0.34250   0.71420   0.01267  Uiso   1.00
C28    C     0.10770   0.22440   0.71980   0.01267  Uiso   1.00
C29    C     0.12680   0.13120   0.63040   0.01267  Uiso   1.00
C30    C     0.12720   0.16810   0.53520   0.01267  Uiso   1.00
C31    C     0.11880   0.28880   0.53580   0.01267  Uiso   1.00
C32    C     0.21400   0.79700   0.57700   0.01267  Uiso   1.00
C33    C     0.21290   0.91930   0.57360   0.01267  Uiso   1.00
C34    C     0.13220   0.00100   0.63160   0.01267  Uiso   1.00
C35    C     0.04950   0.95560   0.69660   0.01267  Uiso   1.00
C36    C     0.05770   0.83170   0.69700   0.01267  Uiso   1.00
N1     N     0.48602   0.62070   0.37624   0.01267  Uiso   1.00
N2     N     0.49931   0.24890   0.36402   0.01267  Uiso   1.00
N3     N     0.10978   0.37930   0.62376   0.01267  Uiso   1.00
N4     N     0.13529   0.75110   0.63598   0.01267  Uiso   1.00
O1     O     0.44471   0.38610   0.19722   0.01267  Uiso   1.00
O2     O     0.64405   0.28440   0.13890   0.01267  Uiso   1.00
O3     O     0.75352   0.44800   0.40824   0.01267  Uiso   1.00
O4     O     0.01337   0.53760   0.45694   0.01267  Uiso   1.00
O5     O     0.24749   0.61390   0.80278   0.01267  Uiso   1.00
O6     O     0.50515   0.71560   0.86110   0.01267  Uiso   1.00
O7     O     0.34528   0.55200   0.59176   0.01267  Uiso   1.00
O8     O     0.55643   0.46240   0.54306   0.01267  Uiso   1.00
O9     O     0.50360   0.50000   1.00000   0.01267  Uiso   1.00
