data_SEMFIB_charged
_audit_creation_date              2014-07-02
_audit_creation_method            'Materials Studio'
_symmetry_space_group_name_H-M    'P1'
_symmetry_Int_Tables_number       1
_symmetry_cell_setting            triclinic
loop_
_symmetry_equiv_pos_as_xyz
  x,y,z
_cell_length_a                    12.5971
_cell_length_b                    12.5971
_cell_length_c                    24.4756
_cell_angle_alpha                 104.0510
_cell_angle_beta                  104.0520
_cell_angle_gamma                 93.2398
loop_
_atom_site_label
_atom_site_type_symbol
_atom_site_fract_x
_atom_site_fract_y
_atom_site_fract_z
_atom_site_U_iso_or_equiv
_atom_site_adp_type
_atom_site_occupancy
Cd1    Cd    0.50000   0.50000   0.50000   0.01267  Uiso   1.00
Cd2    Cd    0.50000   0.00000   0.50000   0.01267  Uiso   1.00
Cd3    Cd    0.50000   0.50000  -0.00000   0.01267  Uiso   1.00
Cd4    Cd    1.00000   0.50000  -0.00000   0.01267  Uiso   1.00
P1     P     0.99035   0.24035   0.25000   0.01267  Uiso   1.00
P2     P     0.75965   0.00965   0.25000   0.01267  Uiso   1.00
P3     P     0.00965   0.75965   0.75000   0.01267  Uiso   1.00
P4     P     0.24035   0.99035   0.75000   0.01267  Uiso   1.00
P5     P     0.76499   0.23501   0.25000   0.01267  Uiso   1.00
P6     P     0.98501   0.01499   0.25000   0.01267  Uiso   1.00
P7     P     0.23501   0.76499   0.75000   0.01267  Uiso   1.00
P8     P     0.01499   0.98501   0.75000   0.01267  Uiso   1.00
H1     H     0.10160   0.18600   0.19660   0.01267  Uiso   1.00
H2     H     0.96770   0.41950   0.19420   0.01267  Uiso   1.00
H3     H     0.95830   0.51130   0.12360   0.01267  Uiso   1.00
H4     H     0.71760   0.41240   0.07500   0.01267  Uiso   1.00
H5     H     0.12580   0.30640   0.04360   0.01267  Uiso   1.00
H6     H     0.77400   0.32580   0.14700   0.01267  Uiso   1.00
H7     H     0.14310   0.20750   0.11160   0.01267  Uiso   1.00
H8     H     0.45670   0.26050   0.14220   0.01267  Uiso   1.00
H9     H     0.41310   0.35290   0.07300   0.01267  Uiso   1.00
H10    H     0.58340   0.20120   0.20420   0.01267  Uiso   1.00
H11    H     0.59500   0.01060   0.19660   0.01267  Uiso   1.00
H12    H     0.72650   0.77470   0.19420   0.01267  Uiso   1.00
H13    H     0.66530   0.61230   0.12360   0.01267  Uiso   1.00
H14    H     0.85740   0.66260   0.07500   0.01267  Uiso   1.00
H15    H     0.41780   0.73720   0.04360   0.01267  Uiso   1.00
H16    H     0.87300   0.82120   0.14700   0.01267  Uiso   1.00
H17    H     0.46850   0.90410   0.11160   0.01267  Uiso   1.00
H18    H     0.18550   0.88170   0.14220   0.01267  Uiso   1.00
H19    H     0.15990   0.72010   0.07300   0.01267  Uiso   1.00
H20    H     0.12080   0.00300   0.20420   0.01267  Uiso   1.00
H21    H     0.81400   0.89840   0.30340   0.01267  Uiso   1.00
H22    H     0.58050   0.03230   0.30580   0.01267  Uiso   1.00
H23    H     0.48870   0.04170   0.37640   0.01267  Uiso   1.00
H24    H     0.58760   0.28240   0.42500   0.01267  Uiso   1.00
H25    H     0.69360   0.87420   0.45640   0.01267  Uiso   1.00
H26    H     0.67420   0.22600   0.35300   0.01267  Uiso   1.00
H27    H     0.79250   0.85690   0.38840   0.01267  Uiso   1.00
H28    H     0.73950   0.54330   0.35780   0.01267  Uiso   1.00
H29    H     0.64710   0.58690   0.42700   0.01267  Uiso   1.00
H30    H     0.79880   0.41660   0.29580   0.01267  Uiso   1.00
H31    H     0.98940   0.40500   0.30340   0.01267  Uiso   1.00
H32    H     0.22530   0.27350   0.30580   0.01267  Uiso   1.00
H33    H     0.38770   0.33470   0.37640   0.01267  Uiso   1.00
H34    H     0.33740   0.14260   0.42500   0.01267  Uiso   1.00
H35    H     0.26280   0.58220   0.45640   0.01267  Uiso   1.00
H36    H     0.17880   0.12700   0.35300   0.01267  Uiso   1.00
H37    H     0.09590   0.53150   0.38840   0.01267  Uiso   1.00
H38    H     0.11830   0.81450   0.35780   0.01267  Uiso   1.00
H39    H     0.27990   0.84010   0.42700   0.01267  Uiso   1.00
H40    H     0.99700   0.87920   0.29580   0.01267  Uiso   1.00
H41    H     0.89840   0.81400   0.80340   0.01267  Uiso   1.00
H42    H     0.03230   0.58050   0.80580   0.01267  Uiso   1.00
H43    H     0.04170   0.48870   0.87640   0.01267  Uiso   1.00
H44    H     0.28240   0.58760   0.92500   0.01267  Uiso   1.00
H45    H     0.87420   0.69360   0.95640   0.01267  Uiso   1.00
H46    H     0.22600   0.67420   0.85300   0.01267  Uiso   1.00
H47    H     0.85690   0.79250   0.88840   0.01267  Uiso   1.00
H48    H     0.54330   0.73950   0.85780   0.01267  Uiso   1.00
H49    H     0.58690   0.64710   0.92700   0.01267  Uiso   1.00
H50    H     0.41660   0.79880   0.79580   0.01267  Uiso   1.00
H51    H     0.40500   0.98940   0.80340   0.01267  Uiso   1.00
H52    H     0.27350   0.22530   0.80580   0.01267  Uiso   1.00
H53    H     0.33470   0.38770   0.87640   0.01267  Uiso   1.00
H54    H     0.14260   0.33740   0.92500   0.01267  Uiso   1.00
H55    H     0.58220   0.26280   0.95640   0.01267  Uiso   1.00
H56    H     0.12700   0.17880   0.85300   0.01267  Uiso   1.00
H57    H     0.53150   0.09590   0.88840   0.01267  Uiso   1.00
H58    H     0.81450   0.11830   0.85780   0.01267  Uiso   1.00
H59    H     0.84010   0.27990   0.92700   0.01267  Uiso   1.00
H60    H     0.87920   0.99700   0.79580   0.01267  Uiso   1.00
H61    H     0.18600   0.10160   0.69660   0.01267  Uiso   1.00
H62    H     0.41950   0.96770   0.69420   0.01267  Uiso   1.00
H63    H     0.51130   0.95830   0.62360   0.01267  Uiso   1.00
H64    H     0.41240   0.71760   0.57500   0.01267  Uiso   1.00
H65    H     0.30640   0.12580   0.54360   0.01267  Uiso   1.00
H66    H     0.32580   0.77400   0.64700   0.01267  Uiso   1.00
H67    H     0.20750   0.14310   0.61160   0.01267  Uiso   1.00
H68    H     0.26050   0.45670   0.64220   0.01267  Uiso   1.00
H69    H     0.35290   0.41310   0.57300   0.01267  Uiso   1.00
H70    H     0.20120   0.58340   0.70420   0.01267  Uiso   1.00
H71    H     0.01060   0.59500   0.69660   0.01267  Uiso   1.00
H72    H     0.77470   0.72650   0.69420   0.01267  Uiso   1.00
H73    H     0.61230   0.66530   0.62360   0.01267  Uiso   1.00
H74    H     0.66260   0.85740   0.57500   0.01267  Uiso   1.00
H75    H     0.73720   0.41780   0.54360   0.01267  Uiso   1.00
H76    H     0.82120   0.87300   0.64700   0.01267  Uiso   1.00
H77    H     0.90410   0.46850   0.61160   0.01267  Uiso   1.00
H78    H     0.88170   0.18550   0.64220   0.01267  Uiso   1.00
H79    H     0.72010   0.15990   0.57300   0.01267  Uiso   1.00
H80    H     0.00300   0.12080   0.70420   0.01267  Uiso   1.00
H81    H     0.53270   0.28270   0.56540   0.01267  Uiso   1.00
H82    H     0.71730   0.46730   0.93460   0.01267  Uiso   1.00
H83    H     0.46730   0.71730   0.43460   0.01267  Uiso   1.00
H84    H     0.28270   0.53270   0.06540   0.01267  Uiso   1.00
C1     C     0.62257   0.28417   0.15514   0.01267  Uiso   1.00
C2     C     0.05200   0.29908   0.15988   0.01267  Uiso   1.00
C3     C     0.99919   0.39379   0.16358   0.01267  Uiso   1.00
C4     C     0.99460   0.44860   0.12100   0.01267  Uiso   1.00
C5     C     0.66452   0.38292   0.08964   0.01267  Uiso   1.00
C6     C     0.09318   0.32838   0.07416   0.01267  Uiso   1.00
C7     C     0.69931   0.33031   0.13282   0.01267  Uiso   1.00
C8     C     0.10337   0.26777   0.11434   0.01267  Uiso   1.00
C9     C     0.51235   0.29235   0.13030   0.01267  Uiso   1.00
C10    C     0.48714   0.34754   0.08828   0.01267  Uiso   1.00
C11    C     0.03257   0.87097   0.15514   0.01267  Uiso   1.00
C12    C     0.60788   0.86080   0.15988   0.01267  Uiso   1.00
C13    C     0.66439   0.76979   0.16358   0.01267  Uiso   1.00
C14    C     0.62640   0.67240   0.12100   0.01267  Uiso   1.00
C15    C     0.92512   0.70672   0.08964   0.01267  Uiso   1.00
C16    C     0.48098   0.74578   0.07416   0.01267  Uiso   1.00
C17    C     0.93351   0.80251   0.13282   0.01267  Uiso   1.00
C18    C     0.51097   0.84657   0.11434   0.01267  Uiso   1.00
C19    C     0.11795   0.83795   0.13030   0.01267  Uiso   1.00
C20    C     0.10114   0.74074   0.08828   0.01267  Uiso   1.00
C21    C     0.71583   0.37743   0.34486   0.01267  Uiso   1.00
C22    C     0.70092   0.94800   0.34012   0.01267  Uiso   1.00
C23    C     0.60621   0.00081   0.33642   0.01267  Uiso   1.00
C24    C     0.55140   0.00540   0.37900   0.01267  Uiso   1.00
C25    C     0.61708   0.33548   0.41036   0.01267  Uiso   1.00
C26    C     0.67162   0.90682   0.42584   0.01267  Uiso   1.00
C27    C     0.66969   0.30069   0.36718   0.01267  Uiso   1.00
C28    C     0.73223   0.89663   0.38566   0.01267  Uiso   1.00
C29    C     0.70765   0.48765   0.36970   0.01267  Uiso   1.00
C30    C     0.65246   0.51286   0.41172   0.01267  Uiso   1.00
C31    C     0.12903   0.96743   0.34486   0.01267  Uiso   1.00
C32    C     0.13920   0.39212   0.34012   0.01267  Uiso   1.00
C33    C     0.23021   0.33561   0.33642   0.01267  Uiso   1.00
C34    C     0.32760   0.37360   0.37900   0.01267  Uiso   1.00
C35    C     0.29328   0.07488   0.41036   0.01267  Uiso   1.00
C36    C     0.25422   0.51902   0.42584   0.01267  Uiso   1.00
C37    C     0.19749   0.06649   0.36718   0.01267  Uiso   1.00
C38    C     0.15343   0.48903   0.38566   0.01267  Uiso   1.00
C39    C     0.16205   0.88205   0.36970   0.01267  Uiso   1.00
C40    C     0.25926   0.89886   0.41172   0.01267  Uiso   1.00
C41    C     0.37743   0.71583   0.84486   0.01267  Uiso   1.00
C42    C     0.94800   0.70092   0.84012   0.01267  Uiso   1.00
C43    C     0.00081   0.60621   0.83642   0.01267  Uiso   1.00
C44    C     0.00540   0.55140   0.87900   0.01267  Uiso   1.00
C45    C     0.33548   0.61708   0.91036   0.01267  Uiso   1.00
C46    C     0.90682   0.67162   0.92584   0.01267  Uiso   1.00
C47    C     0.30069   0.66969   0.86718   0.01267  Uiso   1.00
C48    C     0.89663   0.73223   0.88566   0.01267  Uiso   1.00
C49    C     0.48765   0.70765   0.86970   0.01267  Uiso   1.00
C50    C     0.51286   0.65246   0.91172   0.01267  Uiso   1.00
C51    C     0.96743   0.12903   0.84486   0.01267  Uiso   1.00
C52    C     0.39212   0.13920   0.84012   0.01267  Uiso   1.00
C53    C     0.33561   0.23021   0.83642   0.01267  Uiso   1.00
C54    C     0.37360   0.32760   0.87900   0.01267  Uiso   1.00
C55    C     0.07488   0.29328   0.91036   0.01267  Uiso   1.00
C56    C     0.51902   0.25422   0.92584   0.01267  Uiso   1.00
C57    C     0.06649   0.19749   0.86718   0.01267  Uiso   1.00
C58    C     0.48903   0.15343   0.88566   0.01267  Uiso   1.00
C59    C     0.88205   0.16205   0.86970   0.01267  Uiso   1.00
C60    C     0.89886   0.25926   0.91172   0.01267  Uiso   1.00
C61    C     0.28417   0.62257   0.65514   0.01267  Uiso   1.00
C62    C     0.29908   0.05200   0.65988   0.01267  Uiso   1.00
C63    C     0.39379   0.99919   0.66358   0.01267  Uiso   1.00
C64    C     0.44860   0.99460   0.62100   0.01267  Uiso   1.00
C65    C     0.38292   0.66452   0.58964   0.01267  Uiso   1.00
C66    C     0.32838   0.09318   0.57416   0.01267  Uiso   1.00
C67    C     0.33031   0.69931   0.63282   0.01267  Uiso   1.00
C68    C     0.26777   0.10337   0.61434   0.01267  Uiso   1.00
C69    C     0.29235   0.51235   0.63030   0.01267  Uiso   1.00
C70    C     0.34754   0.48714   0.58828   0.01267  Uiso   1.00
C71    C     0.87097   0.03257   0.65514   0.01267  Uiso   1.00
C72    C     0.86080   0.60788   0.65988   0.01267  Uiso   1.00
C73    C     0.76979   0.66439   0.66358   0.01267  Uiso   1.00
C74    C     0.67240   0.62640   0.62100   0.01267  Uiso   1.00
C75    C     0.70672   0.92512   0.58964   0.01267  Uiso   1.00
C76    C     0.74578   0.48098   0.57416   0.01267  Uiso   1.00
C77    C     0.80251   0.93351   0.63282   0.01267  Uiso   1.00
C78    C     0.84657   0.51097   0.61434   0.01267  Uiso   1.00
C79    C     0.83795   0.11795   0.63030   0.01267  Uiso   1.00
C80    C     0.74074   0.10114   0.58828   0.01267  Uiso   1.00
C81    C     0.51242   0.26242   0.52484   0.01267  Uiso   1.00
C82    C     0.73758   0.48758   0.97516   0.01267  Uiso   1.00
C83    C     0.48758   0.73758   0.47516   0.01267  Uiso   1.00
C84    C     0.26242   0.51242   0.02484   0.01267  Uiso   1.00
N1     N     0.86488   0.24898   0.22260   0.01267  Uiso   1.00
N2     N     0.05727   0.23527   0.19906   0.01267  Uiso   1.00
N3     N     0.64872   0.22556   0.19758   0.01267  Uiso   1.00
N4     N     0.03904   0.41764   0.07628   0.01267  Uiso   1.00
N5     N     0.56032   0.39412   0.06764   0.01267  Uiso   1.00
N6     N     0.85772   0.97362   0.22260   0.01267  Uiso   1.00
N7     N     0.64179   0.96379   0.19906   0.01267  Uiso   1.00
N8     N     0.04886   0.97202   0.19758   0.01267  Uiso   1.00
N9     N     0.53724   0.65864   0.07628   0.01267  Uiso   1.00
N10    N     0.00732   0.67352   0.06764   0.01267  Uiso   1.00
N11    N     0.75102   0.13512   0.27740   0.01267  Uiso   1.00
N12    N     0.76473   0.94273   0.30094   0.01267  Uiso   1.00
N13    N     0.77444   0.35128   0.30242   0.01267  Uiso   1.00
N14    N     0.58236   0.96096   0.42372   0.01267  Uiso   1.00
N15    N     0.60588   0.43968   0.43236   0.01267  Uiso   1.00
N16    N     0.02638   0.14228   0.27740   0.01267  Uiso   1.00
N17    N     0.03621   0.35821   0.30094   0.01267  Uiso   1.00
N18    N     0.02798   0.95114   0.30242   0.01267  Uiso   1.00
N19    N     0.34136   0.46276   0.42372   0.01267  Uiso   1.00
N20    N     0.32648   0.99268   0.43236   0.01267  Uiso   1.00
N21    N     0.13512   0.75102   0.77740   0.01267  Uiso   1.00
N22    N     0.94273   0.76473   0.80094   0.01267  Uiso   1.00
N23    N     0.35128   0.77444   0.80242   0.01267  Uiso   1.00
N24    N     0.96096   0.58236   0.92372   0.01267  Uiso   1.00
N25    N     0.43968   0.60588   0.93236   0.01267  Uiso   1.00
N26    N     0.14228   0.02638   0.77740   0.01267  Uiso   1.00
N27    N     0.35821   0.03621   0.80094   0.01267  Uiso   1.00
N28    N     0.95114   0.02798   0.80242   0.01267  Uiso   1.00
N29    N     0.46276   0.34136   0.92372   0.01267  Uiso   1.00
N30    N     0.99268   0.32648   0.93236   0.01267  Uiso   1.00
N31    N     0.24898   0.86488   0.72260   0.01267  Uiso   1.00
N32    N     0.23527   0.05727   0.69906   0.01267  Uiso   1.00
N33    N     0.22556   0.64872   0.69758   0.01267  Uiso   1.00
N34    N     0.41764   0.03904   0.57628   0.01267  Uiso   1.00
N35    N     0.39412   0.56032   0.56764   0.01267  Uiso   1.00
N36    N     0.97362   0.85772   0.72260   0.01267  Uiso   1.00
N37    N     0.96379   0.64179   0.69906   0.01267  Uiso   1.00
N38    N     0.97202   0.04886   0.69758   0.01267  Uiso   1.00
N39    N     0.65864   0.53724   0.57628   0.01267  Uiso   1.00
N40    N     0.67352   0.00732   0.56764   0.01267  Uiso   1.00
O1     O     0.46088   0.32488   0.50156   0.01267  Uiso   1.00
O2     O     0.54068   0.17668   0.50156   0.01267  Uiso   1.00
O3     O     0.67512   0.53912   0.99844   0.01267  Uiso   1.00
O4     O     0.82332   0.45932   0.99844   0.01267  Uiso   1.00
O5     O     0.53912   0.67512   0.49844   0.01267  Uiso   1.00
O6     O     0.45932   0.82332   0.49844   0.01267  Uiso   1.00
O7     O     0.32488   0.46088   0.00156   0.01267  Uiso   1.00
O8     O     0.17668   0.54068   0.00156   0.01267  Uiso   1.00
Cl1    Cl    0.88591   0.63591   0.27182   0.01267  Uiso   1.00
O9     O     0.99210   0.65830   0.25960   0.01267  Uiso   1.00
O10    O     0.93840   0.56580   0.30340   0.01267  Uiso   1.00
O11    O     0.76750   0.60130   0.25960   0.01267  Uiso   1.00
O12    O     0.86500   0.73760   0.30340   0.01267  Uiso   1.00
Cl2    Cl    0.36409   0.11409   0.22818   0.01267  Uiso   1.00
O13    O     0.34170   0.00790   0.24040   0.01267  Uiso   1.00
O14    O     0.43420   0.06160   0.19660   0.01267  Uiso   1.00
O15    O     0.39870   0.23250   0.24040   0.01267  Uiso   1.00
O16    O     0.26240   0.13500   0.19660   0.01267  Uiso   1.00
Cl3    Cl    0.11409   0.36409   0.72818   0.01267  Uiso   1.00
O17    O     0.00790   0.34170   0.74040   0.01267  Uiso   1.00
O18    O     0.06160   0.43420   0.69660   0.01267  Uiso   1.00
O19    O     0.23250   0.39870   0.74040   0.01267  Uiso   1.00
O20    O     0.13500   0.26240   0.69660   0.01267  Uiso   1.00
Cl4    Cl    0.63591   0.88591   0.77182   0.01267  Uiso   1.00
O21    O     0.65830   0.99210   0.75960   0.01267  Uiso   1.00
O22    O     0.56580   0.93840   0.80340   0.01267  Uiso   1.00
O23    O     0.60130   0.76750   0.75960   0.01267  Uiso   1.00
O24    O     0.73760   0.86500   0.80340   0.01267  Uiso   1.00
