data_SERJUV_clean
_audit_creation_date              2014-07-02
_audit_creation_method            'Materials Studio'
_symmetry_space_group_name_H-M    'P1'
_symmetry_Int_Tables_number       1
_symmetry_cell_setting            triclinic
loop_
_symmetry_equiv_pos_as_xyz
  x,y,z
_cell_length_a                    8.5083
_cell_length_b                    15.7040
_cell_length_c                    28.4520
_cell_angle_alpha                 90.0000
_cell_angle_beta                  90.0000
_cell_angle_gamma                 90.0000
loop_
_atom_site_label
_atom_site_type_symbol
_atom_site_fract_x
_atom_site_fract_y
_atom_site_fract_z
_atom_site_U_iso_or_equiv
_atom_site_adp_type
_atom_site_occupancy
Y1     Y     0.97378   0.80142   0.58486   0.01267  Uiso   1.00
Y2     Y     0.52622   0.30142   0.41514   0.01267  Uiso   1.00
Y3     Y     0.02622   0.19858   0.08486   0.01267  Uiso   1.00
Y4     Y     0.47378   0.69858   0.91514   0.01267  Uiso   1.00
Y5     Y     0.02622   0.19858   0.41514   0.01267  Uiso   1.00
Y6     Y     0.47378   0.69858   0.58486   0.01267  Uiso   1.00
Y7     Y     0.97378   0.80142   0.91514   0.01267  Uiso   1.00
Y8     Y     0.52622   0.30142   0.08486   0.01267  Uiso   1.00
H1     H     0.89870   0.46430   0.39840   0.01267  Uiso   1.00
H2     H     0.27730   0.52640   0.47630   0.01267  Uiso   1.00
H3     H     0.90240   0.68180   0.46470   0.01267  Uiso   1.00
H4     H     0.32630   0.59550   0.68070   0.01267  Uiso   1.00
H5     H     0.60130   0.96430   0.60160   0.01267  Uiso   1.00
H6     H     0.22270   0.02640   0.52370   0.01267  Uiso   1.00
H7     H     0.59760   0.18180   0.53530   0.01267  Uiso   1.00
H8     H     0.17370   0.09550   0.31930   0.01267  Uiso   1.00
H9     H     0.10130   0.53570   0.89840   0.01267  Uiso   1.00
H10    H     0.72270   0.47360   0.97630   0.01267  Uiso   1.00
H11    H     0.09760   0.31820   0.96470   0.01267  Uiso   1.00
H12    H     0.67370   0.40450   0.18070   0.01267  Uiso   1.00
H13    H     0.39870   0.03570   0.10160   0.01267  Uiso   1.00
H14    H     0.77730   0.97360   0.02370   0.01267  Uiso   1.00
H15    H     0.40240   0.81820   0.03530   0.01267  Uiso   1.00
H16    H     0.82630   0.90450   0.81930   0.01267  Uiso   1.00
H17    H     0.10130   0.53570   0.60160   0.01267  Uiso   1.00
H18    H     0.72270   0.47360   0.52370   0.01267  Uiso   1.00
H19    H     0.09760   0.31820   0.53530   0.01267  Uiso   1.00
H20    H     0.67370   0.40450   0.31930   0.01267  Uiso   1.00
H21    H     0.39870   0.03570   0.39840   0.01267  Uiso   1.00
H22    H     0.77730   0.97360   0.47630   0.01267  Uiso   1.00
H23    H     0.40240   0.81820   0.46470   0.01267  Uiso   1.00
H24    H     0.82630   0.90450   0.68070   0.01267  Uiso   1.00
H25    H     0.89870   0.46430   0.10160   0.01267  Uiso   1.00
H26    H     0.27730   0.52640   0.02370   0.01267  Uiso   1.00
H27    H     0.90240   0.68180   0.03530   0.01267  Uiso   1.00
H28    H     0.32630   0.59550   0.81930   0.01267  Uiso   1.00
H29    H     0.60130   0.96430   0.89840   0.01267  Uiso   1.00
H30    H     0.22270   0.02640   0.97630   0.01267  Uiso   1.00
H31    H     0.59760   0.18180   0.96470   0.01267  Uiso   1.00
H32    H     0.17370   0.09550   0.18070   0.01267  Uiso   1.00
H33    H     0.10320   0.78290   0.75000   0.01267  Uiso   1.00
H34    H     0.39680   0.28290   0.25000   0.01267  Uiso   1.00
H35    H     0.89680   0.21710   0.25000   0.01267  Uiso   1.00
H36    H     0.60320   0.71710   0.75000   0.01267  Uiso   1.00
C1     C     0.95140   0.50380   0.41816   0.01267  Uiso   1.00
C2     C     0.09920   0.48220   0.43478   0.01267  Uiso   1.00
C3     C     0.17570   0.53910   0.46433   0.01267  Uiso   1.00
C4     C     0.10210   0.61400   0.47595   0.01267  Uiso   1.00
C5     C     0.95310   0.62980   0.45673   0.01267  Uiso   1.00
C6     C     0.17270   0.67640   0.51058   0.01267  Uiso   1.00
C7     C     0.17080   0.39800   0.42396   0.01267  Uiso   1.00
C8     C     0.29520   0.62050   0.70964   0.01267  Uiso   1.00
C9     C     0.21050   0.69550   0.70796   0.01267  Uiso   1.00
C10    C     0.16650   0.73330   0.66201   0.01267  Uiso   1.00
C11    C     0.54860   0.00380   0.58184   0.01267  Uiso   1.00
C12    C     0.40080   0.98220   0.56522   0.01267  Uiso   1.00
C13    C     0.32430   0.03910   0.53567   0.01267  Uiso   1.00
C14    C     0.39790   0.11400   0.52405   0.01267  Uiso   1.00
C15    C     0.54690   0.12980   0.54327   0.01267  Uiso   1.00
C16    C     0.32730   0.17640   0.48942   0.01267  Uiso   1.00
C17    C     0.32920   0.89800   0.57604   0.01267  Uiso   1.00
C18    C     0.20480   0.12050   0.29036   0.01267  Uiso   1.00
C19    C     0.28950   0.19550   0.29204   0.01267  Uiso   1.00
C20    C     0.33350   0.23330   0.33799   0.01267  Uiso   1.00
C21    C     0.04860   0.49620   0.91816   0.01267  Uiso   1.00
C22    C     0.90080   0.51780   0.93478   0.01267  Uiso   1.00
C23    C     0.82430   0.46090   0.96433   0.01267  Uiso   1.00
C24    C     0.89790   0.38600   0.97595   0.01267  Uiso   1.00
C25    C     0.04690   0.37020   0.95673   0.01267  Uiso   1.00
C26    C     0.82730   0.32360   0.01058   0.01267  Uiso   1.00
C27    C     0.82920   0.60200   0.92396   0.01267  Uiso   1.00
C28    C     0.70480   0.37950   0.20964   0.01267  Uiso   1.00
C29    C     0.78950   0.30450   0.20796   0.01267  Uiso   1.00
C30    C     0.83350   0.26670   0.16201   0.01267  Uiso   1.00
C31    C     0.45140   0.99620   0.08184   0.01267  Uiso   1.00
C32    C     0.59920   0.01780   0.06522   0.01267  Uiso   1.00
C33    C     0.67570   0.96090   0.03567   0.01267  Uiso   1.00
C34    C     0.60210   0.88600   0.02405   0.01267  Uiso   1.00
C35    C     0.45310   0.87020   0.04327   0.01267  Uiso   1.00
C36    C     0.67270   0.82360   0.98942   0.01267  Uiso   1.00
C37    C     0.67080   0.10200   0.07604   0.01267  Uiso   1.00
C38    C     0.79520   0.87950   0.79036   0.01267  Uiso   1.00
C39    C     0.71050   0.80450   0.79204   0.01267  Uiso   1.00
C40    C     0.66650   0.76670   0.83799   0.01267  Uiso   1.00
C41    C     0.04860   0.49620   0.58184   0.01267  Uiso   1.00
C42    C     0.90080   0.51780   0.56522   0.01267  Uiso   1.00
C43    C     0.82430   0.46090   0.53567   0.01267  Uiso   1.00
C44    C     0.89790   0.38600   0.52405   0.01267  Uiso   1.00
C45    C     0.04690   0.37020   0.54327   0.01267  Uiso   1.00
C46    C     0.82730   0.32360   0.48942   0.01267  Uiso   1.00
C47    C     0.82920   0.60200   0.57604   0.01267  Uiso   1.00
C48    C     0.70480   0.37950   0.29036   0.01267  Uiso   1.00
C49    C     0.78950   0.30450   0.29204   0.01267  Uiso   1.00
C50    C     0.83350   0.26670   0.33799   0.01267  Uiso   1.00
C51    C     0.45140   0.99620   0.41816   0.01267  Uiso   1.00
C52    C     0.59920   0.01780   0.43478   0.01267  Uiso   1.00
C53    C     0.67570   0.96090   0.46433   0.01267  Uiso   1.00
C54    C     0.60210   0.88600   0.47595   0.01267  Uiso   1.00
C55    C     0.45310   0.87020   0.45673   0.01267  Uiso   1.00
C56    C     0.67270   0.82360   0.51058   0.01267  Uiso   1.00
C57    C     0.67080   0.10200   0.42396   0.01267  Uiso   1.00
C58    C     0.79520   0.87950   0.70964   0.01267  Uiso   1.00
C59    C     0.71050   0.80450   0.70796   0.01267  Uiso   1.00
C60    C     0.66650   0.76670   0.66201   0.01267  Uiso   1.00
C61    C     0.95140   0.50380   0.08184   0.01267  Uiso   1.00
C62    C     0.09920   0.48220   0.06522   0.01267  Uiso   1.00
C63    C     0.17570   0.53910   0.03567   0.01267  Uiso   1.00
C64    C     0.10210   0.61400   0.02405   0.01267  Uiso   1.00
C65    C     0.95310   0.62980   0.04327   0.01267  Uiso   1.00
C66    C     0.17270   0.67640   0.98942   0.01267  Uiso   1.00
C67    C     0.17080   0.39800   0.07604   0.01267  Uiso   1.00
C68    C     0.29520   0.62050   0.79036   0.01267  Uiso   1.00
C69    C     0.21050   0.69550   0.79204   0.01267  Uiso   1.00
C70    C     0.16650   0.73330   0.83799   0.01267  Uiso   1.00
C71    C     0.54860   0.00380   0.91816   0.01267  Uiso   1.00
C72    C     0.40080   0.98220   0.93478   0.01267  Uiso   1.00
C73    C     0.32430   0.03910   0.96433   0.01267  Uiso   1.00
C74    C     0.39790   0.11400   0.97595   0.01267  Uiso   1.00
C75    C     0.54690   0.12980   0.95673   0.01267  Uiso   1.00
C76    C     0.32730   0.17640   0.01058   0.01267  Uiso   1.00
C77    C     0.32920   0.89800   0.92396   0.01267  Uiso   1.00
C78    C     0.20480   0.12050   0.20964   0.01267  Uiso   1.00
C79    C     0.28950   0.19550   0.20796   0.01267  Uiso   1.00
C80    C     0.33350   0.23330   0.16201   0.01267  Uiso   1.00
C81    C     0.16500   0.73260   0.75000   0.01267  Uiso   1.00
C82    C     0.33500   0.23260   0.25000   0.01267  Uiso   1.00
C83    C     0.83500   0.26740   0.25000   0.01267  Uiso   1.00
C84    C     0.66500   0.76740   0.75000   0.01267  Uiso   1.00
N1     N     0.87890   0.57680   0.42825   0.01267  Uiso   1.00
N2     N     0.62110   0.07680   0.57175   0.01267  Uiso   1.00
N3     N     0.12110   0.42320   0.92825   0.01267  Uiso   1.00
N4     N     0.37890   0.92320   0.07175   0.01267  Uiso   1.00
N5     N     0.12110   0.42320   0.57175   0.01267  Uiso   1.00
N6     N     0.37890   0.92320   0.42825   0.01267  Uiso   1.00
N7     N     0.87890   0.57680   0.07175   0.01267  Uiso   1.00
N8     N     0.62110   0.07680   0.92825   0.01267  Uiso   1.00
N9     N     0.33680   0.58010   0.75000   0.01267  Uiso   1.00
N10    N     0.16320   0.08010   0.25000   0.01267  Uiso   1.00
N11    N     0.66320   0.41990   0.25000   0.01267  Uiso   1.00
N12    N     0.83680   0.91990   0.75000   0.01267  Uiso   1.00
O1     O     0.06090   0.78970   0.66135   0.01267  Uiso   1.00
O2     O     0.22920   0.70770   0.62430   0.01267  Uiso   1.00
O3     O     0.09300   0.74070   0.52072   0.01267  Uiso   1.00
O4     O     0.30860   0.65880   0.52580   0.01267  Uiso   1.00
O5     O     0.08130   0.34080   0.40826   0.01267  Uiso   1.00
O6     O     0.31610   0.38870   0.43153   0.01267  Uiso   1.00
O7     O     0.43910   0.28970   0.33865   0.01267  Uiso   1.00
O8     O     0.27080   0.20770   0.37570   0.01267  Uiso   1.00
O9     O     0.40700   0.24070   0.47928   0.01267  Uiso   1.00
O10    O     0.19140   0.15880   0.47420   0.01267  Uiso   1.00
O11    O     0.41870   0.84080   0.59174   0.01267  Uiso   1.00
O12    O     0.18390   0.88870   0.56847   0.01267  Uiso   1.00
O13    O     0.93910   0.21030   0.16135   0.01267  Uiso   1.00
O14    O     0.77080   0.29230   0.12430   0.01267  Uiso   1.00
O15    O     0.90700   0.25930   0.02072   0.01267  Uiso   1.00
O16    O     0.69140   0.34120   0.02580   0.01267  Uiso   1.00
O17    O     0.91870   0.65920   0.90826   0.01267  Uiso   1.00
O18    O     0.68390   0.61130   0.93153   0.01267  Uiso   1.00
O19    O     0.56090   0.71030   0.83865   0.01267  Uiso   1.00
O20    O     0.72920   0.79230   0.87570   0.01267  Uiso   1.00
O21    O     0.59300   0.75930   0.97928   0.01267  Uiso   1.00
O22    O     0.80860   0.84120   0.97420   0.01267  Uiso   1.00
O23    O     0.58130   0.15920   0.09174   0.01267  Uiso   1.00
O24    O     0.81610   0.11130   0.06847   0.01267  Uiso   1.00
O25    O     0.93910   0.21030   0.33865   0.01267  Uiso   1.00
O26    O     0.77080   0.29230   0.37570   0.01267  Uiso   1.00
O27    O     0.90700   0.25930   0.47928   0.01267  Uiso   1.00
O28    O     0.69140   0.34120   0.47420   0.01267  Uiso   1.00
O29    O     0.91870   0.65920   0.59174   0.01267  Uiso   1.00
O30    O     0.68390   0.61130   0.56847   0.01267  Uiso   1.00
O31    O     0.56090   0.71030   0.66135   0.01267  Uiso   1.00
O32    O     0.72920   0.79230   0.62430   0.01267  Uiso   1.00
O33    O     0.59300   0.75930   0.52072   0.01267  Uiso   1.00
O34    O     0.80860   0.84120   0.52580   0.01267  Uiso   1.00
O35    O     0.58130   0.15920   0.40826   0.01267  Uiso   1.00
O36    O     0.81610   0.11130   0.43153   0.01267  Uiso   1.00
O37    O     0.06090   0.78970   0.83865   0.01267  Uiso   1.00
O38    O     0.22920   0.70770   0.87570   0.01267  Uiso   1.00
O39    O     0.09300   0.74070   0.97928   0.01267  Uiso   1.00
O40    O     0.30860   0.65880   0.97420   0.01267  Uiso   1.00
O41    O     0.08130   0.34080   0.09174   0.01267  Uiso   1.00
O42    O     0.31610   0.38870   0.06847   0.01267  Uiso   1.00
O43    O     0.43910   0.28970   0.16135   0.01267  Uiso   1.00
O44    O     0.27080   0.20770   0.12430   0.01267  Uiso   1.00
O45    O     0.40700   0.24070   0.02072   0.01267  Uiso   1.00
O46    O     0.19140   0.15880   0.02580   0.01267  Uiso   1.00
O47    O     0.41870   0.84080   0.90826   0.01267  Uiso   1.00
O48    O     0.18390   0.88870   0.93153   0.01267  Uiso   1.00
