data_image0
_cell_length_a       18.8163
_cell_length_b       18.8163
_cell_length_c       38.079
_cell_angle_alpha    90
_cell_angle_beta     90
_cell_angle_gamma    120

_symmetry_space_group_name_H-M    "P 1"
_symmetry_int_tables_number       1

loop_
  _symmetry_equiv_pos_as_xyz
  'x, y, z'

loop_
  _atom_site_label
  _atom_site_occupancy
  _atom_site_fract_x
  _atom_site_fract_y
  _atom_site_fract_z
  _atom_site_thermal_displace_type
  _atom_site_B_iso_or_equiv
  _atom_site_type_symbol
  O1       1.0000 0.11150  0.48300  0.00459  Biso   1.000  O
  O2       1.0000 0.03190  0.44460  0.95591  Biso   1.000  O
  C1       1.0000 0.09450  0.45550  0.97384  Biso   1.000  C
  C2       1.0000 0.15310  0.43370  0.95653  Biso   1.000  C
  C3       1.0000 0.13860  0.40470  0.92186  Biso   1.000  C
  H1       1.0000 0.09130  0.39600  0.91030  Biso   1.000  H
  C4       1.0000 0.10280  0.31190  0.85570  Biso   1.000  C
  C5       1.0000 0.13910  0.38510  0.84580  Biso   1.000  C
  N1       1.0000 0.08733  0.28157  0.82087  Biso   1.000  N
  O3       1.0000 0.77817  0.81633  0.33792  Biso   1.000  O
  O4       1.0000 0.69857  0.77793  0.28924  Biso   1.000  O
  C6       1.0000 0.76117  0.78883  0.30717  Biso   1.000  C
  C7       1.0000 0.81977  0.76703  0.28986  Biso   1.000  C
  C8       1.0000 0.80527  0.73803  0.25519  Biso   1.000  C
  H2       1.0000 0.75797  0.72933  0.24363  Biso   1.000  H
  C9       1.0000 0.76947  0.64523  0.18903  Biso   1.000  C
  C10      1.0000 0.80577  0.71843  0.17913  Biso   1.000  C
  N2       1.0000 0.75400  0.61490  0.15420  Biso   1.000  N
  O5       1.0000 0.44483  0.14967  0.67126  Biso   1.000  O
  O6       1.0000 0.36523  0.11127  0.62258  Biso   1.000  O
  C11      1.0000 0.42783  0.12217  0.64051  Biso   1.000  C
  C12      1.0000 0.48643  0.10037  0.62320  Biso   1.000  C
  C13      1.0000 0.47193  0.07137  0.58853  Biso   1.000  C
  H3       1.0000 0.42463  0.06267  0.57697  Biso   1.000  H
  C14      1.0000 0.43613  0.97857  0.52237  Biso   1.000  C
  C15      1.0000 0.47243  0.05177  0.51247  Biso   1.000  C
  N3       1.0000 0.42067  0.94823  0.48753  Biso   1.000  N
  O7       1.0000 0.51700  0.62850  0.00459  Biso   1.000  O
  O8       1.0000 0.55540  0.58730  0.95591  Biso   1.000  O
  C16      1.0000 0.54450  0.63900  0.97384  Biso   1.000  C
  C17      1.0000 0.56630  0.71940  0.95653  Biso   1.000  C
  C18      1.0000 0.59530  0.73390  0.92186  Biso   1.000  C
  H4       1.0000 0.60400  0.69530  0.91030  Biso   1.000  H
  C19      1.0000 0.68810  0.79090  0.85570  Biso   1.000  C
  C20      1.0000 0.61490  0.75400  0.84580  Biso   1.000  C
  N4       1.0000 0.71843  0.80577  0.82087  Biso   1.000  N
  O9       1.0000 0.18367  0.96183  0.33792  Biso   1.000  O
  O10      1.0000 0.22207  0.92063  0.28924  Biso   1.000  O
  C21      1.0000 0.21117  0.97233  0.30717  Biso   1.000  C
  C22      1.0000 0.23297  0.05273  0.28986  Biso   1.000  C
  C23      1.0000 0.26197  0.06723  0.25519  Biso   1.000  C
  H5       1.0000 0.27067  0.02863  0.24363  Biso   1.000  H
  C24      1.0000 0.35477  0.12423  0.18903  Biso   1.000  C
  C25      1.0000 0.28157  0.08733  0.17913  Biso   1.000  C
  N5       1.0000 0.38510  0.13910  0.15420  Biso   1.000  N
  O11      1.0000 0.85033  0.29517  0.67126  Biso   1.000  O
  O12      1.0000 0.88873  0.25397  0.62258  Biso   1.000  O
  C26      1.0000 0.87783  0.30567  0.64051  Biso   1.000  C
  C27      1.0000 0.89963  0.38607  0.62320  Biso   1.000  C
  C28      1.0000 0.92863  0.40057  0.58853  Biso   1.000  C
  H6       1.0000 0.93733  0.36197  0.57697  Biso   1.000  H
  C29      1.0000 0.02143  0.45757  0.52237  Biso   1.000  C
  C30      1.0000 0.94823  0.42067  0.51247  Biso   1.000  C
  N6       1.0000 0.05177  0.47243  0.48753  Biso   1.000  N
  O13      1.0000 0.37150  0.88850  0.00459  Biso   1.000  O
  O14      1.0000 0.41270  0.96810  0.95591  Biso   1.000  O
  C31      1.0000 0.36100  0.90550  0.97384  Biso   1.000  C
  C32      1.0000 0.28060  0.84690  0.95653  Biso   1.000  C
  C33      1.0000 0.26610  0.86140  0.92186  Biso   1.000  C
  H7       1.0000 0.30470  0.90870  0.91030  Biso   1.000  H
  C34      1.0000 0.20910  0.89720  0.85570  Biso   1.000  C
  C35      1.0000 0.24600  0.86090  0.84580  Biso   1.000  C
  N7       1.0000 0.19423  0.91267  0.82087  Biso   1.000  N
  O15      1.0000 0.03817  0.22183  0.33792  Biso   1.000  O
  O16      1.0000 0.07937  0.30143  0.28924  Biso   1.000  O
  C36      1.0000 0.02767  0.23883  0.30717  Biso   1.000  C
  C37      1.0000 0.94727  0.18023  0.28986  Biso   1.000  C
  C38      1.0000 0.93277  0.19473  0.25519  Biso   1.000  C
  H8       1.0000 0.97137  0.24203  0.24363  Biso   1.000  H
  C39      1.0000 0.87577  0.23053  0.18903  Biso   1.000  C
  C40      1.0000 0.91267  0.19423  0.17913  Biso   1.000  C
  N8       1.0000 0.86090  0.24600  0.15420  Biso   1.000  N
  O17      1.0000 0.70483  0.55517  0.67126  Biso   1.000  O
  O18      1.0000 0.74603  0.63477  0.62258  Biso   1.000  O
  C41      1.0000 0.69433  0.57217  0.64051  Biso   1.000  C
  C42      1.0000 0.61393  0.51357  0.62320  Biso   1.000  C
  C43      1.0000 0.59943  0.52807  0.58853  Biso   1.000  C
  H9       1.0000 0.63803  0.57537  0.57697  Biso   1.000  H
  C44      1.0000 0.54243  0.56387  0.52237  Biso   1.000  C
  C45      1.0000 0.57933  0.52757  0.51247  Biso   1.000  C
  N9       1.0000 0.52757  0.57933  0.48753  Biso   1.000  N
  O19      1.0000 0.48300  0.11150  0.99541  Biso   1.000  O
  O20      1.0000 0.44460  0.03190  0.04409  Biso   1.000  O
  C46      1.0000 0.45550  0.09450  0.02616  Biso   1.000  C
  C47      1.0000 0.43370  0.15310  0.04347  Biso   1.000  C
  C48      1.0000 0.40470  0.13860  0.07814  Biso   1.000  C
  H10      1.0000 0.39600  0.09130  0.08970  Biso   1.000  H
  C49      1.0000 0.31190  0.10280  0.14430  Biso   1.000  C
  O21      1.0000 0.14967  0.44483  0.32874  Biso   1.000  O
  O22      1.0000 0.11127  0.36523  0.37742  Biso   1.000  O
  C50      1.0000 0.12217  0.42783  0.35949  Biso   1.000  C
  C51      1.0000 0.10037  0.48643  0.37680  Biso   1.000  C
  C52      1.0000 0.07137  0.47193  0.41147  Biso   1.000  C
  H11      1.0000 0.06267  0.42463  0.42303  Biso   1.000  H
  C53      1.0000 0.97857  0.43613  0.47763  Biso   1.000  C
  O23      1.0000 0.81633  0.77817  0.66208  Biso   1.000  O
  O24      1.0000 0.77793  0.69857  0.71076  Biso   1.000  O
  C54      1.0000 0.78883  0.76117  0.69283  Biso   1.000  C
  C55      1.0000 0.76703  0.81977  0.71014  Biso   1.000  C
  C56      1.0000 0.73803  0.80527  0.74481  Biso   1.000  C
  H12      1.0000 0.72933  0.75797  0.75637  Biso   1.000  H
  C57      1.0000 0.64523  0.76947  0.81097  Biso   1.000  C
  O25      1.0000 0.62850  0.51700  0.99541  Biso   1.000  O
  O26      1.0000 0.58730  0.55540  0.04409  Biso   1.000  O
  C58      1.0000 0.63900  0.54450  0.02616  Biso   1.000  C
  C59      1.0000 0.71940  0.56630  0.04347  Biso   1.000  C
  C60      1.0000 0.73390  0.59530  0.07814  Biso   1.000  C
  H13      1.0000 0.69530  0.60400  0.08970  Biso   1.000  H
  C61      1.0000 0.79090  0.68810  0.14430  Biso   1.000  C
  O27      1.0000 0.29517  0.85033  0.32874  Biso   1.000  O
  O28      1.0000 0.25397  0.88873  0.37742  Biso   1.000  O
  C62      1.0000 0.30567  0.87783  0.35949  Biso   1.000  C
  C63      1.0000 0.38607  0.89963  0.37680  Biso   1.000  C
  C64      1.0000 0.40057  0.92863  0.41147  Biso   1.000  C
  H14      1.0000 0.36197  0.93733  0.42303  Biso   1.000  H
  C65      1.0000 0.45757  0.02143  0.47763  Biso   1.000  C
  O29      1.0000 0.96183  0.18367  0.66208  Biso   1.000  O
  O30      1.0000 0.92063  0.22207  0.71076  Biso   1.000  O
  C66      1.0000 0.97233  0.21117  0.69283  Biso   1.000  C
  C67      1.0000 0.05273  0.23297  0.71014  Biso   1.000  C
  C68      1.0000 0.06723  0.26197  0.74481  Biso   1.000  C
  H15      1.0000 0.02863  0.27067  0.75637  Biso   1.000  H
  C69      1.0000 0.12423  0.35477  0.81097  Biso   1.000  C
  O31      1.0000 0.88850  0.37150  0.99541  Biso   1.000  O
  O32      1.0000 0.96810  0.41270  0.04409  Biso   1.000  O
  C70      1.0000 0.90550  0.36100  0.02616  Biso   1.000  C
  C71      1.0000 0.84690  0.28060  0.04347  Biso   1.000  C
  C72      1.0000 0.86140  0.26610  0.07814  Biso   1.000  C
  H16      1.0000 0.90870  0.30470  0.08970  Biso   1.000  H
  C73      1.0000 0.89720  0.20910  0.14430  Biso   1.000  C
  O33      1.0000 0.55517  0.70483  0.32874  Biso   1.000  O
  O34      1.0000 0.63477  0.74603  0.37742  Biso   1.000  O
  C74      1.0000 0.57217  0.69433  0.35949  Biso   1.000  C
  C75      1.0000 0.51357  0.61393  0.37680  Biso   1.000  C
  C76      1.0000 0.52807  0.59943  0.41147  Biso   1.000  C
  H17      1.0000 0.57537  0.63803  0.42303  Biso   1.000  H
  C77      1.0000 0.56387  0.54243  0.47763  Biso   1.000  C
  O35      1.0000 0.22183  0.03817  0.66208  Biso   1.000  O
  O36      1.0000 0.30143  0.07937  0.71076  Biso   1.000  O
  C78      1.0000 0.23883  0.02767  0.69283  Biso   1.000  C
  C79      1.0000 0.18023  0.94727  0.71014  Biso   1.000  C
  C80      1.0000 0.19473  0.93277  0.74481  Biso   1.000  C
  H18      1.0000 0.24203  0.97137  0.75637  Biso   1.000  H
  C81      1.0000 0.23053  0.87577  0.81097  Biso   1.000  C
  O37      1.0000 0.88850  0.51700  0.99541  Biso   1.000  O
  O38      1.0000 0.96810  0.55540  0.04409  Biso   1.000  O
  C82      1.0000 0.90550  0.54450  0.02616  Biso   1.000  C
  C83      1.0000 0.84690  0.56630  0.04347  Biso   1.000  C
  C84      1.0000 0.86140  0.59530  0.07814  Biso   1.000  C
  H19      1.0000 0.90870  0.60400  0.08970  Biso   1.000  H
  C85      1.0000 0.89720  0.68810  0.14430  Biso   1.000  C
  C86      1.0000 0.86090  0.61490  0.15420  Biso   1.000  C
  N10      1.0000 0.91267  0.71843  0.17913  Biso   1.000  N
  O39      1.0000 0.55517  0.85033  0.32874  Biso   1.000  O
  O40      1.0000 0.63477  0.88873  0.37742  Biso   1.000  O
  C87      1.0000 0.57217  0.87783  0.35949  Biso   1.000  C
  C88      1.0000 0.51357  0.89963  0.37680  Biso   1.000  C
  C89      1.0000 0.52807  0.92863  0.41147  Biso   1.000  C
  H20      1.0000 0.57537  0.93733  0.42303  Biso   1.000  H
  C90      1.0000 0.56387  0.02143  0.47763  Biso   1.000  C
  C91      1.0000 0.52757  0.94823  0.48753  Biso   1.000  C
  N11      1.0000 0.57933  0.05177  0.51247  Biso   1.000  N
  O41      1.0000 0.22183  0.18367  0.66208  Biso   1.000  O
  O42      1.0000 0.30143  0.22207  0.71076  Biso   1.000  O
  C92      1.0000 0.23883  0.21117  0.69283  Biso   1.000  C
  C93      1.0000 0.18023  0.23297  0.71014  Biso   1.000  C
  C94      1.0000 0.19473  0.26197  0.74481  Biso   1.000  C
  H21      1.0000 0.24203  0.27067  0.75637  Biso   1.000  H
  C95      1.0000 0.23053  0.35477  0.81097  Biso   1.000  C
  C96      1.0000 0.19423  0.28157  0.82087  Biso   1.000  C
  N12      1.0000 0.24600  0.38510  0.84580  Biso   1.000  N
  O43      1.0000 0.48300  0.37150  0.99541  Biso   1.000  O
  O44      1.0000 0.44460  0.41270  0.04409  Biso   1.000  O
  C97      1.0000 0.45550  0.36100  0.02616  Biso   1.000  C
  C98      1.0000 0.43370  0.28060  0.04347  Biso   1.000  C
  C99      1.0000 0.40470  0.26610  0.07814  Biso   1.000  C
  H22      1.0000 0.39600  0.30470  0.08970  Biso   1.000  H
  C100     1.0000 0.31190  0.20910  0.14430  Biso   1.000  C
  C101     1.0000 0.38510  0.24600  0.15420  Biso   1.000  C
  N13      1.0000 0.28157  0.19423  0.17913  Biso   1.000  N
  O45      1.0000 0.14967  0.70483  0.32874  Biso   1.000  O
  O46      1.0000 0.11127  0.74603  0.37742  Biso   1.000  O
  C102     1.0000 0.12217  0.69433  0.35949  Biso   1.000  C
  C103     1.0000 0.10037  0.61393  0.37680  Biso   1.000  C
  C104     1.0000 0.07137  0.59943  0.41147  Biso   1.000  C
  H23      1.0000 0.06267  0.63803  0.42303  Biso   1.000  H
  C105     1.0000 0.97857  0.54243  0.47763  Biso   1.000  C
  C106     1.0000 0.05177  0.57933  0.48753  Biso   1.000  C
  N14      1.0000 0.94823  0.52757  0.51247  Biso   1.000  N
  O47      1.0000 0.81633  0.03817  0.66208  Biso   1.000  O
  O48      1.0000 0.77793  0.07937  0.71076  Biso   1.000  O
  C107     1.0000 0.78883  0.02767  0.69283  Biso   1.000  C
  C108     1.0000 0.76703  0.94727  0.71014  Biso   1.000  C
  C109     1.0000 0.73803  0.93277  0.74481  Biso   1.000  C
  H24      1.0000 0.72933  0.97137  0.75637  Biso   1.000  H
  C110     1.0000 0.64523  0.87577  0.81097  Biso   1.000  C
  C111     1.0000 0.71843  0.91267  0.82087  Biso   1.000  C
  N15      1.0000 0.61490  0.86090  0.84580  Biso   1.000  N
  O49      1.0000 0.62850  0.11150  0.99541  Biso   1.000  O
  O50      1.0000 0.58730  0.03190  0.04409  Biso   1.000  O
  C112     1.0000 0.63900  0.09450  0.02616  Biso   1.000  C
  C113     1.0000 0.71940  0.15310  0.04347  Biso   1.000  C
  C114     1.0000 0.73390  0.13860  0.07814  Biso   1.000  C
  H25      1.0000 0.69530  0.09130  0.08970  Biso   1.000  H
  C115     1.0000 0.79090  0.10280  0.14430  Biso   1.000  C
  C116     1.0000 0.75400  0.13910  0.15420  Biso   1.000  C
  N16      1.0000 0.80577  0.08733  0.17913  Biso   1.000  N
  O51      1.0000 0.29517  0.44483  0.32874  Biso   1.000  O
  O52      1.0000 0.25397  0.36523  0.37742  Biso   1.000  O
  C117     1.0000 0.30567  0.42783  0.35949  Biso   1.000  C
  C118     1.0000 0.38607  0.48643  0.37680  Biso   1.000  C
  C119     1.0000 0.40057  0.47193  0.41147  Biso   1.000  C
  H26      1.0000 0.36197  0.42463  0.42303  Biso   1.000  H
  C120     1.0000 0.45757  0.43613  0.47763  Biso   1.000  C
  C121     1.0000 0.42067  0.47243  0.48753  Biso   1.000  C
  N17      1.0000 0.47243  0.42067  0.51247  Biso   1.000  N
  O53      1.0000 0.96183  0.77817  0.66208  Biso   1.000  O
  O54      1.0000 0.92063  0.69857  0.71076  Biso   1.000  O
  C122     1.0000 0.97233  0.76117  0.69283  Biso   1.000  C
  C123     1.0000 0.05273  0.81977  0.71014  Biso   1.000  C
  C124     1.0000 0.06723  0.80527  0.74481  Biso   1.000  C
  H27      1.0000 0.02863  0.75797  0.75637  Biso   1.000  H
  C125     1.0000 0.12423  0.76947  0.81097  Biso   1.000  C
  C126     1.0000 0.08733  0.80577  0.82087  Biso   1.000  C
  N18      1.0000 0.13910  0.75400  0.84580  Biso   1.000  N
  O55      1.0000 0.51700  0.88850  0.00459  Biso   1.000  O
  O56      1.0000 0.55540  0.96810  0.95591  Biso   1.000  O
  C127     1.0000 0.54450  0.90550  0.97384  Biso   1.000  C
  C128     1.0000 0.56630  0.84690  0.95653  Biso   1.000  C
  C129     1.0000 0.59530  0.86140  0.92186  Biso   1.000  C
  H28      1.0000 0.60400  0.90870  0.91030  Biso   1.000  H
  C130     1.0000 0.68810  0.89720  0.85570  Biso   1.000  C
  O57      1.0000 0.18367  0.22183  0.33792  Biso   1.000  O
  O58      1.0000 0.22207  0.30143  0.28924  Biso   1.000  O
  C131     1.0000 0.21117  0.23883  0.30717  Biso   1.000  C
  C132     1.0000 0.23297  0.18023  0.28986  Biso   1.000  C
  C133     1.0000 0.26197  0.19473  0.25519  Biso   1.000  C
  H29      1.0000 0.27067  0.24203  0.24363  Biso   1.000  H
  C134     1.0000 0.35477  0.23053  0.18903  Biso   1.000  C
  O59      1.0000 0.85033  0.55517  0.67126  Biso   1.000  O
  O60      1.0000 0.88873  0.63477  0.62258  Biso   1.000  O
  C135     1.0000 0.87783  0.57217  0.64051  Biso   1.000  C
  C136     1.0000 0.89963  0.51357  0.62320  Biso   1.000  C
  C137     1.0000 0.92863  0.52807  0.58853  Biso   1.000  C
  H30      1.0000 0.93733  0.57537  0.57697  Biso   1.000  H
  C138     1.0000 0.02143  0.56387  0.52237  Biso   1.000  C
  O61      1.0000 0.37150  0.48300  0.00459  Biso   1.000  O
  O62      1.0000 0.41270  0.44460  0.95591  Biso   1.000  O
  C139     1.0000 0.36100  0.45550  0.97384  Biso   1.000  C
  C140     1.0000 0.28060  0.43370  0.95653  Biso   1.000  C
  C141     1.0000 0.26610  0.40470  0.92186  Biso   1.000  C
  H31      1.0000 0.30470  0.39600  0.91030  Biso   1.000  H
  C142     1.0000 0.20910  0.31190  0.85570  Biso   1.000  C
  O63      1.0000 0.03817  0.81633  0.33792  Biso   1.000  O
  O64      1.0000 0.07937  0.77793  0.28924  Biso   1.000  O
  C143     1.0000 0.02767  0.78883  0.30717  Biso   1.000  C
  C144     1.0000 0.94727  0.76703  0.28986  Biso   1.000  C
  C145     1.0000 0.93277  0.73803  0.25519  Biso   1.000  C
  H32      1.0000 0.97137  0.72933  0.24363  Biso   1.000  H
  C146     1.0000 0.87577  0.64523  0.18903  Biso   1.000  C
  O65      1.0000 0.70483  0.14967  0.67126  Biso   1.000  O
  O66      1.0000 0.74603  0.11127  0.62258  Biso   1.000  O
  C147     1.0000 0.69433  0.12217  0.64051  Biso   1.000  C
  C148     1.0000 0.61393  0.10037  0.62320  Biso   1.000  C
  C149     1.0000 0.59943  0.07137  0.58853  Biso   1.000  C
  H33      1.0000 0.63803  0.06267  0.57697  Biso   1.000  H
  C150     1.0000 0.54243  0.97857  0.52237  Biso   1.000  C
  O67      1.0000 0.11150  0.62850  0.00459  Biso   1.000  O
  O68      1.0000 0.03190  0.58730  0.95591  Biso   1.000  O
  C151     1.0000 0.09450  0.63900  0.97384  Biso   1.000  C
  C152     1.0000 0.15310  0.71940  0.95653  Biso   1.000  C
  C153     1.0000 0.13860  0.73390  0.92186  Biso   1.000  C
  H34      1.0000 0.09130  0.69530  0.91030  Biso   1.000  H
  C154     1.0000 0.10280  0.79090  0.85570  Biso   1.000  C
  O69      1.0000 0.77817  0.96183  0.33792  Biso   1.000  O
  O70      1.0000 0.69857  0.92063  0.28924  Biso   1.000  O
  C155     1.0000 0.76117  0.97233  0.30717  Biso   1.000  C
  C156     1.0000 0.81977  0.05273  0.28986  Biso   1.000  C
  C157     1.0000 0.80527  0.06723  0.25519  Biso   1.000  C
  H35      1.0000 0.75797  0.02863  0.24363  Biso   1.000  H
  C158     1.0000 0.76947  0.12423  0.18903  Biso   1.000  C
  O71      1.0000 0.44483  0.29517  0.67126  Biso   1.000  O
  O72      1.0000 0.36523  0.25397  0.62258  Biso   1.000  O
  C159     1.0000 0.42783  0.30567  0.64051  Biso   1.000  C
  C160     1.0000 0.48643  0.38607  0.62320  Biso   1.000  C
  C161     1.0000 0.47193  0.40057  0.58853  Biso   1.000  C
  H36      1.0000 0.42463  0.36197  0.57697  Biso   1.000  H
  C162     1.0000 0.43613  0.45757  0.52237  Biso   1.000  C
  Cu1      1.0000 0.04598  0.52299  0.02875  Biso   1.000  Cu
  Cu2      1.0000 0.71265  0.85632  0.36208  Biso   1.000  Cu
  Cu3      1.0000 0.37931  0.18966  0.69542  Biso   1.000  Cu
  Cu4      1.0000 0.47701  0.52299  0.02875  Biso   1.000  Cu
  Cu5      1.0000 0.14368  0.85632  0.36208  Biso   1.000  Cu
  Cu6      1.0000 0.81034  0.18966  0.69542  Biso   1.000  Cu
  Cu7      1.0000 0.47701  0.95402  0.02875  Biso   1.000  Cu
  Cu8      1.0000 0.14368  0.28735  0.36208  Biso   1.000  Cu
  Cu9      1.0000 0.81034  0.62069  0.69542  Biso   1.000  Cu
  Cu10     1.0000 0.52299  0.04598  0.97125  Biso   1.000  Cu
  Cu11     1.0000 0.18966  0.37931  0.30458  Biso   1.000  Cu
  Cu12     1.0000 0.85632  0.71265  0.63792  Biso   1.000  Cu
  Cu13     1.0000 0.52299  0.47701  0.97125  Biso   1.000  Cu
  Cu14     1.0000 0.18966  0.81034  0.30458  Biso   1.000  Cu
  Cu15     1.0000 0.85632  0.14368  0.63792  Biso   1.000  Cu
  Cu16     1.0000 0.95402  0.47701  0.97125  Biso   1.000  Cu
  Cu17     1.0000 0.62069  0.81034  0.30458  Biso   1.000  Cu
  Cu18     1.0000 0.28735  0.14368  0.63792  Biso   1.000  Cu
  C163     1.0000 0.22440  0.44880  0.97350  Biso   1.000  C
  H37      1.0000 0.23460  0.46920  0.99630  Biso   1.000  H
  C164     1.0000 0.19445  0.38890  0.90460  Biso   1.000  C
  C165     1.0000 0.18100  0.36200  0.86730  Biso   1.000  C
  C166     1.0000 0.89107  0.78213  0.30683  Biso   1.000  C
  H38      1.0000 0.90127  0.80253  0.32963  Biso   1.000  H
  C167     1.0000 0.86112  0.72223  0.23793  Biso   1.000  C
  C168     1.0000 0.84767  0.69533  0.20063  Biso   1.000  C
  C169     1.0000 0.55773  0.11547  0.64017  Biso   1.000  C
  H39      1.0000 0.56793  0.13587  0.66297  Biso   1.000  H
  C170     1.0000 0.52778  0.05557  0.57127  Biso   1.000  C
  C171     1.0000 0.51433  0.02867  0.53397  Biso   1.000  C
  C172     1.0000 0.55120  0.77560  0.97350  Biso   1.000  C
  H40      1.0000 0.53080  0.76540  0.99630  Biso   1.000  H
  C173     1.0000 0.61110  0.80555  0.90460  Biso   1.000  C
  C174     1.0000 0.63800  0.81900  0.86730  Biso   1.000  C
  C175     1.0000 0.21787  0.10893  0.30683  Biso   1.000  C
  H41      1.0000 0.19747  0.09873  0.32963  Biso   1.000  H
  C176     1.0000 0.27777  0.13888  0.23793  Biso   1.000  C
  C177     1.0000 0.30467  0.15233  0.20063  Biso   1.000  C
  C178     1.0000 0.88453  0.44227  0.64017  Biso   1.000  C
  H42      1.0000 0.86413  0.43207  0.66297  Biso   1.000  H
  C179     1.0000 0.94443  0.47222  0.57127  Biso   1.000  C
  C180     1.0000 0.97133  0.48567  0.53397  Biso   1.000  C
  C181     1.0000 0.22440  0.77560  0.97350  Biso   1.000  C
  H43      1.0000 0.23460  0.76540  0.99630  Biso   1.000  H
  C182     1.0000 0.19445  0.80555  0.90460  Biso   1.000  C
  C183     1.0000 0.18100  0.81900  0.86730  Biso   1.000  C
  C184     1.0000 0.89107  0.10893  0.30683  Biso   1.000  C
  H44      1.0000 0.90127  0.09873  0.32963  Biso   1.000  H
  C185     1.0000 0.86112  0.13888  0.23793  Biso   1.000  C
  C186     1.0000 0.84767  0.15233  0.20063  Biso   1.000  C
  C187     1.0000 0.55773  0.44227  0.64017  Biso   1.000  C
  H45      1.0000 0.56793  0.43207  0.66297  Biso   1.000  H
  C188     1.0000 0.52778  0.47222  0.57127  Biso   1.000  C
  C189     1.0000 0.51433  0.48567  0.53397  Biso   1.000  C
  C190     1.0000 0.44880  0.22440  0.02650  Biso   1.000  C
  H46      1.0000 0.46920  0.23460  0.00370  Biso   1.000  H
  C191     1.0000 0.38890  0.19445  0.09540  Biso   1.000  C
  C192     1.0000 0.36200  0.18100  0.13270  Biso   1.000  C
  C193     1.0000 0.11547  0.55773  0.35983  Biso   1.000  C
  H47      1.0000 0.13587  0.56793  0.33703  Biso   1.000  H
  C194     1.0000 0.05557  0.52778  0.42873  Biso   1.000  C
  C195     1.0000 0.02867  0.51433  0.46603  Biso   1.000  C
  C196     1.0000 0.78213  0.89107  0.69317  Biso   1.000  C
  H48      1.0000 0.80253  0.90127  0.67037  Biso   1.000  H
  C197     1.0000 0.72223  0.86112  0.76207  Biso   1.000  C
  C198     1.0000 0.69533  0.84767  0.79937  Biso   1.000  C
  C199     1.0000 0.77560  0.55120  0.02650  Biso   1.000  C
  H49      1.0000 0.76540  0.53080  0.00370  Biso   1.000  H
  C200     1.0000 0.80555  0.61110  0.09540  Biso   1.000  C
  C201     1.0000 0.81900  0.63800  0.13270  Biso   1.000  C
  C202     1.0000 0.44227  0.88453  0.35983  Biso   1.000  C
  H50      1.0000 0.43207  0.86413  0.33703  Biso   1.000  H
  C203     1.0000 0.47222  0.94443  0.42873  Biso   1.000  C
  C204     1.0000 0.48567  0.97133  0.46603  Biso   1.000  C
  C205     1.0000 0.10893  0.21787  0.69317  Biso   1.000  C
  H51      1.0000 0.09873  0.19747  0.67037  Biso   1.000  H
  C206     1.0000 0.13888  0.27777  0.76207  Biso   1.000  C
  C207     1.0000 0.15233  0.30467  0.79937  Biso   1.000  C
  C208     1.0000 0.77560  0.22440  0.02650  Biso   1.000  C
  H52      1.0000 0.76540  0.23460  0.00370  Biso   1.000  H
  C209     1.0000 0.80555  0.19445  0.09540  Biso   1.000  C
  C210     1.0000 0.81900  0.18100  0.13270  Biso   1.000  C
  C211     1.0000 0.44227  0.55773  0.35983  Biso   1.000  C
  H53      1.0000 0.43207  0.56793  0.33703  Biso   1.000  H
  C212     1.0000 0.47222  0.52778  0.42873  Biso   1.000  C
  C213     1.0000 0.48567  0.51433  0.46603  Biso   1.000  C
  C214     1.0000 0.10893  0.89107  0.69317  Biso   1.000  C
  H54      1.0000 0.09873  0.90127  0.67037  Biso   1.000  H
  C215     1.0000 0.13888  0.86112  0.76207  Biso   1.000  C
  C216     1.0000 0.15233  0.84767  0.79937  Biso   1.000  C
