data_SESDEA01_clean
_audit_creation_date              2015-10-16
_audit_creation_method            'Materials Studio'
_symmetry_space_group_name_H-M    'P1'
_symmetry_Int_Tables_number       1
_symmetry_cell_setting            triclinic
loop_
_symmetry_equiv_pos_as_xyz
  x,y,z
_cell_length_a                    8.8853
_cell_length_b                    12.0782
_cell_length_c                    16.5903
_cell_angle_alpha                 90.0000
_cell_angle_beta                  90.0000
_cell_angle_gamma                 109.3300
loop_
_atom_site_label
_atom_site_type_symbol
_atom_site_fract_x
_atom_site_fract_y
_atom_site_fract_z
_atom_site_U_iso_or_equiv
_atom_site_adp_type
_atom_site_occupancy
Eu1    Eu    0.56684   0.54759   0.38247   0.01267  Uiso   1.00
Eu2    Eu    0.43316   0.45240   0.61753   0.01267  Uiso   1.00
Eu3    Eu    0.06684   0.54759   0.11753   0.01267  Uiso   1.00
Eu4    Eu    0.93316   0.45240   0.88247   0.01267  Uiso   1.00
H1     H     0.40350   0.84690   0.30610   0.01267  Uiso   1.00
H2     H     0.01200   0.16560   0.07390   0.01267  Uiso   1.00
H3     H     0.48800   0.83440   0.57390   0.01267  Uiso   1.00
H4     H     0.37920   0.36150   0.00900   0.01267  Uiso   1.00
H5     H     0.67220   0.67940   0.16770   0.01267  Uiso   1.00
H6     H     0.75250   0.70490   0.92890   0.01267  Uiso   1.00
H7     H     0.32240   0.14150   0.59950   0.01267  Uiso   1.00
H8     H     0.47080   0.78080   0.93310   0.01267  Uiso   1.00
H9     H     0.59650   0.15310   0.69390   0.01267  Uiso   1.00
H10    H     0.70330   0.00460   0.58740   0.01267  Uiso   1.00
H11    H     0.62800   0.96520   0.93360   0.01267  Uiso   1.00
H12    H     0.25250   0.70490   0.57110   0.01267  Uiso   1.00
H13    H     0.37200   0.03480   0.06640   0.01267  Uiso   1.00
H14    H     0.32780   0.32060   0.83230   0.01267  Uiso   1.00
H15    H     0.41070   0.22470   0.82240   0.01267  Uiso   1.00
H16    H     0.82780   0.32060   0.66770   0.01267  Uiso   1.00
H17    H     0.90440   0.97430   0.77460   0.01267  Uiso   1.00
H18    H     0.17760   0.85850   0.09950   0.01267  Uiso   1.00
H19    H     0.87200   0.03480   0.43360   0.01267  Uiso   1.00
H20    H     0.91070   0.22470   0.67760   0.01267  Uiso   1.00
H21    H     0.62040   0.13800   0.03320   0.01267  Uiso   1.00
H22    H     0.09560   0.02570   0.22540   0.01267  Uiso   1.00
H23    H     0.12800   0.96520   0.56640   0.01267  Uiso   1.00
H24    H     0.17220   0.67940   0.33230   0.01267  Uiso   1.00
H25    H     0.79670   0.99540   0.08740   0.01267  Uiso   1.00
H26    H     0.52920   0.21920   0.06690   0.01267  Uiso   1.00
H27    H     0.74750   0.29510   0.42890   0.01267  Uiso   1.00
H28    H     0.37960   0.86200   0.96680   0.01267  Uiso   1.00
H29    H     0.29670   0.99540   0.41260   0.01267  Uiso   1.00
H30    H     0.12080   0.63850   0.50900   0.01267  Uiso   1.00
H31    H     0.59560   0.02570   0.27460   0.01267  Uiso   1.00
H32    H     0.97080   0.78080   0.56690   0.01267  Uiso   1.00
H33    H     0.58930   0.77530   0.17760   0.01267  Uiso   1.00
H34    H     0.98800   0.83440   0.92610   0.01267  Uiso   1.00
H35    H     0.62080   0.63850   0.99100   0.01267  Uiso   1.00
H36    H     0.87960   0.86200   0.53320   0.01267  Uiso   1.00
H37    H     0.51200   0.16560   0.42610   0.01267  Uiso   1.00
H38    H     0.67760   0.85850   0.40050   0.01267  Uiso   1.00
H39    H     0.20330   0.00460   0.91260   0.01267  Uiso   1.00
H40    H     0.09650   0.15310   0.80610   0.01267  Uiso   1.00
H41    H     0.87920   0.36150   0.49100   0.01267  Uiso   1.00
H42    H     0.24750   0.29510   0.07110   0.01267  Uiso   1.00
H43    H     0.12040   0.13800   0.46680   0.01267  Uiso   1.00
H44    H     0.90350   0.84690   0.19390   0.01267  Uiso   1.00
H45    H     0.02920   0.21920   0.43310   0.01267  Uiso   1.00
H46    H     0.08930   0.77530   0.32240   0.01267  Uiso   1.00
H47    H     0.40440   0.97430   0.72540   0.01267  Uiso   1.00
H48    H     0.82240   0.14150   0.90050   0.01267  Uiso   1.00
C1     C     0.27500   0.83510   0.20446   0.01267  Uiso   1.00
C2     C     0.62470   0.19790   0.07293   0.01267  Uiso   1.00
C3     C     0.49600   0.95350   0.83318   0.01267  Uiso   1.00
C4     C     0.13050   0.10250   0.99138   0.01267  Uiso   1.00
C5     C     0.12130   0.00290   0.94791   0.01267  Uiso   1.00
C6     C     0.40080   0.29580   0.79925   0.01267  Uiso   1.00
C7     C     0.73050   0.69530   0.55653   0.01267  Uiso   1.00
C8     C     0.00770   0.09940   0.04411   0.01267  Uiso   1.00
C9     C     0.15760   0.35930   0.97584   0.01267  Uiso   1.00
C10    C     0.09920   0.70420   0.29925   0.01267  Uiso   1.00
C11    C     0.23050   0.69530   0.94347   0.01267  Uiso   1.00
C12    C     0.12120   0.00280   0.61455   0.01267  Uiso   1.00
C13    C     0.84240   0.64070   0.02416   0.01267  Uiso   1.00
C14    C     0.22830   0.69340   0.51410   0.01267  Uiso   1.00
C15    C     0.26310   0.89130   0.13408   0.01267  Uiso   1.00
C16    C     0.34240   0.64070   0.47584   0.01267  Uiso   1.00
C17    C     0.10230   0.11550   0.75789   0.01267  Uiso   1.00
C18    C     0.49230   0.90060   0.54411   0.01267  Uiso   1.00
C19    C     0.65760   0.35930   0.52416   0.01267  Uiso   1.00
C20    C     0.37530   0.80210   0.92707   0.01267  Uiso   1.00
C21    C     0.56110   0.39040   0.79662   0.01267  Uiso   1.00
C22    C     0.87880   0.99720   0.38545   0.01267  Uiso   1.00
C23    C     0.63050   0.10250   0.50862   0.01267  Uiso   1.00
C24    C     0.27170   0.30660   0.01410   0.01267  Uiso   1.00
C25    C     0.00400   0.04650   0.33318   0.01267  Uiso   1.00
C26    C     0.87530   0.80210   0.57293   0.01267  Uiso   1.00
C27    C     0.26950   0.30470   0.44347   0.01267  Uiso   1.00
C28    C     0.51270   0.99140   0.23880   0.01267  Uiso   1.00
C29    C     0.37880   0.99720   0.11455   0.01267  Uiso   1.00
C30    C     0.62120   0.00280   0.88545   0.01267  Uiso   1.00
C31    C     0.60230   0.11550   0.74211   0.01267  Uiso   1.00
C32    C     0.48730   0.00860   0.76120   0.01267  Uiso   1.00
C33    C     0.72500   0.16490   0.79554   0.01267  Uiso   1.00
C34    C     0.37870   0.99710   0.44791   0.01267  Uiso   1.00
C35    C     0.23690   0.10870   0.63408   0.01267  Uiso   1.00
C36    C     0.77500   0.83510   0.29554   0.01267  Uiso   1.00
C37    C     0.86950   0.89750   0.00862   0.01267  Uiso   1.00
C38    C     0.12470   0.19790   0.42707   0.01267  Uiso   1.00
C39    C     0.50770   0.09940   0.45589   0.01267  Uiso   1.00
C40    C     0.43890   0.60960   0.20338   0.01267  Uiso   1.00
C41    C     0.77170   0.30660   0.48590   0.01267  Uiso   1.00
C42    C     0.39770   0.88450   0.25789   0.01267  Uiso   1.00
C43    C     0.72830   0.69340   0.98590   0.01267  Uiso   1.00
C44    C     0.98730   0.00860   0.73880   0.01267  Uiso   1.00
C45    C     0.90080   0.29580   0.70075   0.01267  Uiso   1.00
C46    C     0.73690   0.10870   0.86592   0.01267  Uiso   1.00
C47    C     0.06110   0.39040   0.70338   0.01267  Uiso   1.00
C48    C     0.99600   0.95350   0.66682   0.01267  Uiso   1.00
C49    C     0.89770   0.88450   0.24211   0.01267  Uiso   1.00
C50    C     0.22500   0.16490   0.70446   0.01267  Uiso   1.00
C51    C     0.36950   0.89750   0.49138   0.01267  Uiso   1.00
C52    C     0.59920   0.70420   0.20075   0.01267  Uiso   1.00
C53    C     0.87870   0.99710   0.05209   0.01267  Uiso   1.00
C54    C     0.62130   0.00290   0.55209   0.01267  Uiso   1.00
C55    C     0.76310   0.89130   0.36592   0.01267  Uiso   1.00
C56    C     0.93890   0.60960   0.29662   0.01267  Uiso   1.00
C57    C     0.01270   0.99140   0.26120   0.01267  Uiso   1.00
C58    C     0.50400   0.04650   0.16682   0.01267  Uiso   1.00
C59    C     0.76950   0.30470   0.05653   0.01267  Uiso   1.00
C60    C     0.99230   0.90060   0.95589   0.01267  Uiso   1.00
O1     O     0.84010   0.36865   0.11409   0.01267  Uiso   1.00
O2     O     0.69800   0.68056   0.48339   0.01267  Uiso   1.00
O3     O     0.35110   0.60015   0.14335   0.01267  Uiso   1.00
O4     O     0.87370   0.84888   0.65102   0.01267  Uiso   1.00
O5     O     0.40550   0.54478   0.26466   0.01267  Uiso   1.00
O6     O     0.62630   0.15112   0.15102   0.01267  Uiso   1.00
O7     O     0.59450   0.45522   0.73534   0.01267  Uiso   1.00
O8     O     0.86920   0.55777   0.98804   0.01267  Uiso   1.00
O9     O     0.84100   0.27386   0.78202   0.01267  Uiso   1.00
O10    O     0.64890   0.39985   0.85665   0.01267  Uiso   1.00
O11    O     0.14890   0.39985   0.64335   0.01267  Uiso   1.00
O12    O     0.12630   0.15112   0.34898   0.01267  Uiso   1.00
O13    O     0.37370   0.84888   0.84898   0.01267  Uiso   1.00
O14    O     0.30200   0.31944   0.51661   0.01267  Uiso   1.00
O15    O     0.90550   0.54478   0.23534   0.01267  Uiso   1.00
O16    O     0.34010   0.36865   0.38591   0.01267  Uiso   1.00
O17    O     0.40090   0.67393   0.40855   0.01267  Uiso   1.00
O18    O     0.36920   0.55777   0.51196   0.01267  Uiso   1.00
O19    O     0.26630   0.19782   0.97969   0.01267  Uiso   1.00
O20    O     0.65990   0.63135   0.61409   0.01267  Uiso   1.00
O21    O     0.09450   0.45522   0.76466   0.01267  Uiso   1.00
O22    O     0.59910   0.32607   0.59145   0.01267  Uiso   1.00
O23    O     0.15900   0.72614   0.21798   0.01267  Uiso   1.00
O24    O     0.13080   0.44223   0.01196   0.01267  Uiso   1.00
O25    O     0.63080   0.44223   0.48804   0.01267  Uiso   1.00
O26    O     0.80200   0.31944   0.98339   0.01267  Uiso   1.00
O27    O     0.34100   0.27386   0.71798   0.01267  Uiso   1.00
O28    O     0.85110   0.60015   0.35665   0.01267  Uiso   1.00
O29    O     0.15990   0.63135   0.88591   0.01267  Uiso   1.00
O30    O     0.19800   0.68056   0.01661   0.01267  Uiso   1.00
O31    O     0.76630   0.19782   0.52031   0.01267  Uiso   1.00
O32    O     0.73370   0.80218   0.02031   0.01267  Uiso   1.00
O33    O     0.90090   0.67393   0.09145   0.01267  Uiso   1.00
O34    O     0.09910   0.32607   0.90855   0.01267  Uiso   1.00
O35    O     0.65900   0.72614   0.28202   0.01267  Uiso   1.00
O36    O     0.23370   0.80218   0.47969   0.01267  Uiso   1.00
