data_image0
_cell_length_a       12.813
_cell_length_b       18.557
_cell_length_c       7.259
_cell_angle_alpha    90
_cell_angle_beta     111.973
_cell_angle_gamma    90

_symmetry_space_group_name_H-M    "P 1"
_symmetry_int_tables_number       1

loop_
  _symmetry_equiv_pos_as_xyz
  'x, y, z'

loop_
  _atom_site_label
  _atom_site_occupancy
  _atom_site_fract_x
  _atom_site_fract_y
  _atom_site_fract_z
  _atom_site_thermal_displace_type
  _atom_site_B_iso_or_equiv
  _atom_site_type_symbol
  N1       1.0000 0.11460  0.04840  0.23500  Biso   1.000  N
  N2       1.0000 0.11800  0.04480  0.42300  Biso   1.000  N
  C1       1.0000 0.19800  0.08860  0.24500  Biso   1.000  C
  H1       1.0000 0.21620  0.10010  0.13250  Biso   1.000  H
  N3       1.0000 0.25800  0.11270  0.42600  Biso   1.000  N
  C2       1.0000 0.20500  0.08470  0.53700  Biso   1.000  C
  H2       1.0000 0.22690  0.09190  0.67590  Biso   1.000  H
  C3       1.0000 0.29700  0.23980  0.51600  Biso   1.000  C
  H3       1.0000 0.35080  0.27750  0.55810  Biso   1.000  H
  C4       1.0000 0.34700  0.17130  0.50400  Biso   1.000  C
  H4       1.0000 0.40120  0.15760  0.63730  Biso   1.000  H
  H5       1.0000 0.38920  0.17560  0.41440  Biso   1.000  H
  N4       1.0000 0.61460  0.54840  0.23500  Biso   1.000  N
  N5       1.0000 0.61800  0.54480  0.42300  Biso   1.000  N
  C5       1.0000 0.69800  0.58860  0.24500  Biso   1.000  C
  H6       1.0000 0.71620  0.60010  0.13250  Biso   1.000  H
  N6       1.0000 0.75800  0.61270  0.42600  Biso   1.000  N
  C6       1.0000 0.70500  0.58470  0.53700  Biso   1.000  C
  H7       1.0000 0.72690  0.59190  0.67590  Biso   1.000  H
  C7       1.0000 0.79700  0.73980  0.51600  Biso   1.000  C
  H8       1.0000 0.85080  0.77750  0.55810  Biso   1.000  H
  C8       1.0000 0.84700  0.67130  0.50400  Biso   1.000  C
  H9       1.0000 0.90120  0.65760  0.63730  Biso   1.000  H
  H10      1.0000 0.88920  0.67560  0.41440  Biso   1.000  H
  N7       1.0000 0.88540  0.04840  0.26500  Biso   1.000  N
  N8       1.0000 0.88200  0.04480  0.07700  Biso   1.000  N
  C9       1.0000 0.80200  0.08860  0.25500  Biso   1.000  C
  H11      1.0000 0.78380  0.10010  0.36750  Biso   1.000  H
  N9       1.0000 0.74200  0.11270  0.07400  Biso   1.000  N
  C10      1.0000 0.79500  0.08470  0.96300  Biso   1.000  C
  H12      1.0000 0.77310  0.09190  0.82410  Biso   1.000  H
  C11      1.0000 0.70300  0.23980  0.98400  Biso   1.000  C
  H13      1.0000 0.64920  0.27750  0.94190  Biso   1.000  H
  C12      1.0000 0.65300  0.17130  0.99600  Biso   1.000  C
  H14      1.0000 0.59880  0.15760  0.86270  Biso   1.000  H
  H15      1.0000 0.61080  0.17560  0.08560  Biso   1.000  H
  N10      1.0000 0.38540  0.54840  0.26500  Biso   1.000  N
  N11      1.0000 0.38200  0.54480  0.07700  Biso   1.000  N
  C13      1.0000 0.30200  0.58860  0.25500  Biso   1.000  C
  H16      1.0000 0.28380  0.60010  0.36750  Biso   1.000  H
  N12      1.0000 0.24200  0.61270  0.07400  Biso   1.000  N
  C14      1.0000 0.29500  0.58470  0.96300  Biso   1.000  C
  H17      1.0000 0.27310  0.59190  0.82410  Biso   1.000  H
  C15      1.0000 0.20300  0.73980  0.98400  Biso   1.000  C
  H18      1.0000 0.14920  0.77750  0.94190  Biso   1.000  H
  C16      1.0000 0.15300  0.67130  0.99600  Biso   1.000  C
  H19      1.0000 0.09880  0.65760  0.86270  Biso   1.000  H
  H20      1.0000 0.11080  0.67560  0.08560  Biso   1.000  H
  N13      1.0000 0.88540  0.95160  0.76500  Biso   1.000  N
  N14      1.0000 0.88200  0.95520  0.57700  Biso   1.000  N
  C17      1.0000 0.80200  0.91140  0.75500  Biso   1.000  C
  H21      1.0000 0.78380  0.89990  0.86750  Biso   1.000  H
  N15      1.0000 0.74200  0.88730  0.57400  Biso   1.000  N
  C18      1.0000 0.79500  0.91530  0.46300  Biso   1.000  C
  H22      1.0000 0.77310  0.90810  0.32410  Biso   1.000  H
  C19      1.0000 0.70300  0.76020  0.48400  Biso   1.000  C
  H23      1.0000 0.64920  0.72250  0.44190  Biso   1.000  H
  C20      1.0000 0.65300  0.82870  0.49600  Biso   1.000  C
  H24      1.0000 0.59880  0.84240  0.36270  Biso   1.000  H
  H25      1.0000 0.61080  0.82440  0.58560  Biso   1.000  H
  N16      1.0000 0.38540  0.45160  0.76500  Biso   1.000  N
  N17      1.0000 0.38200  0.45520  0.57700  Biso   1.000  N
  C21      1.0000 0.30200  0.41140  0.75500  Biso   1.000  C
  H26      1.0000 0.28380  0.39990  0.86750  Biso   1.000  H
  N18      1.0000 0.24200  0.38730  0.57400  Biso   1.000  N
  C22      1.0000 0.29500  0.41530  0.46300  Biso   1.000  C
  H27      1.0000 0.27310  0.40810  0.32410  Biso   1.000  H
  C23      1.0000 0.20300  0.26020  0.48400  Biso   1.000  C
  H28      1.0000 0.14920  0.22250  0.44190  Biso   1.000  H
  C24      1.0000 0.15300  0.32870  0.49600  Biso   1.000  C
  H29      1.0000 0.09880  0.34240  0.36270  Biso   1.000  H
  H30      1.0000 0.11080  0.32440  0.58560  Biso   1.000  H
  N19      1.0000 0.11460  0.95160  0.73500  Biso   1.000  N
  N20      1.0000 0.11800  0.95520  0.92300  Biso   1.000  N
  C25      1.0000 0.19800  0.91140  0.74500  Biso   1.000  C
  H31      1.0000 0.21620  0.89990  0.63250  Biso   1.000  H
  N21      1.0000 0.25800  0.88730  0.92600  Biso   1.000  N
  C26      1.0000 0.20500  0.91530  0.03700  Biso   1.000  C
  H32      1.0000 0.22690  0.90810  0.17590  Biso   1.000  H
  C27      1.0000 0.29700  0.76020  0.01600  Biso   1.000  C
  H33      1.0000 0.35080  0.72250  0.05810  Biso   1.000  H
  C28      1.0000 0.34700  0.82870  0.00400  Biso   1.000  C
  H34      1.0000 0.40120  0.84240  0.13730  Biso   1.000  H
  H35      1.0000 0.38920  0.82440  0.91440  Biso   1.000  H
  N22      1.0000 0.61460  0.45160  0.73500  Biso   1.000  N
  N23      1.0000 0.61800  0.45520  0.92300  Biso   1.000  N
  C29      1.0000 0.69800  0.41140  0.74500  Biso   1.000  C
  H36      1.0000 0.71620  0.39990  0.63250  Biso   1.000  H
  N24      1.0000 0.75800  0.38730  0.92600  Biso   1.000  N
  C30      1.0000 0.70500  0.41530  0.03700  Biso   1.000  C
  H37      1.0000 0.72690  0.40810  0.17590  Biso   1.000  H
  C31      1.0000 0.79700  0.26020  0.01600  Biso   1.000  C
  H38      1.0000 0.85080  0.22250  0.05810  Biso   1.000  H
  C32      1.0000 0.84700  0.32870  0.00400  Biso   1.000  C
  H39      1.0000 0.90120  0.34240  0.13730  Biso   1.000  H
  H40      1.0000 0.88920  0.32440  0.91440  Biso   1.000  H
  Cu1      1.0000 0.00000  0.00000  0.00000  Biso   1.000  Cu
  Cu2      1.0000 0.50000  0.50000  0.00000  Biso   1.000  Cu
  Cu3      1.0000 0.00000  0.00000  0.50000  Biso   1.000  Cu
  Cu4      1.0000 0.50000  0.50000  0.50000  Biso   1.000  Cu
