data_SETPEO_clean
_audit_creation_date              2014-07-02
_audit_creation_method            'Materials Studio'
_symmetry_space_group_name_H-M    'P1'
_symmetry_Int_Tables_number       1
_symmetry_cell_setting            triclinic
loop_
_symmetry_equiv_pos_as_xyz
  x,y,z
_cell_length_a                    19.1270
_cell_length_b                    19.1270
_cell_length_c                    19.1270
_cell_angle_alpha                 109.4710
_cell_angle_beta                  109.4710
_cell_angle_gamma                 109.4710
loop_
_atom_site_label
_atom_site_type_symbol
_atom_site_fract_x
_atom_site_fract_y
_atom_site_fract_z
_atom_site_U_iso_or_equiv
_atom_site_adp_type
_atom_site_occupancy
In1    In    0.73606   0.23606   0.50000   0.01267  Uiso   1.00
In2    In    0.26394   0.76394   0.50000   0.01267  Uiso   1.00
In3    In    0.50000   0.26394   0.76394   0.01267  Uiso   1.00
In4    In    0.50000   0.73606   0.23606   0.01267  Uiso   1.00
In5    In    0.23606   0.50000   0.73606   0.01267  Uiso   1.00
In6    In    0.76394   0.50000   0.26394   0.01267  Uiso   1.00
H1     H     0.91690   0.26720   0.60570   0.01267  Uiso   1.00
H2     H     0.99790   0.19870   0.60560   0.01267  Uiso   1.00
H3     H     0.78050   0.96990   0.43320   0.01267  Uiso   1.00
H4     H     0.69950   0.03840   0.43330   0.01267  Uiso   1.00
H5     H     0.66150   0.31120   0.39430   0.01267  Uiso   1.00
H6     H     0.59310   0.39230   0.39440   0.01267  Uiso   1.00
H7     H     0.53670   0.34730   0.56680   0.01267  Uiso   1.00
H8     H     0.60510   0.26620   0.56670   0.01267  Uiso   1.00
H9     H     0.33850   0.73280   0.64970   0.01267  Uiso   1.00
H10    H     0.40690   0.80130   0.79920   0.01267  Uiso   1.00
H11    H     0.46330   0.03010   0.81060   0.01267  Uiso   1.00
H12    H     0.39490   0.96160   0.66110   0.01267  Uiso   1.00
H13    H     0.08310   0.68880   0.35030   0.01267  Uiso   1.00
H14    H     0.00210   0.60770   0.20080   0.01267  Uiso   1.00
H15    H     0.21950   0.65270   0.18940   0.01267  Uiso   1.00
H16    H     0.30050   0.73380   0.33890   0.01267  Uiso   1.00
H17    H     0.64970   0.33850   0.73280   0.01267  Uiso   1.00
H18    H     0.79920   0.40690   0.80130   0.01267  Uiso   1.00
H19    H     0.81060   0.46330   0.03010   0.01267  Uiso   1.00
H20    H     0.66110   0.39490   0.96160   0.01267  Uiso   1.00
H21    H     0.35030   0.08310   0.68880   0.01267  Uiso   1.00
H22    H     0.20080   0.00210   0.60770   0.01267  Uiso   1.00
H23    H     0.18940   0.21950   0.65270   0.01267  Uiso   1.00
H24    H     0.33890   0.30050   0.73380   0.01267  Uiso   1.00
H25    H     0.60570   0.91690   0.26720   0.01267  Uiso   1.00
H26    H     0.60560   0.99790   0.19870   0.01267  Uiso   1.00
H27    H     0.43320   0.78050   0.96990   0.01267  Uiso   1.00
H28    H     0.43330   0.69950   0.03840   0.01267  Uiso   1.00
H29    H     0.39430   0.66150   0.31120   0.01267  Uiso   1.00
H30    H     0.39440   0.59310   0.39230   0.01267  Uiso   1.00
H31    H     0.56680   0.53670   0.34730   0.01267  Uiso   1.00
H32    H     0.56670   0.60510   0.26620   0.01267  Uiso   1.00
H33    H     0.31120   0.39430   0.66150   0.01267  Uiso   1.00
H34    H     0.39230   0.39440   0.59310   0.01267  Uiso   1.00
H35    H     0.34730   0.56680   0.53670   0.01267  Uiso   1.00
H36    H     0.26620   0.56670   0.60510   0.01267  Uiso   1.00
H37    H     0.26720   0.60570   0.91690   0.01267  Uiso   1.00
H38    H     0.19870   0.60560   0.99790   0.01267  Uiso   1.00
H39    H     0.96990   0.43320   0.78050   0.01267  Uiso   1.00
H40    H     0.03840   0.43330   0.69950   0.01267  Uiso   1.00
H41    H     0.68880   0.35030   0.08310   0.01267  Uiso   1.00
H42    H     0.60770   0.20080   0.00210   0.01267  Uiso   1.00
H43    H     0.65270   0.18940   0.21950   0.01267  Uiso   1.00
H44    H     0.73380   0.33890   0.30050   0.01267  Uiso   1.00
H45    H     0.73280   0.64970   0.33850   0.01267  Uiso   1.00
H46    H     0.80130   0.79920   0.40690   0.01267  Uiso   1.00
H47    H     0.03010   0.81060   0.46330   0.01267  Uiso   1.00
H48    H     0.96160   0.66110   0.39490   0.01267  Uiso   1.00
C1     C     0.95070   0.03730   0.53420   0.01267  Uiso   1.00
C2     C     0.88920   0.20690   0.57070   0.01267  Uiso   1.00
C3     C     0.93730   0.16610   0.57060   0.01267  Uiso   1.00
C4     C     0.89690   0.07790   0.51940   0.01267  Uiso   1.00
C5     C     0.80820   0.03020   0.46820   0.01267  Uiso   1.00
C6     C     0.76000   0.07090   0.46830   0.01267  Uiso   1.00
C7     C     0.50310   0.41650   0.46580   0.01267  Uiso   1.00
C8     C     0.63620   0.31850   0.42930   0.01267  Uiso   1.00
C9     C     0.59550   0.36670   0.42940   0.01267  Uiso   1.00
C10    C     0.55850   0.37750   0.48060   0.01267  Uiso   1.00
C11    C     0.56200   0.34000   0.53180   0.01267  Uiso   1.00
C12    C     0.60260   0.29170   0.53170   0.01267  Uiso   1.00
C13    C     0.49690   0.96270   0.91340   0.01267  Uiso   1.00
C14    C     0.36380   0.79310   0.68230   0.01267  Uiso   1.00
C15    C     0.40450   0.83390   0.77120   0.01267  Uiso   1.00
C16    C     0.44150   0.92210   0.81900   0.01267  Uiso   1.00
C17    C     0.43800   0.96980   0.77800   0.01267  Uiso   1.00
C18    C     0.39740   0.92910   0.68910   0.01267  Uiso   1.00
C19    C     0.04930   0.58350   0.08660   0.01267  Uiso   1.00
C20    C     0.11080   0.68150   0.31770   0.01267  Uiso   1.00
C21    C     0.06270   0.63330   0.22880   0.01267  Uiso   1.00
C22    C     0.10310   0.62250   0.18100   0.01267  Uiso   1.00
C23    C     0.19180   0.66000   0.22200   0.01267  Uiso   1.00
C24    C     0.24000   0.70830   0.31090   0.01267  Uiso   1.00
C25    C     0.91340   0.49690   0.96270   0.01267  Uiso   1.00
C26    C     0.68230   0.36380   0.79310   0.01267  Uiso   1.00
C27    C     0.77120   0.40450   0.83390   0.01267  Uiso   1.00
C28    C     0.81900   0.44150   0.92210   0.01267  Uiso   1.00
C29    C     0.77800   0.43800   0.96980   0.01267  Uiso   1.00
C30    C     0.68910   0.39740   0.92910   0.01267  Uiso   1.00
C31    C     0.08660   0.04930   0.58350   0.01267  Uiso   1.00
C32    C     0.31770   0.11080   0.68150   0.01267  Uiso   1.00
C33    C     0.22880   0.06270   0.63330   0.01267  Uiso   1.00
C34    C     0.18100   0.10310   0.62250   0.01267  Uiso   1.00
C35    C     0.22200   0.19180   0.66000   0.01267  Uiso   1.00
C36    C     0.31090   0.24000   0.70830   0.01267  Uiso   1.00
C37    C     0.53420   0.95070   0.03730   0.01267  Uiso   1.00
C38    C     0.57070   0.88920   0.20690   0.01267  Uiso   1.00
C39    C     0.57060   0.93730   0.16610   0.01267  Uiso   1.00
C40    C     0.51940   0.89690   0.07790   0.01267  Uiso   1.00
C41    C     0.46820   0.80820   0.03020   0.01267  Uiso   1.00
C42    C     0.46830   0.76000   0.07090   0.01267  Uiso   1.00
C43    C     0.46580   0.50310   0.41650   0.01267  Uiso   1.00
C44    C     0.42930   0.63620   0.31850   0.01267  Uiso   1.00
C45    C     0.42940   0.59550   0.36670   0.01267  Uiso   1.00
C46    C     0.48060   0.55850   0.37750   0.01267  Uiso   1.00
C47    C     0.53180   0.56200   0.34000   0.01267  Uiso   1.00
C48    C     0.53170   0.60260   0.29170   0.01267  Uiso   1.00
C49    C     0.41650   0.46580   0.50310   0.01267  Uiso   1.00
C50    C     0.31850   0.42930   0.63620   0.01267  Uiso   1.00
C51    C     0.36670   0.42940   0.59550   0.01267  Uiso   1.00
C52    C     0.37750   0.48060   0.55850   0.01267  Uiso   1.00
C53    C     0.34000   0.53180   0.56200   0.01267  Uiso   1.00
C54    C     0.29170   0.53170   0.60260   0.01267  Uiso   1.00
C55    C     0.03730   0.53420   0.95070   0.01267  Uiso   1.00
C56    C     0.20690   0.57070   0.88920   0.01267  Uiso   1.00
C57    C     0.16610   0.57060   0.93730   0.01267  Uiso   1.00
C58    C     0.07790   0.51940   0.89690   0.01267  Uiso   1.00
C59    C     0.03020   0.46820   0.80820   0.01267  Uiso   1.00
C60    C     0.07090   0.46830   0.76000   0.01267  Uiso   1.00
C61    C     0.58350   0.08660   0.04930   0.01267  Uiso   1.00
C62    C     0.68150   0.31770   0.11080   0.01267  Uiso   1.00
C63    C     0.63330   0.22880   0.06270   0.01267  Uiso   1.00
C64    C     0.62250   0.18100   0.10310   0.01267  Uiso   1.00
C65    C     0.66000   0.22200   0.19180   0.01267  Uiso   1.00
C66    C     0.70830   0.31090   0.24000   0.01267  Uiso   1.00
C67    C     0.96270   0.91340   0.49690   0.01267  Uiso   1.00
C68    C     0.79310   0.68230   0.36380   0.01267  Uiso   1.00
C69    C     0.83390   0.77120   0.40450   0.01267  Uiso   1.00
C70    C     0.92210   0.81900   0.44150   0.01267  Uiso   1.00
C71    C     0.96980   0.77800   0.43800   0.01267  Uiso   1.00
C72    C     0.92910   0.68910   0.39740   0.01267  Uiso   1.00
N1     N     0.91030   0.94880   0.48930   0.01267  Uiso   1.00
N2     N     0.80050   0.15920   0.51950   0.01267  Uiso   1.00
N3     N     0.45950   0.42100   0.51070   0.01267  Uiso   1.00
N4     N     0.63970   0.28100   0.48050   0.01267  Uiso   1.00
N5     N     0.54050   0.05120   0.96150   0.01267  Uiso   1.00
N6     N     0.36030   0.84080   0.64130   0.01267  Uiso   1.00
N7     N     0.08970   0.57900   0.03850   0.01267  Uiso   1.00
N8     N     0.19950   0.71900   0.35870   0.01267  Uiso   1.00
N9     N     0.96150   0.54050   0.05120   0.01267  Uiso   1.00
N10    N     0.64130   0.36030   0.84080   0.01267  Uiso   1.00
N11    N     0.03850   0.08970   0.57900   0.01267  Uiso   1.00
N12    N     0.35870   0.19950   0.71900   0.01267  Uiso   1.00
N13    N     0.48930   0.91030   0.94880   0.01267  Uiso   1.00
N14    N     0.51950   0.80050   0.15920   0.01267  Uiso   1.00
N15    N     0.51070   0.45950   0.42100   0.01267  Uiso   1.00
N16    N     0.48050   0.63970   0.28100   0.01267  Uiso   1.00
N17    N     0.42100   0.51070   0.45950   0.01267  Uiso   1.00
N18    N     0.28100   0.48050   0.63970   0.01267  Uiso   1.00
N19    N     0.94880   0.48930   0.91030   0.01267  Uiso   1.00
N20    N     0.15920   0.51950   0.80050   0.01267  Uiso   1.00
N21    N     0.57900   0.03850   0.08970   0.01267  Uiso   1.00
N22    N     0.71900   0.35870   0.19950   0.01267  Uiso   1.00
N23    N     0.05120   0.96150   0.54050   0.01267  Uiso   1.00
N24    N     0.84080   0.64130   0.36030   0.01267  Uiso   1.00
Cl1    Cl    0.80166   0.31390   0.65596   0.01267  Uiso   1.00
Cl2    Cl    0.65794   0.14570   0.34404   0.01267  Uiso   1.00
Cl3    Cl    0.34206   0.68610   0.48776   0.01267  Uiso   1.00
Cl4    Cl    0.19834   0.85430   0.51224   0.01267  Uiso   1.00
Cl5    Cl    0.48776   0.34206   0.68610   0.01267  Uiso   1.00
Cl6    Cl    0.51224   0.19834   0.85430   0.01267  Uiso   1.00
Cl7    Cl    0.65596   0.80166   0.31390   0.01267  Uiso   1.00
Cl8    Cl    0.34404   0.65794   0.14570   0.01267  Uiso   1.00
Cl9    Cl    0.14570   0.34404   0.65794   0.01267  Uiso   1.00
Cl10   Cl    0.31390   0.65596   0.80166   0.01267  Uiso   1.00
Cl11   Cl    0.85430   0.51224   0.19834   0.01267  Uiso   1.00
Cl12   Cl    0.68610   0.48776   0.34206   0.01267  Uiso   1.00
Cl13   Cl    0.63080   0.13080   0.50000   0.01267  Uiso   1.00
Cl14   Cl    0.36920   0.86920   0.50000   0.01267  Uiso   1.00
Cl15   Cl    0.50000   0.36920   0.86920   0.01267  Uiso   1.00
Cl16   Cl    0.50000   0.63080   0.13080   0.01267  Uiso   1.00
Cl17   Cl    0.13080   0.50000   0.63080   0.01267  Uiso   1.00
Cl18   Cl    0.86920   0.50000   0.36920   0.01267  Uiso   1.00
