data_SETQOZ_SL
_audit_creation_date              2015-05-20
_audit_creation_method            'Materials Studio'
_symmetry_space_group_name_H-M    'P1'
_symmetry_Int_Tables_number       1
_symmetry_cell_setting            triclinic
loop_
_symmetry_equiv_pos_as_xyz
  x,y,z
_cell_length_a                    6.9035
_cell_length_b                    15.9959
_cell_length_c                    14.3406
_cell_angle_alpha                 90.0000
_cell_angle_beta                  90.0000
_cell_angle_gamma                 90.0000
loop_
_atom_site_label
_atom_site_type_symbol
_atom_site_fract_x
_atom_site_fract_y
_atom_site_fract_z
_atom_site_U_iso_or_equiv
_atom_site_adp_type
_atom_site_occupancy
H1     H     0.70334   0.55495   0.55515   0.01267  Uiso   1.00
C2     C     0.82627   0.53218   0.53229   0.01267  Uiso   1.00
O3     O     0.84082   0.66219   0.66276   0.01267  Uiso   1.00
H4     H     0.20334   0.05495   0.05515   0.01267  Uiso   1.00
C5     C     0.32627   0.03218   0.03229   0.01267  Uiso   1.00
O6     O     0.34082   0.16219   0.16276   0.01267  Uiso   1.00
H7     H     0.29666   0.94505   0.55515   0.01267  Uiso   1.00
C8     C     0.17373   0.96782   0.53229   0.01267  Uiso   1.00
O9     O     0.15918   0.83781   0.66276   0.01267  Uiso   1.00
H10    H     0.79666   0.44505   0.05515   0.01267  Uiso   1.00
C11    C     0.67373   0.46782   0.03229   0.01267  Uiso   1.00
O12    O     0.65918   0.33781   0.16276   0.01267  Uiso   1.00
H13    H     0.29666   0.05495   0.44485   0.01267  Uiso   1.00
C14    C     0.17373   0.03218   0.46771   0.01267  Uiso   1.00
O15    O     0.15918   0.16219   0.33724   0.01267  Uiso   1.00
H16    H     0.79666   0.55495   0.94485   0.01267  Uiso   1.00
C17    C     0.67373   0.53218   0.96771   0.01267  Uiso   1.00
O18    O     0.65918   0.66219   0.83724   0.01267  Uiso   1.00
H19    H     0.70334   0.44505   0.44485   0.01267  Uiso   1.00
C20    C     0.82627   0.46782   0.46771   0.01267  Uiso   1.00
O21    O     0.84082   0.33781   0.33724   0.01267  Uiso   1.00
H22    H     0.20334   0.94505   0.94485   0.01267  Uiso   1.00
C23    C     0.32627   0.96782   0.96771   0.01267  Uiso   1.00
O24    O     0.34082   0.83781   0.83724   0.01267  Uiso   1.00
H25    H     0.29666   0.44505   0.44485   0.01267  Uiso   1.00
C26    C     0.17373   0.46782   0.46771   0.01267  Uiso   1.00
O27    O     0.15918   0.33781   0.33724   0.01267  Uiso   1.00
H28    H     0.79666   0.94505   0.94485   0.01267  Uiso   1.00
C29    C     0.67373   0.96782   0.96771   0.01267  Uiso   1.00
O30    O     0.65918   0.83781   0.83724   0.01267  Uiso   1.00
H31    H     0.70334   0.05495   0.44485   0.01267  Uiso   1.00
C32    C     0.82627   0.03218   0.46771   0.01267  Uiso   1.00
O33    O     0.84082   0.16219   0.33724   0.01267  Uiso   1.00
H34    H     0.20334   0.55495   0.94485   0.01267  Uiso   1.00
C35    C     0.32627   0.53218   0.96771   0.01267  Uiso   1.00
O36    O     0.34082   0.66219   0.83724   0.01267  Uiso   1.00
H37    H     0.70334   0.94505   0.55515   0.01267  Uiso   1.00
C38    C     0.82627   0.96782   0.53229   0.01267  Uiso   1.00
O39    O     0.84082   0.83781   0.66276   0.01267  Uiso   1.00
H40    H     0.20334   0.44505   0.05515   0.01267  Uiso   1.00
C41    C     0.32627   0.46782   0.03229   0.01267  Uiso   1.00
O42    O     0.34082   0.33781   0.16276   0.01267  Uiso   1.00
H43    H     0.29666   0.55495   0.55515   0.01267  Uiso   1.00
C44    C     0.17373   0.53218   0.53229   0.01267  Uiso   1.00
O45    O     0.15918   0.66219   0.66276   0.01267  Uiso   1.00
H46    H     0.79666   0.05495   0.05515   0.01267  Uiso   1.00
C47    C     0.67373   0.03218   0.03229   0.01267  Uiso   1.00
O48    O     0.65918   0.16219   0.16276   0.01267  Uiso   1.00
H49    H     0.50000   0.25000   0.38215   0.01267  Uiso   1.00
H50    H    -0.00000   0.75000   0.88215   0.01267  Uiso   1.00
H51    H     0.50000   0.75000   0.61785   0.01267  Uiso   1.00
H52    H    -0.00000   0.25000   0.11785   0.01267  Uiso   1.00
Fe53   Fe    0.75000   0.25000   0.25000   0.01267  Uiso   1.00
Fe54   Fe    0.25000   0.25000   0.25000   0.01267  Uiso   1.00
Fe55   Fe    0.25000   0.75000   0.75000   0.01267  Uiso   1.00
Fe56   Fe    0.75000   0.75000   0.75000   0.01267  Uiso   1.00
C57    C    -0.00000   0.56436   0.56459   0.01267  Uiso   1.00
C58    C    -0.00000   0.63268   0.63314   0.01267  Uiso   1.00
C59    C     0.50000   0.06436   0.06459   0.01267  Uiso   1.00
C60    C     0.50000   0.13268   0.13314   0.01267  Uiso   1.00
C61    C     0.00000   0.93564   0.56459   0.01267  Uiso   1.00
C62    C     0.00000   0.86732   0.63314   0.01267  Uiso   1.00
C63    C     0.50000   0.43564   0.06459   0.01267  Uiso   1.00
C64    C     0.50000   0.36732   0.13314   0.01267  Uiso   1.00
C65    C     0.00000   0.06436   0.43541   0.01267  Uiso   1.00
C66    C     0.00000   0.13268   0.36686   0.01267  Uiso   1.00
C67    C     0.50000   0.56436   0.93541   0.01267  Uiso   1.00
C68    C     0.50000   0.63268   0.86686   0.01267  Uiso   1.00
C69    C    -0.00000   0.43564   0.43541   0.01267  Uiso   1.00
C70    C    -0.00000   0.36732   0.36686   0.01267  Uiso   1.00
C71    C     0.50000   0.93564   0.93541   0.01267  Uiso   1.00
C72    C     0.50000   0.86732   0.86686   0.01267  Uiso   1.00
O73    O     0.50000   0.75000   0.68758   0.01267  Uiso   1.00
O74    O    -0.00000   0.25000   0.18758   0.01267  Uiso   1.00
O75    O     0.50000   0.25000   0.31242   0.01267  Uiso   1.00
O76    O    -0.00000   0.75000   0.81242   0.01267  Uiso   1.00
