data_image0
_cell_length_a       20.5308
_cell_length_b       9.1709
_cell_length_c       6.8801
_cell_angle_alpha    90
_cell_angle_beta     113.072
_cell_angle_gamma    90

_symmetry_space_group_name_H-M    "P 1"
_symmetry_int_tables_number       1

loop_
  _symmetry_equiv_pos_as_xyz
  'x, y, z'

loop_
  _atom_site_label
  _atom_site_occupancy
  _atom_site_fract_x
  _atom_site_fract_y
  _atom_site_fract_z
  _atom_site_thermal_displace_type
  _atom_site_B_iso_or_equiv
  _atom_site_type_symbol
  Fe1      1.0000 0.00540  0.00380  0.95400  Biso   1.000  Fe
  O1       1.0000 0.07140  0.12530  0.62410  Biso   1.000  O
  O2       1.0000 0.08850  0.09730  0.95810  Biso   1.000  O
  O3       1.0000 0.42010  0.36150  0.92670  Biso   1.000  O
  O4       1.0000 0.43720  0.33350  0.26070  Biso   1.000  O
  C1       1.0000 0.18580  0.18300  0.88290  Biso   1.000  C
  C2       1.0000 0.21180  0.21500  0.73250  Biso   1.000  C
  C3       1.0000 0.28030  0.26140  0.79200  Biso   1.000  C
  C4       1.0000 0.32280  0.27580  0.00190  Biso   1.000  C
  C5       1.0000 0.29680  0.24380  0.15230  Biso   1.000  C
  C6       1.0000 0.22830  0.19740  0.09280  Biso   1.000  C
  C7       1.0000 0.11170  0.13280  0.81870  Biso   1.000  C
  C8       1.0000 0.39690  0.32600  0.06610  Biso   1.000  C
  H1       1.0000 0.18140  0.20470  0.58230  Biso   1.000  H
  H2       1.0000 0.29900  0.28430  0.68430  Biso   1.000  H
  H3       1.0000 0.32720  0.25410  0.30250  Biso   1.000  H
  H4       1.0000 0.20960  0.17450  0.20050  Biso   1.000  H
  O5       1.0000 0.00670  0.90110  0.69600  Biso   1.000  O
  Fe2      1.0000 0.50540  0.50380  0.95400  Biso   1.000  Fe
  O6       1.0000 0.57140  0.62530  0.62410  Biso   1.000  O
  O7       1.0000 0.58850  0.59730  0.95810  Biso   1.000  O
  O8       1.0000 0.92010  0.86150  0.92670  Biso   1.000  O
  O9       1.0000 0.93720  0.83350  0.26070  Biso   1.000  O
  C9       1.0000 0.68580  0.68300  0.88290  Biso   1.000  C
  C10      1.0000 0.71180  0.71500  0.73250  Biso   1.000  C
  C11      1.0000 0.78030  0.76140  0.79200  Biso   1.000  C
  C12      1.0000 0.82280  0.77580  0.00190  Biso   1.000  C
  C13      1.0000 0.79680  0.74380  0.15230  Biso   1.000  C
  C14      1.0000 0.72830  0.69740  0.09280  Biso   1.000  C
  C15      1.0000 0.61170  0.63280  0.81870  Biso   1.000  C
  C16      1.0000 0.89690  0.82600  0.06610  Biso   1.000  C
  H5       1.0000 0.68140  0.70470  0.58230  Biso   1.000  H
  H6       1.0000 0.79900  0.78430  0.68430  Biso   1.000  H
  H7       1.0000 0.82720  0.75410  0.30250  Biso   1.000  H
  H8       1.0000 0.70960  0.67450  0.20050  Biso   1.000  H
  O10      1.0000 0.50670  0.40110  0.69600  Biso   1.000  O
  Fe3      1.0000 0.00540  0.99620  0.45400  Biso   1.000  Fe
  O11      1.0000 0.07140  0.87470  0.12410  Biso   1.000  O
  O12      1.0000 0.08850  0.90270  0.45810  Biso   1.000  O
  O13      1.0000 0.42010  0.63850  0.42670  Biso   1.000  O
  O14      1.0000 0.43720  0.66650  0.76070  Biso   1.000  O
  C17      1.0000 0.18580  0.81700  0.38290  Biso   1.000  C
  C18      1.0000 0.21180  0.78500  0.23250  Biso   1.000  C
  C19      1.0000 0.28030  0.73860  0.29200  Biso   1.000  C
  C20      1.0000 0.32280  0.72420  0.50190  Biso   1.000  C
  C21      1.0000 0.29680  0.75620  0.65230  Biso   1.000  C
  C22      1.0000 0.22830  0.80260  0.59280  Biso   1.000  C
  C23      1.0000 0.11170  0.86720  0.31870  Biso   1.000  C
  C24      1.0000 0.39690  0.67400  0.56610  Biso   1.000  C
  H9       1.0000 0.18140  0.79530  0.08230  Biso   1.000  H
  H10      1.0000 0.29900  0.71570  0.18430  Biso   1.000  H
  H11      1.0000 0.32720  0.74590  0.80250  Biso   1.000  H
  H12      1.0000 0.20960  0.82550  0.70050  Biso   1.000  H
  O15      1.0000 0.00670  0.09890  0.19600  Biso   1.000  O
  Fe4      1.0000 0.50540  0.49620  0.45400  Biso   1.000  Fe
  O16      1.0000 0.57140  0.37470  0.12410  Biso   1.000  O
  O17      1.0000 0.58850  0.40270  0.45810  Biso   1.000  O
  O18      1.0000 0.92010  0.13850  0.42670  Biso   1.000  O
  O19      1.0000 0.93720  0.16650  0.76070  Biso   1.000  O
  C25      1.0000 0.68580  0.31700  0.38290  Biso   1.000  C
  C26      1.0000 0.71180  0.28500  0.23250  Biso   1.000  C
  C27      1.0000 0.78030  0.23860  0.29200  Biso   1.000  C
  C28      1.0000 0.82280  0.22420  0.50190  Biso   1.000  C
  C29      1.0000 0.79680  0.25620  0.65230  Biso   1.000  C
  C30      1.0000 0.72830  0.30260  0.59280  Biso   1.000  C
  C31      1.0000 0.61170  0.36720  0.31870  Biso   1.000  C
  C32      1.0000 0.89690  0.17400  0.56610  Biso   1.000  C
  H13      1.0000 0.68140  0.29530  0.08230  Biso   1.000  H
  H14      1.0000 0.79900  0.21570  0.18430  Biso   1.000  H
  H15      1.0000 0.82720  0.24590  0.80250  Biso   1.000  H
  H16      1.0000 0.70960  0.32550  0.70050  Biso   1.000  H
  O20      1.0000 0.50670  0.59890  0.19600  Biso   1.000  O
