data_SETQUF_clean
_audit_creation_date              2015-05-20
_audit_creation_method            'Materials Studio'
_symmetry_space_group_name_H-M    'P1'
_symmetry_Int_Tables_number       1
_symmetry_cell_setting            triclinic
loop_
_symmetry_equiv_pos_as_xyz
  x,y,z
_cell_length_a                    11.2577
_cell_length_b                    11.2577
_cell_length_c                    15.9049
_cell_angle_alpha                 115.8475
_cell_angle_beta                  115.8475
_cell_angle_gamma                 90.8657
loop_
_atom_site_label
_atom_site_type_symbol
_atom_site_fract_x
_atom_site_fract_y
_atom_site_fract_z
_atom_site_U_iso_or_equiv
_atom_site_adp_type
_atom_site_occupancy
H1     H     0.92044   0.81630   0.42645   0.01267  Uiso   1.00
H2     H     0.86776   0.98142   0.37253   0.01267  Uiso   1.00
H3     H     0.57251   0.68675   0.07747   0.01267  Uiso   1.00
H4     H     0.62519   0.52163   0.13139   0.01267  Uiso   1.00
C5     C     0.77718   0.65526   0.28339   0.01267  Uiso   1.00
C6     C     0.84790   0.78930   0.35369   0.01267  Uiso   1.00
C7     C     0.81718   0.88554   0.32225   0.01267  Uiso   1.00
C8     C     0.71577   0.84779   0.22053   0.01267  Uiso   1.00
C9     C     0.64506   0.71376   0.15024   0.01267  Uiso   1.00
C10    C     0.67577   0.61751   0.18167   0.01267  Uiso   1.00
C11    C     0.81015   0.55197   0.31712   0.01267  Uiso   1.00
C12    C     0.68280   0.95108   0.18680   0.01267  Uiso   1.00
O13    O     0.74655   0.42733   0.25127   0.01267  Uiso   1.00
O14    O     0.90223   0.58739   0.41212   0.01267  Uiso   1.00
O15    O     0.58367   0.91745   0.09469   0.01267  Uiso   1.00
O16    O     0.75346   0.07394   0.24977   0.01267  Uiso   1.00
O17    O     0.66183   0.14795   0.09335   0.01267  Uiso   1.00
H18    H     0.19949   0.70703   0.56569   0.00000  Uiso   1.00
H19    H     0.18370   0.07956   0.07355   0.01267  Uiso   1.00
H20    H     0.01858   0.13224   0.12747   0.01267  Uiso   1.00
H21    H     0.31325   0.42749   0.42253   0.01267  Uiso   1.00
H22    H     0.47837   0.37481   0.36861   0.01267  Uiso   1.00
C23    C     0.34474   0.22282   0.21661   0.01267  Uiso   1.00
C24    C     0.21070   0.15210   0.14631   0.01267  Uiso   1.00
C25    C     0.11446   0.18282   0.17775   0.01267  Uiso   1.00
C26    C     0.15221   0.28423   0.27947   0.01267  Uiso   1.00
C27    C     0.28624   0.35494   0.34976   0.01267  Uiso   1.00
C28    C     0.38249   0.32423   0.31833   0.01267  Uiso   1.00
C29    C     0.44803   0.18985   0.18288   0.01267  Uiso   1.00
C30    C     0.04892   0.31720   0.31320   0.01267  Uiso   1.00
O31    O     0.57267   0.25345   0.24873   0.01267  Uiso   1.00
O32    O     0.41261   0.09777   0.08788   0.01267  Uiso   1.00
O33    O     0.08255   0.41633   0.40531   0.01267  Uiso   1.00
O34    O     0.92606   0.24654   0.25023   0.01267  Uiso   1.00
O35    O     0.85205   0.33817   0.40665   0.01267  Uiso   1.00
H36    H     0.29297   0.80051   0.93431   0.00000  Uiso   1.00
H37    H     0.07956   0.18370   0.57355   0.01267  Uiso   1.00
H38    H     0.13224   0.01858   0.62747   0.01267  Uiso   1.00
H39    H     0.42749   0.31325   0.92253   0.01267  Uiso   1.00
H40    H     0.37481   0.47837   0.86861   0.01267  Uiso   1.00
C41    C     0.22282   0.34474   0.71661   0.01267  Uiso   1.00
C42    C     0.15210   0.21070   0.64631   0.01267  Uiso   1.00
C43    C     0.18282   0.11446   0.67775   0.01267  Uiso   1.00
C44    C     0.28423   0.15221   0.77947   0.01267  Uiso   1.00
C45    C     0.35494   0.28624   0.84976   0.01267  Uiso   1.00
C46    C     0.32423   0.38249   0.81833   0.01267  Uiso   1.00
C47    C     0.18985   0.44803   0.68288   0.01267  Uiso   1.00
C48    C     0.31720   0.04892   0.81320   0.01267  Uiso   1.00
O49    O     0.25345   0.57267   0.74873   0.01267  Uiso   1.00
O50    O     0.09777   0.41261   0.58788   0.01267  Uiso   1.00
O51    O     0.41633   0.08255   0.90531   0.01267  Uiso   1.00
O52    O     0.24654   0.92606   0.75023   0.01267  Uiso   1.00
O53    O     0.33817   0.85205   0.90665   0.01267  Uiso   1.00
H54    H     0.80051   0.29297   0.43431   0.00000  Uiso   1.00
H55    H     0.81630   0.92044   0.92645   0.01267  Uiso   1.00
H56    H     0.98142   0.86776   0.87253   0.01267  Uiso   1.00
H57    H     0.68675   0.57251   0.57747   0.01267  Uiso   1.00
H58    H     0.52163   0.62519   0.63139   0.01267  Uiso   1.00
C59    C     0.65526   0.77718   0.78339   0.01267  Uiso   1.00
C60    C     0.78930   0.84790   0.85369   0.01267  Uiso   1.00
C61    C     0.88554   0.81718   0.82225   0.01267  Uiso   1.00
C62    C     0.84779   0.71577   0.72053   0.01267  Uiso   1.00
C63    C     0.71376   0.64506   0.65024   0.01267  Uiso   1.00
C64    C     0.61751   0.67577   0.68167   0.01267  Uiso   1.00
C65    C     0.55197   0.81015   0.81712   0.01267  Uiso   1.00
C66    C     0.95108   0.68280   0.68680   0.01267  Uiso   1.00
O67    O     0.42733   0.74655   0.75127   0.01267  Uiso   1.00
O68    O     0.58739   0.90223   0.91212   0.01267  Uiso   1.00
O69    O     0.91745   0.58367   0.59469   0.01267  Uiso   1.00
O70    O     0.07394   0.75346   0.74977   0.01267  Uiso   1.00
O71    O     0.14795   0.66183   0.59335   0.01267  Uiso   1.00
H72    H     0.70703   0.19949   0.06569   0.00000  Uiso   1.00
Fe73   Fe    0.75177   0.24823   0.25000   0.01267  Uiso   1.00
Fe74   Fe    0.24823   0.75177   0.75000   0.01267  Uiso   1.00
Fe75   Fe    0.50000  -0.00000  -0.00000   0.01267  Uiso   1.00
Fe76   Fe   -0.00000   0.50000   0.50000   0.01267  Uiso   1.00
