data_image0
_cell_length_a       20.4633
_cell_length_b       9.2876
_cell_length_c       6.8839
_cell_angle_alpha    90
_cell_angle_beta     112.718
_cell_angle_gamma    90

_symmetry_space_group_name_H-M    "P 1"
_symmetry_int_tables_number       1

loop_
  _symmetry_equiv_pos_as_xyz
  'x, y, z'

loop_
  _atom_site_label
  _atom_site_occupancy
  _atom_site_fract_x
  _atom_site_fract_y
  _atom_site_fract_z
  _atom_site_thermal_displace_type
  _atom_site_B_iso_or_equiv
  _atom_site_type_symbol
  Fe1      1.0000 0.00500  0.01050  0.01470  Biso   1.000  Fe
  O1       1.0000 0.06900  0.12710  0.69370  Biso   1.000  O
  O2       1.0000 0.08530  0.09840  0.02640  Biso   1.000  O
  O3       1.0000 0.41850  0.36950  0.99910  Biso   1.000  O
  O4       1.0000 0.43480  0.34080  0.33180  Biso   1.000  O
  C1       1.0000 0.18350  0.18650  0.95300  Biso   1.000  C
  C2       1.0000 0.21050  0.21610  0.80360  Biso   1.000  C
  C3       1.0000 0.27890  0.26360  0.86330  Biso   1.000  C
  C4       1.0000 0.32030  0.28140  0.07250  Biso   1.000  C
  C5       1.0000 0.29330  0.25170  0.22200  Biso   1.000  C
  C6       1.0000 0.22490  0.20430  0.16220  Biso   1.000  C
  C7       1.0000 0.10890  0.13470  0.88780  Biso   1.000  C
  C8       1.0000 0.39500  0.33310  0.13780  Biso   1.000  C
  H1       1.0000 0.18090  0.20340  0.65390  Biso   1.000  H
  H2       1.0000 0.29820  0.28480  0.75640  Biso   1.000  H
  H3       1.0000 0.32300  0.26450  0.37160  Biso   1.000  H
  H4       1.0000 0.20570  0.18310  0.26910  Biso   1.000  H
  O5       1.0000 0.00520  0.90330  0.76290  Biso   1.000  O
  Fe2      1.0000 0.50500  0.51050  0.01470  Biso   1.000  Fe
  O6       1.0000 0.56900  0.62710  0.69370  Biso   1.000  O
  O7       1.0000 0.58530  0.59840  0.02640  Biso   1.000  O
  O8       1.0000 0.91850  0.86950  0.99910  Biso   1.000  O
  O9       1.0000 0.93480  0.84080  0.33180  Biso   1.000  O
  C9       1.0000 0.68350  0.68650  0.95300  Biso   1.000  C
  C10      1.0000 0.71050  0.71610  0.80360  Biso   1.000  C
  C11      1.0000 0.77890  0.76360  0.86330  Biso   1.000  C
  C12      1.0000 0.82030  0.78140  0.07250  Biso   1.000  C
  C13      1.0000 0.79330  0.75170  0.22200  Biso   1.000  C
  C14      1.0000 0.72490  0.70430  0.16220  Biso   1.000  C
  C15      1.0000 0.60890  0.63470  0.88780  Biso   1.000  C
  C16      1.0000 0.89500  0.83310  0.13780  Biso   1.000  C
  H5       1.0000 0.68090  0.70340  0.65390  Biso   1.000  H
  H6       1.0000 0.79820  0.78480  0.75640  Biso   1.000  H
  H7       1.0000 0.82300  0.76450  0.37160  Biso   1.000  H
  H8       1.0000 0.70570  0.68310  0.26910  Biso   1.000  H
  O10      1.0000 0.50520  0.40330  0.76290  Biso   1.000  O
  Fe3      1.0000 0.00500  0.98950  0.51470  Biso   1.000  Fe
  O11      1.0000 0.06900  0.87290  0.19370  Biso   1.000  O
  O12      1.0000 0.08530  0.90160  0.52640  Biso   1.000  O
  O13      1.0000 0.41850  0.63050  0.49910  Biso   1.000  O
  O14      1.0000 0.43480  0.65920  0.83180  Biso   1.000  O
  C17      1.0000 0.18350  0.81350  0.45300  Biso   1.000  C
  C18      1.0000 0.21050  0.78390  0.30360  Biso   1.000  C
  C19      1.0000 0.27890  0.73640  0.36330  Biso   1.000  C
  C20      1.0000 0.32030  0.71860  0.57250  Biso   1.000  C
  C21      1.0000 0.29330  0.74830  0.72200  Biso   1.000  C
  C22      1.0000 0.22490  0.79570  0.66220  Biso   1.000  C
  C23      1.0000 0.10890  0.86530  0.38780  Biso   1.000  C
  C24      1.0000 0.39500  0.66690  0.63780  Biso   1.000  C
  H9       1.0000 0.18090  0.79660  0.15390  Biso   1.000  H
  H10      1.0000 0.29820  0.71520  0.25640  Biso   1.000  H
  H11      1.0000 0.32300  0.73550  0.87160  Biso   1.000  H
  H12      1.0000 0.20570  0.81690  0.76910  Biso   1.000  H
  O15      1.0000 0.00520  0.09670  0.26290  Biso   1.000  O
  Fe4      1.0000 0.50500  0.48950  0.51470  Biso   1.000  Fe
  O16      1.0000 0.56900  0.37290  0.19370  Biso   1.000  O
  O17      1.0000 0.58530  0.40160  0.52640  Biso   1.000  O
  O18      1.0000 0.91850  0.13050  0.49910  Biso   1.000  O
  O19      1.0000 0.93480  0.15920  0.83180  Biso   1.000  O
  C25      1.0000 0.68350  0.31350  0.45300  Biso   1.000  C
  C26      1.0000 0.71050  0.28390  0.30360  Biso   1.000  C
  C27      1.0000 0.77890  0.23640  0.36330  Biso   1.000  C
  C28      1.0000 0.82030  0.21860  0.57250  Biso   1.000  C
  C29      1.0000 0.79330  0.24830  0.72200  Biso   1.000  C
  C30      1.0000 0.72490  0.29570  0.66220  Biso   1.000  C
  C31      1.0000 0.60890  0.36530  0.38780  Biso   1.000  C
  C32      1.0000 0.89500  0.16690  0.63780  Biso   1.000  C
  H13      1.0000 0.68090  0.29660  0.15390  Biso   1.000  H
  H14      1.0000 0.79820  0.21520  0.25640  Biso   1.000  H
  H15      1.0000 0.82300  0.23550  0.87160  Biso   1.000  H
  H16      1.0000 0.70570  0.31690  0.76910  Biso   1.000  H
  O20      1.0000 0.50520  0.59670  0.26290  Biso   1.000  O
