data_image0
_cell_length_a       20.5266
_cell_length_b       9.1925
_cell_length_c       6.8763
_cell_angle_alpha    90
_cell_angle_beta     113.084
_cell_angle_gamma    90

_symmetry_space_group_name_H-M    "P 1"
_symmetry_int_tables_number       1

loop_
  _symmetry_equiv_pos_as_xyz
  'x, y, z'

loop_
  _atom_site_label
  _atom_site_occupancy
  _atom_site_fract_x
  _atom_site_fract_y
  _atom_site_fract_z
  _atom_site_thermal_displace_type
  _atom_site_B_iso_or_equiv
  _atom_site_type_symbol
  Fe1      1.0000 0.99590  0.00530  0.96120  Biso   1.000  Fe
  O1       1.0000 0.06170  0.12670  0.63570  Biso   1.000  O
  O2       1.0000 0.07900  0.09730  0.96980  Biso   1.000  O
  O3       1.0000 0.41060  0.36510  0.93940  Biso   1.000  O
  O4       1.0000 0.42780  0.33560  0.27350  Biso   1.000  O
  C1       1.0000 0.17630  0.18440  0.89500  Biso   1.000  C
  C2       1.0000 0.20250  0.21540  0.74460  Biso   1.000  C
  C3       1.0000 0.27100  0.26220  0.80420  Biso   1.000  C
  C4       1.0000 0.31320  0.27800  0.01420  Biso   1.000  C
  C5       1.0000 0.28700  0.24700  0.16460  Biso   1.000  C
  C6       1.0000 0.21850  0.20020  0.10500  Biso   1.000  C
  C7       1.0000 0.10210  0.13370  0.83040  Biso   1.000  C
  C8       1.0000 0.38740  0.32870  0.07880  Biso   1.000  C
  H1       1.0000 0.17230  0.20410  0.59440  Biso   1.000  H
  H2       1.0000 0.28970  0.28430  0.69660  Biso   1.000  H
  H3       1.0000 0.31730  0.25830  0.31490  Biso   1.000  H
  H4       1.0000 0.19980  0.17800  0.21260  Biso   1.000  H
  O5       1.0000 0.99680  0.90310  0.70300  Biso   1.000  O
  Fe2      1.0000 0.49590  0.50530  0.96120  Biso   1.000  Fe
  O6       1.0000 0.56170  0.62670  0.63570  Biso   1.000  O
  O7       1.0000 0.57900  0.59730  0.96980  Biso   1.000  O
  O8       1.0000 0.91060  0.86510  0.93940  Biso   1.000  O
  O9       1.0000 0.92780  0.83560  0.27350  Biso   1.000  O
  C9       1.0000 0.67630  0.68440  0.89500  Biso   1.000  C
  C10      1.0000 0.70250  0.71540  0.74460  Biso   1.000  C
  C11      1.0000 0.77100  0.76220  0.80420  Biso   1.000  C
  C12      1.0000 0.81320  0.77800  0.01420  Biso   1.000  C
  C13      1.0000 0.78700  0.74700  0.16460  Biso   1.000  C
  C14      1.0000 0.71850  0.70020  0.10500  Biso   1.000  C
  C15      1.0000 0.60210  0.63370  0.83040  Biso   1.000  C
  C16      1.0000 0.88740  0.82870  0.07880  Biso   1.000  C
  H5       1.0000 0.67230  0.70410  0.59440  Biso   1.000  H
  H6       1.0000 0.78970  0.78430  0.69660  Biso   1.000  H
  H7       1.0000 0.81730  0.75830  0.31490  Biso   1.000  H
  H8       1.0000 0.69980  0.67800  0.21260  Biso   1.000  H
  O10      1.0000 0.49680  0.40310  0.70300  Biso   1.000  O
  Fe3      1.0000 0.99590  0.99470  0.46120  Biso   1.000  Fe
  O11      1.0000 0.06170  0.87330  0.13570  Biso   1.000  O
  O12      1.0000 0.07900  0.90270  0.46980  Biso   1.000  O
  O13      1.0000 0.41060  0.63490  0.43940  Biso   1.000  O
  O14      1.0000 0.42780  0.66440  0.77350  Biso   1.000  O
  C17      1.0000 0.17630  0.81560  0.39500  Biso   1.000  C
  C18      1.0000 0.20250  0.78460  0.24460  Biso   1.000  C
  C19      1.0000 0.27100  0.73780  0.30420  Biso   1.000  C
  C20      1.0000 0.31320  0.72200  0.51420  Biso   1.000  C
  C21      1.0000 0.28700  0.75300  0.66460  Biso   1.000  C
  C22      1.0000 0.21850  0.79980  0.60500  Biso   1.000  C
  C23      1.0000 0.10210  0.86630  0.33040  Biso   1.000  C
  C24      1.0000 0.38740  0.67130  0.57880  Biso   1.000  C
  H9       1.0000 0.17230  0.79590  0.09440  Biso   1.000  H
  H10      1.0000 0.28970  0.71570  0.19660  Biso   1.000  H
  H11      1.0000 0.31730  0.74170  0.81490  Biso   1.000  H
  H12      1.0000 0.19980  0.82200  0.71260  Biso   1.000  H
  O15      1.0000 0.99680  0.09690  0.20300  Biso   1.000  O
  Fe4      1.0000 0.49590  0.49470  0.46120  Biso   1.000  Fe
  O16      1.0000 0.56170  0.37330  0.13570  Biso   1.000  O
  O17      1.0000 0.57900  0.40270  0.46980  Biso   1.000  O
  O18      1.0000 0.91060  0.13490  0.43940  Biso   1.000  O
  O19      1.0000 0.92780  0.16440  0.77350  Biso   1.000  O
  C25      1.0000 0.67630  0.31560  0.39500  Biso   1.000  C
  C26      1.0000 0.70250  0.28460  0.24460  Biso   1.000  C
  C27      1.0000 0.77100  0.23780  0.30420  Biso   1.000  C
  C28      1.0000 0.81320  0.22200  0.51420  Biso   1.000  C
  C29      1.0000 0.78700  0.25300  0.66460  Biso   1.000  C
  C30      1.0000 0.71850  0.29980  0.60500  Biso   1.000  C
  C31      1.0000 0.60210  0.36630  0.33040  Biso   1.000  C
  C32      1.0000 0.88740  0.17130  0.57880  Biso   1.000  C
  H13      1.0000 0.67230  0.29590  0.09440  Biso   1.000  H
  H14      1.0000 0.78970  0.21570  0.19660  Biso   1.000  H
  H15      1.0000 0.81730  0.24170  0.81490  Biso   1.000  H
  H16      1.0000 0.69980  0.32200  0.71260  Biso   1.000  H
  O20      1.0000 0.49680  0.59690  0.20300  Biso   1.000  O
