data_image0
_cell_length_a       31.7223
_cell_length_b       28.9234
_cell_length_c       6.8965
_cell_angle_alpha    90
_cell_angle_beta     90
_cell_angle_gamma    90

_symmetry_space_group_name_H-M    "P 1"
_symmetry_int_tables_number       1

loop_
  _symmetry_equiv_pos_as_xyz
  'x, y, z'

loop_
  _atom_site_label
  _atom_site_occupancy
  _atom_site_fract_x
  _atom_site_fract_y
  _atom_site_fract_z
  _atom_site_thermal_displace_type
  _atom_site_B_iso_or_equiv
  _atom_site_type_symbol
  O1       1.0000 0.54140  0.95190  0.07400  Biso   1.000  O
  O2       1.0000 0.54320  0.95380  0.39270  Biso   1.000  O
  O3       1.0000 0.70490  0.79180  0.07160  Biso   1.000  O
  O4       1.0000 0.70240  0.78860  0.39000  Biso   1.000  O
  C1       1.0000 0.59120  0.90360  0.23260  Biso   1.000  C
  C2       1.0000 0.60710  0.88780  0.06020  Biso   1.000  C
  C3       1.0000 0.63890  0.85570  0.05960  Biso   1.000  C
  C4       1.0000 0.65480  0.83950  0.23160  Biso   1.000  C
  C5       1.0000 0.63890  0.85530  0.40400  Biso   1.000  C
  C6       1.0000 0.60700  0.88740  0.40450  Biso   1.000  C
  C7       1.0000 0.55710  0.93800  0.23310  Biso   1.000  C
  C8       1.0000 0.68890  0.80510  0.23100  Biso   1.000  C
  H1       1.0000 0.59570  0.89940  0.93730  Biso   1.000  H
  H2       1.0000 0.65030  0.84440  0.93640  Biso   1.000  H
  H3       1.0000 0.65020  0.84370  0.52690  Biso   1.000  H
  H4       1.0000 0.59570  0.89870  0.52780  Biso   1.000  H
  O5       1.0000 0.04140  0.45190  0.07400  Biso   1.000  O
  O6       1.0000 0.04320  0.45380  0.39270  Biso   1.000  O
  O7       1.0000 0.20490  0.29180  0.07160  Biso   1.000  O
  O8       1.0000 0.20240  0.28860  0.39000  Biso   1.000  O
  C9       1.0000 0.09120  0.40360  0.23260  Biso   1.000  C
  C10      1.0000 0.10710  0.38780  0.06020  Biso   1.000  C
  C11      1.0000 0.13890  0.35570  0.05960  Biso   1.000  C
  C12      1.0000 0.15480  0.33950  0.23160  Biso   1.000  C
  C13      1.0000 0.13890  0.35530  0.40400  Biso   1.000  C
  C14      1.0000 0.10700  0.38740  0.40450  Biso   1.000  C
  C15      1.0000 0.05710  0.43800  0.23310  Biso   1.000  C
  C16      1.0000 0.18890  0.30510  0.23100  Biso   1.000  C
  H5       1.0000 0.09570  0.39940  0.93730  Biso   1.000  H
  H6       1.0000 0.15030  0.34440  0.93640  Biso   1.000  H
  H7       1.0000 0.15020  0.34370  0.52690  Biso   1.000  H
  H8       1.0000 0.09570  0.39870  0.52780  Biso   1.000  H
  O9       1.0000 0.45860  0.54810  0.57400  Biso   1.000  O
  O10      1.0000 0.45680  0.54620  0.89270  Biso   1.000  O
  O11      1.0000 0.29510  0.70820  0.57160  Biso   1.000  O
  O12      1.0000 0.29760  0.71140  0.89000  Biso   1.000  O
  C17      1.0000 0.40880  0.59640  0.73260  Biso   1.000  C
  C18      1.0000 0.39290  0.61220  0.56020  Biso   1.000  C
  C19      1.0000 0.36110  0.64430  0.55960  Biso   1.000  C
  C20      1.0000 0.34520  0.66050  0.73160  Biso   1.000  C
  C21      1.0000 0.36110  0.64470  0.90400  Biso   1.000  C
  C22      1.0000 0.39300  0.61260  0.90450  Biso   1.000  C
  C23      1.0000 0.44290  0.56200  0.73310  Biso   1.000  C
  C24      1.0000 0.31110  0.69490  0.73100  Biso   1.000  C
  H9       1.0000 0.40430  0.60060  0.43730  Biso   1.000  H
  H10      1.0000 0.34970  0.65560  0.43640  Biso   1.000  H
  H11      1.0000 0.34980  0.65630  0.02690  Biso   1.000  H
  H12      1.0000 0.40430  0.60130  0.02780  Biso   1.000  H
  O13      1.0000 0.95860  0.04810  0.57400  Biso   1.000  O
  O14      1.0000 0.95680  0.04620  0.89270  Biso   1.000  O
  O15      1.0000 0.79510  0.20820  0.57160  Biso   1.000  O
  O16      1.0000 0.79760  0.21140  0.89000  Biso   1.000  O
  C25      1.0000 0.90880  0.09640  0.73260  Biso   1.000  C
  C26      1.0000 0.89290  0.11220  0.56020  Biso   1.000  C
  C27      1.0000 0.86110  0.14430  0.55960  Biso   1.000  C
  C28      1.0000 0.84520  0.16050  0.73160  Biso   1.000  C
  C29      1.0000 0.86110  0.14470  0.90400  Biso   1.000  C
  C30      1.0000 0.89300  0.11260  0.90450  Biso   1.000  C
  C31      1.0000 0.94290  0.06200  0.73310  Biso   1.000  C
  C32      1.0000 0.81110  0.19490  0.73100  Biso   1.000  C
  H13      1.0000 0.90430  0.10060  0.43730  Biso   1.000  H
  H14      1.0000 0.84970  0.15560  0.43640  Biso   1.000  H
  H15      1.0000 0.84980  0.15630  0.02690  Biso   1.000  H
  H16      1.0000 0.90430  0.10130  0.02780  Biso   1.000  H
  O17      1.0000 0.45860  0.45190  0.42600  Biso   1.000  O
  O18      1.0000 0.45680  0.45380  0.10730  Biso   1.000  O
  O19      1.0000 0.29510  0.29180  0.42840  Biso   1.000  O
  O20      1.0000 0.29760  0.28860  0.11000  Biso   1.000  O
  C33      1.0000 0.40880  0.40360  0.26740  Biso   1.000  C
  C34      1.0000 0.39290  0.38780  0.43980  Biso   1.000  C
  C35      1.0000 0.36110  0.35570  0.44040  Biso   1.000  C
  C36      1.0000 0.34520  0.33950  0.26840  Biso   1.000  C
  C37      1.0000 0.36110  0.35530  0.09600  Biso   1.000  C
  C38      1.0000 0.39300  0.38740  0.09550  Biso   1.000  C
  C39      1.0000 0.44290  0.43800  0.26690  Biso   1.000  C
  C40      1.0000 0.31110  0.30510  0.26900  Biso   1.000  C
  H17      1.0000 0.40430  0.39940  0.56270  Biso   1.000  H
  H18      1.0000 0.34970  0.34440  0.56360  Biso   1.000  H
  H19      1.0000 0.34980  0.34370  0.97310  Biso   1.000  H
  H20      1.0000 0.40430  0.39870  0.97220  Biso   1.000  H
  O21      1.0000 0.95860  0.95190  0.42600  Biso   1.000  O
  O22      1.0000 0.95680  0.95380  0.10730  Biso   1.000  O
  O23      1.0000 0.79510  0.79180  0.42840  Biso   1.000  O
  O24      1.0000 0.79760  0.78860  0.11000  Biso   1.000  O
  C41      1.0000 0.90880  0.90360  0.26740  Biso   1.000  C
  C42      1.0000 0.89290  0.88780  0.43980  Biso   1.000  C
  C43      1.0000 0.86110  0.85570  0.44040  Biso   1.000  C
  C44      1.0000 0.84520  0.83950  0.26840  Biso   1.000  C
  C45      1.0000 0.86110  0.85530  0.09600  Biso   1.000  C
  C46      1.0000 0.89300  0.88740  0.09550  Biso   1.000  C
  C47      1.0000 0.94290  0.93800  0.26690  Biso   1.000  C
  C48      1.0000 0.81110  0.80510  0.26900  Biso   1.000  C
  H21      1.0000 0.90430  0.89940  0.56270  Biso   1.000  H
  H22      1.0000 0.84970  0.84440  0.56360  Biso   1.000  H
  H23      1.0000 0.84980  0.84370  0.97310  Biso   1.000  H
  H24      1.0000 0.90430  0.89870  0.97220  Biso   1.000  H
  O25      1.0000 0.54140  0.04810  0.92600  Biso   1.000  O
  O26      1.0000 0.54320  0.04620  0.60730  Biso   1.000  O
  O27      1.0000 0.70490  0.20820  0.92840  Biso   1.000  O
  O28      1.0000 0.70240  0.21140  0.61000  Biso   1.000  O
  C49      1.0000 0.59120  0.09640  0.76740  Biso   1.000  C
  C50      1.0000 0.60710  0.11220  0.93980  Biso   1.000  C
  C51      1.0000 0.63890  0.14430  0.94040  Biso   1.000  C
  C52      1.0000 0.65480  0.16050  0.76840  Biso   1.000  C
  C53      1.0000 0.63890  0.14470  0.59600  Biso   1.000  C
  C54      1.0000 0.60700  0.11260  0.59550  Biso   1.000  C
  C55      1.0000 0.55710  0.06200  0.76690  Biso   1.000  C
  C56      1.0000 0.68890  0.19490  0.76900  Biso   1.000  C
  H25      1.0000 0.59570  0.10060  0.06270  Biso   1.000  H
  H26      1.0000 0.65030  0.15560  0.06360  Biso   1.000  H
  H27      1.0000 0.65020  0.15630  0.47310  Biso   1.000  H
  H28      1.0000 0.59570  0.10130  0.47220  Biso   1.000  H
  O29      1.0000 0.04140  0.54810  0.92600  Biso   1.000  O
  O30      1.0000 0.04320  0.54620  0.60730  Biso   1.000  O
  O31      1.0000 0.20490  0.70820  0.92840  Biso   1.000  O
  O32      1.0000 0.20240  0.71140  0.61000  Biso   1.000  O
  C57      1.0000 0.09120  0.59640  0.76740  Biso   1.000  C
  C58      1.0000 0.10710  0.61220  0.93980  Biso   1.000  C
  C59      1.0000 0.13890  0.64430  0.94040  Biso   1.000  C
  C60      1.0000 0.15480  0.66050  0.76840  Biso   1.000  C
  C61      1.0000 0.13890  0.64470  0.59600  Biso   1.000  C
  C62      1.0000 0.10700  0.61260  0.59550  Biso   1.000  C
  C63      1.0000 0.05710  0.56200  0.76690  Biso   1.000  C
  C64      1.0000 0.18890  0.69490  0.76900  Biso   1.000  C
  H29      1.0000 0.09570  0.60060  0.06270  Biso   1.000  H
  H30      1.0000 0.15030  0.65560  0.06360  Biso   1.000  H
  H31      1.0000 0.15020  0.65630  0.47310  Biso   1.000  H
  H32      1.0000 0.09570  0.60130  0.47220  Biso   1.000  H
  O33      1.0000 0.45860  0.04810  0.92600  Biso   1.000  O
  O34      1.0000 0.45680  0.04620  0.60730  Biso   1.000  O
  O35      1.0000 0.29510  0.20820  0.92840  Biso   1.000  O
  O36      1.0000 0.29760  0.21140  0.61000  Biso   1.000  O
  C65      1.0000 0.40880  0.09640  0.76740  Biso   1.000  C
  C66      1.0000 0.39290  0.11220  0.93980  Biso   1.000  C
  C67      1.0000 0.36110  0.14430  0.94040  Biso   1.000  C
  C68      1.0000 0.34520  0.16050  0.76840  Biso   1.000  C
  C69      1.0000 0.36110  0.14470  0.59600  Biso   1.000  C
  C70      1.0000 0.39300  0.11260  0.59550  Biso   1.000  C
  C71      1.0000 0.44290  0.06200  0.76690  Biso   1.000  C
  C72      1.0000 0.31110  0.19490  0.76900  Biso   1.000  C
  H33      1.0000 0.40430  0.10060  0.06270  Biso   1.000  H
  H34      1.0000 0.34970  0.15560  0.06360  Biso   1.000  H
  H35      1.0000 0.34980  0.15630  0.47310  Biso   1.000  H
  H36      1.0000 0.40430  0.10130  0.47220  Biso   1.000  H
  O37      1.0000 0.95860  0.54810  0.92600  Biso   1.000  O
  O38      1.0000 0.95680  0.54620  0.60730  Biso   1.000  O
  O39      1.0000 0.79510  0.70820  0.92840  Biso   1.000  O
  O40      1.0000 0.79760  0.71140  0.61000  Biso   1.000  O
  C73      1.0000 0.90880  0.59640  0.76740  Biso   1.000  C
  C74      1.0000 0.89290  0.61220  0.93980  Biso   1.000  C
  C75      1.0000 0.86110  0.64430  0.94040  Biso   1.000  C
  C76      1.0000 0.84520  0.66050  0.76840  Biso   1.000  C
  C77      1.0000 0.86110  0.64470  0.59600  Biso   1.000  C
  C78      1.0000 0.89300  0.61260  0.59550  Biso   1.000  C
  C79      1.0000 0.94290  0.56200  0.76690  Biso   1.000  C
  C80      1.0000 0.81110  0.69490  0.76900  Biso   1.000  C
  H37      1.0000 0.90430  0.60060  0.06270  Biso   1.000  H
  H38      1.0000 0.84970  0.65560  0.06360  Biso   1.000  H
  H39      1.0000 0.84980  0.65630  0.47310  Biso   1.000  H
  H40      1.0000 0.90430  0.60130  0.47220  Biso   1.000  H
  O41      1.0000 0.54140  0.45190  0.42600  Biso   1.000  O
  O42      1.0000 0.54320  0.45380  0.10730  Biso   1.000  O
  O43      1.0000 0.70490  0.29180  0.42840  Biso   1.000  O
  O44      1.0000 0.70240  0.28860  0.11000  Biso   1.000  O
  C81      1.0000 0.59120  0.40360  0.26740  Biso   1.000  C
  C82      1.0000 0.60710  0.38780  0.43980  Biso   1.000  C
  C83      1.0000 0.63890  0.35570  0.44040  Biso   1.000  C
  C84      1.0000 0.65480  0.33950  0.26840  Biso   1.000  C
  C85      1.0000 0.63890  0.35530  0.09600  Biso   1.000  C
  C86      1.0000 0.60700  0.38740  0.09550  Biso   1.000  C
  C87      1.0000 0.55710  0.43800  0.26690  Biso   1.000  C
  C88      1.0000 0.68890  0.30510  0.26900  Biso   1.000  C
  H41      1.0000 0.59570  0.39940  0.56270  Biso   1.000  H
  H42      1.0000 0.65030  0.34440  0.56360  Biso   1.000  H
  H43      1.0000 0.65020  0.34370  0.97310  Biso   1.000  H
  H44      1.0000 0.59570  0.39870  0.97220  Biso   1.000  H
  O45      1.0000 0.04140  0.95190  0.42600  Biso   1.000  O
  O46      1.0000 0.04320  0.95380  0.10730  Biso   1.000  O
  O47      1.0000 0.20490  0.79180  0.42840  Biso   1.000  O
  O48      1.0000 0.20240  0.78860  0.11000  Biso   1.000  O
  C89      1.0000 0.09120  0.90360  0.26740  Biso   1.000  C
  C90      1.0000 0.10710  0.88780  0.43980  Biso   1.000  C
  C91      1.0000 0.13890  0.85570  0.44040  Biso   1.000  C
  C92      1.0000 0.15480  0.83950  0.26840  Biso   1.000  C
  C93      1.0000 0.13890  0.85530  0.09600  Biso   1.000  C
  C94      1.0000 0.10700  0.88740  0.09550  Biso   1.000  C
  C95      1.0000 0.05710  0.93800  0.26690  Biso   1.000  C
  C96      1.0000 0.18890  0.80510  0.26900  Biso   1.000  C
  H45      1.0000 0.09570  0.89940  0.56270  Biso   1.000  H
  H46      1.0000 0.15030  0.84440  0.56360  Biso   1.000  H
  H47      1.0000 0.15020  0.84370  0.97310  Biso   1.000  H
  H48      1.0000 0.09570  0.89870  0.97220  Biso   1.000  H
  O49      1.0000 0.54140  0.54810  0.57400  Biso   1.000  O
  O50      1.0000 0.54320  0.54620  0.89270  Biso   1.000  O
  O51      1.0000 0.70490  0.70820  0.57160  Biso   1.000  O
  O52      1.0000 0.70240  0.71140  0.89000  Biso   1.000  O
  C97      1.0000 0.59120  0.59640  0.73260  Biso   1.000  C
  C98      1.0000 0.60710  0.61220  0.56020  Biso   1.000  C
  C99      1.0000 0.63890  0.64430  0.55960  Biso   1.000  C
  C100     1.0000 0.65480  0.66050  0.73160  Biso   1.000  C
  C101     1.0000 0.63890  0.64470  0.90400  Biso   1.000  C
  C102     1.0000 0.60700  0.61260  0.90450  Biso   1.000  C
  C103     1.0000 0.55710  0.56200  0.73310  Biso   1.000  C
  C104     1.0000 0.68890  0.69490  0.73100  Biso   1.000  C
  H49      1.0000 0.59570  0.60060  0.43730  Biso   1.000  H
  H50      1.0000 0.65030  0.65560  0.43640  Biso   1.000  H
  H51      1.0000 0.65020  0.65630  0.02690  Biso   1.000  H
  H52      1.0000 0.59570  0.60130  0.02780  Biso   1.000  H
  O53      1.0000 0.04140  0.04810  0.57400  Biso   1.000  O
  O54      1.0000 0.04320  0.04620  0.89270  Biso   1.000  O
  O55      1.0000 0.20490  0.20820  0.57160  Biso   1.000  O
  O56      1.0000 0.20240  0.21140  0.89000  Biso   1.000  O
  C105     1.0000 0.09120  0.09640  0.73260  Biso   1.000  C
  C106     1.0000 0.10710  0.11220  0.56020  Biso   1.000  C
  C107     1.0000 0.13890  0.14430  0.55960  Biso   1.000  C
  C108     1.0000 0.15480  0.16050  0.73160  Biso   1.000  C
  C109     1.0000 0.13890  0.14470  0.90400  Biso   1.000  C
  C110     1.0000 0.10700  0.11260  0.90450  Biso   1.000  C
  C111     1.0000 0.05710  0.06200  0.73310  Biso   1.000  C
  C112     1.0000 0.18890  0.19490  0.73100  Biso   1.000  C
  H53      1.0000 0.09570  0.10060  0.43730  Biso   1.000  H
  H54      1.0000 0.15030  0.15560  0.43640  Biso   1.000  H
  H55      1.0000 0.15020  0.15630  0.02690  Biso   1.000  H
  H56      1.0000 0.09570  0.10130  0.02780  Biso   1.000  H
  O57      1.0000 0.45860  0.95190  0.07400  Biso   1.000  O
  O58      1.0000 0.45680  0.95380  0.39270  Biso   1.000  O
  O59      1.0000 0.29510  0.79180  0.07160  Biso   1.000  O
  O60      1.0000 0.29760  0.78860  0.39000  Biso   1.000  O
  C113     1.0000 0.40880  0.90360  0.23260  Biso   1.000  C
  C114     1.0000 0.39290  0.88780  0.06020  Biso   1.000  C
  C115     1.0000 0.36110  0.85570  0.05960  Biso   1.000  C
  C116     1.0000 0.34520  0.83950  0.23160  Biso   1.000  C
  C117     1.0000 0.36110  0.85530  0.40400  Biso   1.000  C
  C118     1.0000 0.39300  0.88740  0.40450  Biso   1.000  C
  C119     1.0000 0.44290  0.93800  0.23310  Biso   1.000  C
  C120     1.0000 0.31110  0.80510  0.23100  Biso   1.000  C
  H57      1.0000 0.40430  0.89940  0.93730  Biso   1.000  H
  H58      1.0000 0.34970  0.84440  0.93640  Biso   1.000  H
  H59      1.0000 0.34980  0.84370  0.52690  Biso   1.000  H
  H60      1.0000 0.40430  0.89870  0.52780  Biso   1.000  H
  O61      1.0000 0.95860  0.45190  0.07400  Biso   1.000  O
  O62      1.0000 0.95680  0.45380  0.39270  Biso   1.000  O
  O63      1.0000 0.79510  0.29180  0.07160  Biso   1.000  O
  O64      1.0000 0.79760  0.28860  0.39000  Biso   1.000  O
  C121     1.0000 0.90880  0.40360  0.23260  Biso   1.000  C
  C122     1.0000 0.89290  0.38780  0.06020  Biso   1.000  C
  C123     1.0000 0.86110  0.35570  0.05960  Biso   1.000  C
  C124     1.0000 0.84520  0.33950  0.23160  Biso   1.000  C
  C125     1.0000 0.86110  0.35530  0.40400  Biso   1.000  C
  C126     1.0000 0.89300  0.38740  0.40450  Biso   1.000  C
  C127     1.0000 0.94290  0.43800  0.23310  Biso   1.000  C
  C128     1.0000 0.81110  0.30510  0.23100  Biso   1.000  C
  H61      1.0000 0.90430  0.39940  0.93730  Biso   1.000  H
  H62      1.0000 0.84970  0.34440  0.93640  Biso   1.000  H
  H63      1.0000 0.84980  0.34370  0.52690  Biso   1.000  H
  H64      1.0000 0.90430  0.39870  0.52780  Biso   1.000  H
  Fe1      1.0000 0.75000  0.75000  0.00000  Biso   1.000  Fe
  Fe2      1.0000 0.25000  0.75000  0.50000  Biso   1.000  Fe
  Fe3      1.0000 0.25000  0.25000  0.50000  Biso   1.000  Fe
  Fe4      1.0000 0.75000  0.25000  0.00000  Biso   1.000  Fe
  Fe5      1.0000 0.25000  0.25000  0.00000  Biso   1.000  Fe
  Fe6      1.0000 0.75000  0.25000  0.50000  Biso   1.000  Fe
  Fe7      1.0000 0.75000  0.75000  0.50000  Biso   1.000  Fe
  Fe8      1.0000 0.25000  0.75000  0.00000  Biso   1.000  Fe
  O65      1.0000 0.75000  0.72090  0.25000  Biso   1.000  O
  O66      1.0000 0.25000  0.77910  0.75000  Biso   1.000  O
  O67      1.0000 0.25000  0.22090  0.25000  Biso   1.000  O
  O68      1.0000 0.75000  0.27910  0.75000  Biso   1.000  O
  O69      1.0000 0.25000  0.27910  0.75000  Biso   1.000  O
  O70      1.0000 0.75000  0.22090  0.25000  Biso   1.000  O
  O71      1.0000 0.75000  0.77910  0.75000  Biso   1.000  O
  O72      1.0000 0.25000  0.72090  0.25000  Biso   1.000  O
  Fe9      1.0000 0.50000  0.00000  0.00000  Biso   1.000  Fe
  Fe10     1.0000 0.00000  0.50000  0.00000  Biso   1.000  Fe
  Fe11     1.0000 0.50000  0.50000  0.50000  Biso   1.000  Fe
  Fe12     1.0000 0.00000  0.00000  0.50000  Biso   1.000  Fe
  O73      1.0000 0.50000  0.96370  0.75000  Biso   1.000  O
  O74      1.0000 0.00000  0.46370  0.75000  Biso   1.000  O
  O75      1.0000 0.50000  0.53630  0.25000  Biso   1.000  O
  O76      1.0000 0.00000  0.03630  0.25000  Biso   1.000  O
  O77      1.0000 0.50000  0.46370  0.75000  Biso   1.000  O
  O78      1.0000 0.00000  0.96370  0.75000  Biso   1.000  O
  O79      1.0000 0.50000  0.03630  0.25000  Biso   1.000  O
  O80      1.0000 0.00000  0.53630  0.25000  Biso   1.000  O
  Fe13     1.0000 0.50000  0.00000  0.50000  Biso   1.000  Fe
  Fe14     1.0000 0.00000  0.50000  0.50000  Biso   1.000  Fe
  Fe15     1.0000 0.50000  0.50000  0.00000  Biso   1.000  Fe
  Fe16     1.0000 0.00000  0.00000  0.00000  Biso   1.000  Fe
