data_SETSIV_clean
_audit_creation_date              2014-07-02
_audit_creation_method            'Materials Studio'
_symmetry_space_group_name_H-M    'P1'
_symmetry_Int_Tables_number       1
_symmetry_cell_setting            triclinic
loop_
_symmetry_equiv_pos_as_xyz
  x,y,z
_cell_length_a                    14.4580
_cell_length_b                    16.9153
_cell_length_c                    16.9153
_cell_angle_alpha                 120.0000
_cell_angle_beta                  90.0000
_cell_angle_gamma                 90.0000
loop_
_atom_site_label
_atom_site_type_symbol
_atom_site_fract_x
_atom_site_fract_y
_atom_site_fract_z
_atom_site_U_iso_or_equiv
_atom_site_adp_type
_atom_site_occupancy
Zn1    Zn    0.00000   0.00000   0.65265   0.01267  Uiso   1.00
Zn2    Zn    0.00000   0.65265   1.00000   0.01267  Uiso   1.00
Zn3    Zn    0.00000   0.34735   0.34735   0.01267  Uiso   1.00
Cr1    Cr    0.50000   0.11341   0.00000   0.01267  Uiso   1.00
Cr2    Cr    0.50000   0.88659   0.88659   0.01267  Uiso   1.00
Cr3    Cr    0.50000   0.00000   0.11341   0.01267  Uiso   1.00
H1     H     0.71260   0.13040   0.82940   0.01267  Uiso   1.00
H2     H     0.84600   0.12630   0.75810   0.01267  Uiso   1.00
H3     H     0.71260   0.69900   0.86960   0.01267  Uiso   1.00
H4     H     0.84600   0.63180   0.87370   0.01267  Uiso   1.00
H5     H     0.71260   0.17060   0.30100   0.01267  Uiso   1.00
H6     H     0.84600   0.24190   0.36820   0.01267  Uiso   1.00
H7     H     0.28740   0.13040   0.82940   0.01267  Uiso   1.00
H8     H     0.15400   0.12630   0.75810   0.01267  Uiso   1.00
H9     H     0.28740   0.69900   0.86960   0.01267  Uiso   1.00
H10    H     0.15400   0.63180   0.87370   0.01267  Uiso   1.00
H11    H     0.28740   0.17060   0.30100   0.01267  Uiso   1.00
H12    H     0.15400   0.24190   0.36820   0.01267  Uiso   1.00
H13    H     0.28740   0.30100   0.17060   0.01267  Uiso   1.00
H14    H     0.15400   0.36820   0.24190   0.01267  Uiso   1.00
H15    H     0.28740   0.82940   0.13040   0.01267  Uiso   1.00
H16    H     0.15400   0.75810   0.12630   0.01267  Uiso   1.00
H17    H     0.28740   0.86960   0.69900   0.01267  Uiso   1.00
H18    H     0.15400   0.87370   0.63180   0.01267  Uiso   1.00
H19    H     0.71260   0.30100   0.17060   0.01267  Uiso   1.00
H20    H     0.84600   0.36820   0.24190   0.01267  Uiso   1.00
H21    H     0.71260   0.82940   0.13040   0.01267  Uiso   1.00
H22    H     0.84600   0.75810   0.12630   0.01267  Uiso   1.00
H23    H     0.71260   0.86960   0.69900   0.01267  Uiso   1.00
H24    H     0.84600   0.87370   0.63180   0.01267  Uiso   1.00
H25    H     0.00000   0.18450   0.54400   0.01267  Uiso   1.00
H26    H     0.00000   0.35950   0.81550   0.01267  Uiso   1.00
H27    H     0.00000   0.45600   0.64050   0.01267  Uiso   1.00
H28    H     0.00000   0.64050   0.45600   0.01267  Uiso   1.00
H29    H     0.00000   0.54400   0.18450   0.01267  Uiso   1.00
H30    H     0.00000   0.81550   0.35950   0.01267  Uiso   1.00
C1     C     0.74780   0.07650   0.80130   0.01267  Uiso   1.00
C2     C     0.82720   0.07360   0.75900   0.01267  Uiso   1.00
C3     C     0.74780   0.72480   0.92350   0.01267  Uiso   1.00
C4     C     0.82720   0.68540   0.92640   0.01267  Uiso   1.00
C5     C     0.74780   0.19870   0.27520   0.01267  Uiso   1.00
C6     C     0.82720   0.24100   0.31460   0.01267  Uiso   1.00
C7     C     0.25220   0.07650   0.80130   0.01267  Uiso   1.00
C8     C     0.17280   0.07360   0.75900   0.01267  Uiso   1.00
C9     C     0.25220   0.72480   0.92350   0.01267  Uiso   1.00
C10    C     0.17280   0.68540   0.92640   0.01267  Uiso   1.00
C11    C     0.25220   0.19870   0.27520   0.01267  Uiso   1.00
C12    C     0.17280   0.24100   0.31460   0.01267  Uiso   1.00
C13    C     0.25220   0.27520   0.19870   0.01267  Uiso   1.00
C14    C     0.17280   0.31460   0.24100   0.01267  Uiso   1.00
C15    C     0.25220   0.80130   0.07650   0.01267  Uiso   1.00
C16    C     0.17280   0.75900   0.07360   0.01267  Uiso   1.00
C17    C     0.25220   0.92350   0.72480   0.01267  Uiso   1.00
C18    C     0.17280   0.92640   0.68540   0.01267  Uiso   1.00
C19    C     0.74780   0.27520   0.19870   0.01267  Uiso   1.00
C20    C     0.82720   0.31460   0.24100   0.01267  Uiso   1.00
C21    C     0.74780   0.80130   0.07650   0.01267  Uiso   1.00
C22    C     0.82720   0.75900   0.07360   0.01267  Uiso   1.00
C23    C     0.74780   0.92350   0.72480   0.01267  Uiso   1.00
C24    C     0.82720   0.92640   0.68540   0.01267  Uiso   1.00
C25    C     0.00000   0.18138   0.70118   0.01267  Uiso   1.00
C26    C     0.00000   0.25970   0.68225   0.01267  Uiso   1.00
C27    C     0.00000   0.24455   0.59350   0.01267  Uiso   1.00
C28    C     0.00000   0.51980   0.81862   0.01267  Uiso   1.00
C29    C     0.00000   0.42255   0.74030   0.01267  Uiso   1.00
C30    C     0.00000   0.34895   0.75545   0.01267  Uiso   1.00
C31    C     0.00000   0.29882   0.48020   0.01267  Uiso   1.00
C32    C     0.00000   0.31775   0.57745   0.01267  Uiso   1.00
C33    C     0.00000   0.40650   0.65105   0.01267  Uiso   1.00
C34    C     0.00000   0.48020   0.29882   0.01267  Uiso   1.00
C35    C     0.00000   0.57745   0.31775   0.01267  Uiso   1.00
C36    C     0.00000   0.65105   0.40650   0.01267  Uiso   1.00
C37    C     0.00000   0.70118   0.18138   0.01267  Uiso   1.00
C38    C     0.00000   0.68225   0.25970   0.01267  Uiso   1.00
C39    C     0.00000   0.59350   0.24455   0.01267  Uiso   1.00
C40    C     0.00000   0.81862   0.51980   0.01267  Uiso   1.00
C41    C     0.00000   0.74030   0.42255   0.01267  Uiso   1.00
C42    C     0.00000   0.75545   0.34895   0.01267  Uiso   1.00
C43    C     0.63050   0.00000   0.85171   0.01267  Uiso   1.00
C44    C     0.71780   0.00000   0.80332   0.01267  Uiso   1.00
C45    C     0.63050   0.85171   1.00000   0.01267  Uiso   1.00
C46    C     0.71780   0.80332   0.00000   0.01267  Uiso   1.00
C47    C     0.63050   0.14829   0.14829   0.01267  Uiso   1.00
C48    C     0.71780   0.19668   0.19668   0.01267  Uiso   1.00
C49    C     0.36950   0.00000   0.85171   0.01267  Uiso   1.00
C50    C     0.28220   0.00000   0.80332   0.01267  Uiso   1.00
C51    C     0.36950   0.85171   1.00000   0.01267  Uiso   1.00
C52    C     0.28220   0.80332   0.00000   0.01267  Uiso   1.00
C53    C     0.36950   0.14829   0.14829   0.01267  Uiso   1.00
C54    C     0.28220   0.19668   0.19668   0.01267  Uiso   1.00
N1     N     0.88065   0.00000   0.71833   0.01267  Uiso   1.00
N2     N     0.88065   0.71833   1.00000   0.01267  Uiso   1.00
N3     N     0.88065   0.28167   0.28167   0.01267  Uiso   1.00
N4     N     0.11935   0.00000   0.71833   0.01267  Uiso   1.00
N5     N     0.11935   0.71833   1.00000   0.01267  Uiso   1.00
N6     N     0.11935   0.28167   0.28167   0.01267  Uiso   1.00
O1     O     0.59865   0.07640   0.90770   0.01267  Uiso   1.00
O2     O     0.59865   0.83130   0.92360   0.01267  Uiso   1.00
O3     O     0.59865   0.09230   0.16870   0.01267  Uiso   1.00
O4     O     0.40135   0.07640   0.90770   0.01267  Uiso   1.00
O5     O     0.40135   0.83130   0.92360   0.01267  Uiso   1.00
O6     O     0.40135   0.09230   0.16870   0.01267  Uiso   1.00
O7     O     0.40135   0.16870   0.09230   0.01267  Uiso   1.00
O8     O     0.40135   0.90770   0.07640   0.01267  Uiso   1.00
O9     O     0.40135   0.92360   0.83130   0.01267  Uiso   1.00
O10    O     0.59865   0.16870   0.09230   0.01267  Uiso   1.00
O11    O     0.59865   0.90770   0.07640   0.01267  Uiso   1.00
O12    O     0.59865   0.92360   0.83130   0.01267  Uiso   1.00
O13    O     0.50000   0.00000   0.00000   0.01267  Uiso   1.00
O14    O     0.00000   0.19722   0.78012   0.01267  Uiso   1.00
O15    O     0.00000   0.10266   0.63027   0.01267  Uiso   1.00
O16    O     0.00000   0.58290   0.80278   0.01267  Uiso   1.00
O17    O     0.00000   0.52761   0.89734   0.01267  Uiso   1.00
O18    O     0.00000   0.21988   0.41710   0.01267  Uiso   1.00
O19    O     0.00000   0.36973   0.47239   0.01267  Uiso   1.00
O20    O     0.00000   0.41710   0.21988   0.01267  Uiso   1.00
O21    O     0.00000   0.47239   0.36973   0.01267  Uiso   1.00
O22    O     0.00000   0.78012   0.19722   0.01267  Uiso   1.00
O23    O     0.00000   0.63027   0.10266   0.01267  Uiso   1.00
O24    O     0.00000   0.80278   0.58290   0.01267  Uiso   1.00
O25    O     0.00000   0.89734   0.52761   0.01267  Uiso   1.00
