data_SETWUL_clean
_audit_creation_date              2014-07-02
_audit_creation_method            'Materials Studio'
_symmetry_space_group_name_H-M    'P1'
_symmetry_Int_Tables_number       1
_symmetry_cell_setting            triclinic
loop_
_symmetry_equiv_pos_as_xyz
  x,y,z
_cell_length_a                    10.5490
_cell_length_b                    10.8420
_cell_length_c                    13.8000
_cell_angle_alpha                 87.1350
_cell_angle_beta                  72.4280
_cell_angle_gamma                 66.4120
loop_
_atom_site_label
_atom_site_type_symbol
_atom_site_fract_x
_atom_site_fract_y
_atom_site_fract_z
_atom_site_U_iso_or_equiv
_atom_site_adp_type
_atom_site_occupancy
Co1    Co    0.50362   0.31822   0.15793   0.01267  Uiso   1.00
Co2    Co    0.49638   0.68178   0.84207   0.01267  Uiso   1.00
Mo1    Mo    0.97495   0.49860   0.13399   0.01267  Uiso   1.00
Mo2    Mo    0.67558   0.79088   0.13127   0.01267  Uiso   1.00
Mo3    Mo    0.98996   0.77085   0.98250   0.01267  Uiso   1.00
Mo4    Mo    0.71856   0.51632   0.01517   0.01267  Uiso   1.00
Mo5    Mo    0.02505   0.50140   0.86601   0.01267  Uiso   1.00
Mo6    Mo    0.32442   0.20912   0.86873   0.01267  Uiso   1.00
Mo7    Mo    0.01004   0.22915   0.01750   0.01267  Uiso   1.00
Mo8    Mo    0.28144   0.48368   0.98483   0.01267  Uiso   1.00
H1     H     0.49860   0.58640   0.27420   0.01267  Uiso   1.00
H2     H     0.31800   0.74520   0.48550   0.01267  Uiso   1.00
H3     H     0.35470   0.82080   0.38810   0.01267  Uiso   1.00
H4     H     0.99320   0.22880   0.32620   0.01267  Uiso   1.00
H5     H     0.85410   0.30610   0.41810   0.01267  Uiso   1.00
H6     H     0.73430   0.04030   0.20140   0.01267  Uiso   1.00
H7     H     0.67700   0.39150   0.30370   0.01267  Uiso   1.00
H8     H     0.13230   0.02650   0.24900   0.01267  Uiso   1.00
H9     H     0.26130   0.90700   0.27330   0.01267  Uiso   1.00
H10    H     0.31740   0.13860   0.14780   0.01267  Uiso   1.00
H11    H     0.40350   0.22430   0.38180   0.01267  Uiso   1.00
H12    H     0.50140   0.41360   0.72580   0.01267  Uiso   1.00
H13    H     0.68200   0.25480   0.51450   0.01267  Uiso   1.00
H14    H     0.64530   0.17920   0.61190   0.01267  Uiso   1.00
H15    H     0.00680   0.77120   0.67380   0.01267  Uiso   1.00
H16    H     0.14590   0.69390   0.58190   0.01267  Uiso   1.00
H17    H     0.26570   0.95970   0.79860   0.01267  Uiso   1.00
H18    H     0.32300   0.60850   0.69630   0.01267  Uiso   1.00
H19    H     0.86770   0.97350   0.75100   0.01267  Uiso   1.00
H20    H     0.73870   0.09300   0.72670   0.01267  Uiso   1.00
H21    H     0.68260   0.86140   0.85220   0.01267  Uiso   1.00
H22    H     0.59650   0.77570   0.61820   0.01267  Uiso   1.00
C1     C     0.40660   0.58510   0.29470   0.01267  Uiso   1.00
C2     C     0.23250   0.52880   0.31670   0.01267  Uiso   1.00
C3     C     0.28760   0.78280   0.42700   0.01267  Uiso   1.00
C4     C     0.13750   0.89320   0.46340   0.01267  Uiso   1.00
C5     C     0.09050   0.00020   0.40220   0.01267  Uiso   1.00
C6     C     0.95570   0.10540   0.43950   0.01267  Uiso   1.00
C7     C     0.90800   0.22250   0.37460   0.01267  Uiso   1.00
C8     C     0.74480   0.10700   0.23400   0.01267  Uiso   1.00
C9     C     0.71110   0.29900   0.28860   0.01267  Uiso   1.00
C10    C     0.18940   0.99840   0.29580   0.01267  Uiso   1.00
C11    C     0.32210   0.14480   0.21350   0.01267  Uiso   1.00
C12    C     0.36710   0.18960   0.34150   0.01267  Uiso   1.00
C13    C     0.59340   0.41490   0.70530   0.01267  Uiso   1.00
C14    C     0.76750   0.47120   0.68330   0.01267  Uiso   1.00
C15    C     0.71240   0.21720   0.57300   0.01267  Uiso   1.00
C16    C     0.86250   0.10680   0.53660   0.01267  Uiso   1.00
C17    C     0.90950   0.99980   0.59780   0.01267  Uiso   1.00
C18    C     0.04430   0.89460   0.56050   0.01267  Uiso   1.00
C19    C     0.09200   0.77750   0.62540   0.01267  Uiso   1.00
C20    C     0.25520   0.89300   0.76600   0.01267  Uiso   1.00
C21    C     0.28890   0.70100   0.71140   0.01267  Uiso   1.00
C22    C     0.81060   0.00160   0.70420   0.01267  Uiso   1.00
C23    C     0.67790   0.85520   0.78650   0.01267  Uiso   1.00
C24    C     0.63290   0.81040   0.65850   0.01267  Uiso   1.00
N1     N     0.38720   0.21000   0.24230   0.01267  Uiso   1.00
N2     N     0.26320   0.08790   0.29350   0.01267  Uiso   1.00
N3     N     0.29220   0.11680   0.37680   0.01267  Uiso   1.00
N4     N     0.66190   0.24290   0.23430   0.01267  Uiso   1.00
N5     N     0.81640   0.20510   0.31910   0.01267  Uiso   1.00
N6     N     0.83910   0.08010   0.28360   0.01267  Uiso   1.00
N7     N     0.37730   0.49490   0.25810   0.01267  Uiso   1.00
N8     N     0.29500   0.67400   0.36310   0.01267  Uiso   1.00
N9     N     0.17990   0.63190   0.38690   0.01267  Uiso   1.00
N10    N     0.61280   0.79000   0.75770   0.01267  Uiso   1.00
N11    N     0.73680   0.91210   0.70650   0.01267  Uiso   1.00
N12    N     0.70780   0.88320   0.62320   0.01267  Uiso   1.00
N13    N     0.33810   0.75710   0.76570   0.01267  Uiso   1.00
N14    N     0.18360   0.79490   0.68090   0.01267  Uiso   1.00
N15    N     0.16090   0.91990   0.71640   0.01267  Uiso   1.00
N16    N     0.62270   0.50510   0.74190   0.01267  Uiso   1.00
N17    N     0.70500   0.32600   0.63690   0.01267  Uiso   1.00
N18    N     0.82010   0.36810   0.61310   0.01267  Uiso   1.00
O1     O     0.12910   0.60310   0.89230   0.01267  Uiso   1.00
O2     O     0.12360   0.38440   0.99490   0.01267  Uiso   1.00
O3     O     0.62250   0.64020   0.13010   0.01267  Uiso   1.00
O4     O     0.64520   0.60930   0.92620   0.01267  Uiso   1.00
O5     O     0.63030   0.41170   0.05360   0.01267  Uiso   1.00
O6     O     0.90640   0.39800   0.91780   0.01267  Uiso   1.00
O7     O     0.82280   0.63130   0.20950   0.01267  Uiso   1.00
O8     O     0.83550   0.84090   0.10600   0.01267  Uiso   1.00
O9     O     0.87090   0.39690   0.10770   0.01267  Uiso   1.00
O10    O     0.87640   0.61560   0.00510   0.01267  Uiso   1.00
O11    O     0.37750   0.35980   0.86990   0.01267  Uiso   1.00
O12    O     0.35480   0.39070   0.07380   0.01267  Uiso   1.00
O13    O     0.36970   0.58830   0.94640   0.01267  Uiso   1.00
O14    O     0.09360   0.60200   0.08220   0.01267  Uiso   1.00
O15    O     0.17720   0.36870   0.79050   0.01267  Uiso   1.00
O16    O     0.16450   0.15910   0.89400   0.01267  Uiso   1.00
