data_SETWOF_clean
_audit_creation_date              2014-07-02
_audit_creation_method            'Materials Studio'
_symmetry_space_group_name_H-M    'P1'
_symmetry_Int_Tables_number       1
_symmetry_cell_setting            triclinic
loop_
_symmetry_equiv_pos_as_xyz
  x,y,z
_cell_length_a                    12.1130
_cell_length_b                    12.2260
_cell_length_c                    12.2890
_cell_angle_alpha                 102.1780
_cell_angle_beta                  100.5450
_cell_angle_gamma                 119.6630
loop_
_atom_site_label
_atom_site_type_symbol
_atom_site_fract_x
_atom_site_fract_y
_atom_site_fract_z
_atom_site_U_iso_or_equiv
_atom_site_adp_type
_atom_site_occupancy
Co1    Co    0.68803   0.99432   0.33610   0.01267  Uiso   1.00
Co2    Co    0.31197   0.00568   0.66390   0.01267  Uiso   1.00
Mo1    Mo    0.59832   0.51295   0.21558   0.01267  Uiso   1.00
Mo2    Mo    0.38993   0.37824   0.36334   0.01267  Uiso   1.00
Mo3    Mo    0.46054   0.68370   0.40733   0.01267  Uiso   1.00
Mo4    Mo    0.29381   0.58133   0.58683   0.01267  Uiso   1.00
Mo5    Mo    0.40168   0.48705   0.78442   0.01267  Uiso   1.00
Mo6    Mo    0.61007   0.62176   0.63666   0.01267  Uiso   1.00
Mo7    Mo    0.53946   0.31630   0.59267   0.01267  Uiso   1.00
Mo8    Mo    0.70619   0.41867   0.41317   0.01267  Uiso   1.00
H1     H     0.00800   0.24000   0.86280   0.01267  Uiso   1.00
H2     H     0.98380   0.21870   0.97950   0.01267  Uiso   1.00
H3     H     0.31470   0.51300   0.09170   0.01267  Uiso   1.00
H4     H     0.36220   0.21870   0.02850   0.01267  Uiso   1.00
H5     H     0.10310   0.37060   0.17310   0.01267  Uiso   1.00
H6     H     0.08000   0.46710   0.25670   0.01267  Uiso   1.00
H7     H     0.97100   0.26310   0.34240   0.01267  Uiso   1.00
H8     H     0.63780   0.03410   0.08490   0.01267  Uiso   1.00
H9     H     0.92570   0.50740   0.24880   0.01267  Uiso   1.00
H10    H     0.89490   0.60470   0.20680   0.01267  Uiso   1.00
H11    H     0.04440   0.68790   0.46590   0.01267  Uiso   1.00
H12    H     0.33610   0.96950   0.40670   0.01267  Uiso   1.00
H13    H     0.99200   0.76000   0.13720   0.01267  Uiso   1.00
H14    H     0.01620   0.78130   0.02050   0.01267  Uiso   1.00
H15    H     0.68530   0.48700   0.90830   0.01267  Uiso   1.00
H16    H     0.63780   0.78130   0.97150   0.01267  Uiso   1.00
H17    H     0.89690   0.62940   0.82690   0.01267  Uiso   1.00
H18    H     0.92000   0.53290   0.74330   0.01267  Uiso   1.00
H19    H     0.02900   0.73690   0.65760   0.01267  Uiso   1.00
H20    H     0.36220   0.96590   0.91510   0.01267  Uiso   1.00
H21    H     0.07430   0.49260   0.75120   0.01267  Uiso   1.00
H22    H     0.10510   0.39530   0.79320   0.01267  Uiso   1.00
H23    H     0.95560   0.31210   0.53410   0.01267  Uiso   1.00
H24    H     0.66390   0.03050   0.59330   0.01267  Uiso   1.00
C1     C     0.02950   0.40440   0.97760   0.01267  Uiso   1.00
C2     C     0.01440   0.44380   0.08540   0.01267  Uiso   1.00
C3     C     0.98330   0.54220   0.10930   0.01267  Uiso   1.00
C4     C     0.04170   0.28310   0.94810   0.01267  Uiso   1.00
C5     C     0.29930   0.42800   0.06460   0.01267  Uiso   1.00
C6     C     0.32070   0.26550   0.02930   0.01267  Uiso   1.00
C7     C     0.03880   0.39420   0.18140   0.01267  Uiso   1.00
C8     C     0.90300   0.22570   0.27010   0.01267  Uiso   1.00
C9     C     0.72570   0.10510   0.13100   0.01267  Uiso   1.00
C10    C     0.96210   0.58330   0.22200   0.01267  Uiso   1.00
C11    C     0.10190   0.73840   0.42990   0.01267  Uiso   1.00
C12    C     0.25750   0.88870   0.39550   0.01267  Uiso   1.00
C13    C     0.97050   0.59560   0.02240   0.01267  Uiso   1.00
C14    C     0.98560   0.55620   0.91460   0.01267  Uiso   1.00
C15    C     0.01670   0.45780   0.89070   0.01267  Uiso   1.00
C16    C     0.95830   0.71690   0.05190   0.01267  Uiso   1.00
C17    C     0.70070   0.57200   0.93540   0.01267  Uiso   1.00
C18    C     0.67930   0.73450   0.97070   0.01267  Uiso   1.00
C19    C     0.96120   0.60580   0.81860   0.01267  Uiso   1.00
C20    C     0.09700   0.77430   0.72990   0.01267  Uiso   1.00
C21    C     0.27430   0.89490   0.86900   0.01267  Uiso   1.00
C22    C     0.03790   0.41670   0.77800   0.01267  Uiso   1.00
C23    C     0.89810   0.26160   0.57010   0.01267  Uiso   1.00
C24    C     0.74250   0.11130   0.60450   0.01267  Uiso   1.00
N1     N     0.39010   0.40080   0.08900   0.01267  Uiso   1.00
N2     N     0.17900   0.31410   0.99380   0.01267  Uiso   1.00
N3     N     0.19270   0.20660   0.97380   0.01267  Uiso   1.00
N4     N     0.78320   0.11760   0.24140   0.01267  Uiso   1.00
N5     N     0.91660   0.27610   0.18480   0.01267  Uiso   1.00
N6     N     0.80030   0.19840   0.09210   0.01267  Uiso   1.00
N7     N     0.21230   0.85870   0.48750   0.01267  Uiso   1.00
N8     N     0.08120   0.69670   0.31580   0.01267  Uiso   1.00
N9     N     0.18080   0.79420   0.29160   0.01267  Uiso   1.00
N10    N     0.60990   0.59920   0.91100   0.01267  Uiso   1.00
N11    N     0.82100   0.68590   0.00620   0.01267  Uiso   1.00
N12    N     0.80730   0.79340   0.02620   0.01267  Uiso   1.00
N13    N     0.21680   0.88240   0.75860   0.01267  Uiso   1.00
N14    N     0.08340   0.72390   0.81520   0.01267  Uiso   1.00
N15    N     0.19970   0.80160   0.90790   0.01267  Uiso   1.00
N16    N     0.78770   0.14130   0.51250   0.01267  Uiso   1.00
N17    N     0.91880   0.30330   0.68420   0.01267  Uiso   1.00
N18    N     0.81920   0.20580   0.70840   0.01267  Uiso   1.00
O1     O     0.73860   0.56650   0.35250   0.01267  Uiso   1.00
O2     O     0.50020   0.35100   0.28460   0.01267  Uiso   1.00
O3     O     0.49800   0.56040   0.32640   0.01267  Uiso   1.00
O4     O     0.35690   0.26260   0.43690   0.01267  Uiso   1.00
O5     O     0.39240   0.51580   0.47940   0.01267  Uiso   1.00
O6     O     0.57840   0.83750   0.40200   0.01267  Uiso   1.00
O7     O     0.40600   0.73030   0.53900   0.01267  Uiso   1.00
O8     O     0.26140   0.43350   0.64750   0.01267  Uiso   1.00
O9     O     0.49980   0.64900   0.71540   0.01267  Uiso   1.00
O10    O     0.50200   0.43960   0.67360   0.01267  Uiso   1.00
O11    O     0.64310   0.73740   0.56310   0.01267  Uiso   1.00
O12    O     0.60760   0.48420   0.52060   0.01267  Uiso   1.00
O13    O     0.42160   0.16250   0.59800   0.01267  Uiso   1.00
O14    O     0.59400   0.26970   0.46100   0.01267  Uiso   1.00
