data_SETXAS_clean
_audit_creation_date              2014-07-02
_audit_creation_method            'Materials Studio'
_symmetry_space_group_name_H-M    'P1'
_symmetry_Int_Tables_number       1
_symmetry_cell_setting            triclinic
loop_
_symmetry_equiv_pos_as_xyz
  x,y,z
_cell_length_a                    10.5750
_cell_length_b                    10.8940
_cell_length_c                    13.8700
_cell_angle_alpha                 87.2330
_cell_angle_beta                  72.4030
_cell_angle_gamma                 66.4080
loop_
_atom_site_label
_atom_site_type_symbol
_atom_site_fract_x
_atom_site_fract_y
_atom_site_fract_z
_atom_site_U_iso_or_equiv
_atom_site_adp_type
_atom_site_occupancy
Zn1    Zn    0.00224   0.81777   0.66416   0.01267  Uiso   1.00
Zn2    Zn    0.99776   0.18223   0.33584   0.01267  Uiso   1.00
Mo1    Mo    0.78084   0.98450   0.48644   0.01267  Uiso   1.00
Mo2    Mo    0.47275   0.00117   0.63356   0.01267  Uiso   1.00
Mo3    Mo    0.17573   0.29117   0.62648   0.01267  Uiso   1.00
Mo4    Mo    0.49051   0.26909   0.47985   0.01267  Uiso   1.00
Mo5    Mo    0.21916   0.01550   0.51356   0.01267  Uiso   1.00
Mo6    Mo    0.52725   0.99883   0.36644   0.01267  Uiso   1.00
Mo7    Mo    0.82427   0.70883   0.37352   0.01267  Uiso   1.00
Mo8    Mo    0.50949   0.73091   0.52015   0.01267  Uiso   1.00
H1     H     0.49310   0.72720   0.82770   0.01267  Uiso   1.00
H2     H     0.35360   0.80460   0.91870   0.01267  Uiso   1.00
H3     H     0.17430   0.88920   0.80830   0.01267  Uiso   1.00
H4     H     0.24130   0.54240   0.69720   0.01267  Uiso   1.00
H5     H     0.14500   0.67770   0.11370   0.01267  Uiso   1.00
H6     H     0.17900   0.75280   0.01620   0.01267  Uiso   1.00
H7     H     0.00060   0.90890   0.22980   0.01267  Uiso   1.00
H8     H     0.23950   0.59250   0.22650   0.01267  Uiso   1.00
H9     H     0.36950   0.47370   0.24930   0.01267  Uiso   1.00
H10    H     0.18760   0.35760   0.34900   0.01267  Uiso   1.00
H11    H     0.09710   0.27900   0.11570   0.01267  Uiso   1.00
H12    H     0.50690   0.27280   0.17230   0.01267  Uiso   1.00
H13    H     0.64640   0.19540   0.08130   0.01267  Uiso   1.00
H14    H     0.82570   0.11080   0.19170   0.01267  Uiso   1.00
H15    H     0.75870   0.45760   0.30280   0.01267  Uiso   1.00
H16    H     0.85500   0.32230   0.88630   0.01267  Uiso   1.00
H17    H     0.82100   0.24720   0.98380   0.01267  Uiso   1.00
H18    H     0.99940   0.09110   0.77020   0.01267  Uiso   1.00
H19    H     0.76050   0.40750   0.77350   0.01267  Uiso   1.00
H20    H     0.63050   0.52630   0.75070   0.01267  Uiso   1.00
H21    H     0.81240   0.64240   0.65100   0.01267  Uiso   1.00
H22    H     0.90290   0.72100   0.88430   0.01267  Uiso   1.00
C1     C     0.45430   0.60560   0.94020   0.01267  Uiso   1.00
C2     C     0.36300   0.60600   0.03640   0.01267  Uiso   1.00
C3     C     0.40870   0.50110   0.09740   0.01267  Uiso   1.00
C4     C     0.40770   0.72120   0.87550   0.01267  Uiso   1.00
C5     C     0.21080   0.79740   0.79100   0.01267  Uiso   1.00
C6     C     0.24980   0.60850   0.73160   0.01267  Uiso   1.00
C7     C     0.21080   0.71610   0.07400   0.01267  Uiso   1.00
C8     C     0.09130   0.91210   0.20700   0.01267  Uiso   1.00
C9     C     0.26570   0.97010   0.18150   0.01267  Uiso   1.00
C10    C     0.31180   0.50180   0.20330   0.01267  Uiso   1.00
C11    C     0.18140   0.35330   0.28380   0.01267  Uiso   1.00
C12    C     0.13300   0.31300   0.15660   0.01267  Uiso   1.00
C13    C     0.54570   0.39440   0.05980   0.01267  Uiso   1.00
C14    C     0.63700   0.39400   0.96360   0.01267  Uiso   1.00
C15    C     0.59130   0.49890   0.90260   0.01267  Uiso   1.00
C16    C     0.59230   0.27880   0.12450   0.01267  Uiso   1.00
C17    C     0.78920   0.20260   0.20900   0.01267  Uiso   1.00
C18    C     0.75020   0.39150   0.26840   0.01267  Uiso   1.00
C19    C     0.78920   0.28390   0.92600   0.01267  Uiso   1.00
C20    C     0.90870   0.08790   0.79300   0.01267  Uiso   1.00
C21    C     0.73430   0.02990   0.81850   0.01267  Uiso   1.00
C22    C     0.68820   0.49820   0.79670   0.01267  Uiso   1.00
C23    C     0.81860   0.64670   0.71620   0.01267  Uiso   1.00
C24    C     0.86700   0.68700   0.84340   0.01267  Uiso   1.00
N1     N     0.16450   0.74110   0.73480   0.01267  Uiso   1.00
N2     N     0.31700   0.70430   0.81920   0.01267  Uiso   1.00
N3     N     0.34480   0.58080   0.78050   0.01267  Uiso   1.00
N4     N     0.12280   0.00270   0.24040   0.01267  Uiso   1.00
N5     N     0.20410   0.82540   0.13680   0.01267  Uiso   1.00
N6     N     0.31800   0.84300   0.13740   0.01267  Uiso   1.00
N7     N     0.11470   0.28920   0.25410   0.01267  Uiso   1.00
N8     N     0.23840   0.41080   0.20520   0.01267  Uiso   1.00
N9     N     0.20540   0.38780   0.12280   0.01267  Uiso   1.00
N10    N     0.83550   0.25890   0.26520   0.01267  Uiso   1.00
N11    N     0.68300   0.29570   0.18080   0.01267  Uiso   1.00
N12    N     0.65520   0.41920   0.21950   0.01267  Uiso   1.00
N13    N     0.87720   0.99730   0.75960   0.01267  Uiso   1.00
N14    N     0.79590   0.17460   0.86320   0.01267  Uiso   1.00
N15    N     0.68200   0.15700   0.86260   0.01267  Uiso   1.00
N16    N     0.88530   0.71080   0.74590   0.01267  Uiso   1.00
N17    N     0.76160   0.58920   0.79480   0.01267  Uiso   1.00
N18    N     0.79460   0.61220   0.87720   0.01267  Uiso   1.00
O1     O     0.85170   0.89400   0.57600   0.01267  Uiso   1.00
O2     O     0.87760   0.85860   0.37310   0.01267  Uiso   1.00
O3     O     0.63000   0.10160   0.39200   0.01267  Uiso   1.00
O4     O     0.59260   0.10360   0.58210   0.01267  Uiso   1.00
O5     O     0.32090   0.13520   0.70730   0.01267  Uiso   1.00
O6     O     0.37700   0.11570   0.50390   0.01267  Uiso   1.00
O7     O     0.33490   0.34180   0.60120   0.01267  Uiso   1.00
O8     O     0.14830   0.10600   0.42400   0.01267  Uiso   1.00
O9     O     0.12240   0.14140   0.62690   0.01267  Uiso   1.00
O10    O     0.37000   0.89840   0.60800   0.01267  Uiso   1.00
O11    O     0.40740   0.89640   0.41790   0.01267  Uiso   1.00
O12    O     0.67910   0.86480   0.29270   0.01267  Uiso   1.00
O13    O     0.62300   0.88430   0.49610   0.01267  Uiso   1.00
O14    O     0.66510   0.65820   0.39880   0.01267  Uiso   1.00
