data_image0
_cell_length_a       26.7741
_cell_length_b       10.0535
_cell_length_c       22.0865
_cell_angle_alpha    90
_cell_angle_beta     97.275
_cell_angle_gamma    90

_symmetry_space_group_name_H-M    "P 1"
_symmetry_int_tables_number       1

loop_
  _symmetry_equiv_pos_as_xyz
  'x, y, z'

loop_
  _atom_site_label
  _atom_site_occupancy
  _atom_site_fract_x
  _atom_site_fract_y
  _atom_site_fract_z
  _atom_site_thermal_displace_type
  _atom_site_B_iso_or_equiv
  _atom_site_type_symbol
  Zn1      1.0000 0.10045  0.66797  0.49271  Biso   1.000  Zn
  Mo1      1.0000 0.20130  0.47477  0.43740  Biso   1.000  Mo
  Mo2      1.0000 0.30752  0.54722  0.51933  Biso   1.000  Mo
  Mo3      1.0000 0.39159  0.31742  0.55436  Biso   1.000  Mo
  Mo4      1.0000 0.29442  0.23590  0.45034  Biso   1.000  Mo
  Mo5      1.0000 0.47626  0.13720  0.47173  Biso   1.000  Mo
  C1       1.0000 0.02615  0.52680  0.74770  Biso   1.000  C
  C2       1.0000 0.05180  0.64770  0.74670  Biso   1.000  C
  C3       1.0000 0.02572  0.76760  0.74790  Biso   1.000  C
  C4       1.0000 0.05230  0.39560  0.74380  Biso   1.000  C
  H1       1.0000 0.03090  0.33560  0.71770  Biso   1.000  H
  H2       1.0000 0.08320  0.40840  0.72590  Biso   1.000  H
  C5       1.0000 0.07366  0.39380  0.85860  Biso   1.000  C
  H3       1.0000 0.07360  0.48490  0.86560  Biso   1.000  H
  C6       1.0000 0.07910  0.18740  0.86960  Biso   1.000  C
  H4       1.0000 0.08450  0.10460  0.88800  Biso   1.000  H
  C7       1.0000 0.10820  0.64560  0.74510  Biso   1.000  C
  H5       1.0000 0.12380  0.71690  0.77040  Biso   1.000  H
  H6       1.0000 0.12190  0.56190  0.76170  Biso   1.000  H
  C8       1.0000 0.09203  0.64860  0.62940  Biso   1.000  C
  H7       1.0000 0.05800  0.62670  0.62440  Biso   1.000  H
  C9       1.0000 0.16500  0.69460  0.61340  Biso   1.000  C
  H8       1.0000 0.19240  0.71340  0.59280  Biso   1.000  H
  C10      1.0000 0.05410  0.89680  0.74610  Biso   1.000  C
  H9       1.0000 0.03770  0.96450  0.76790  Biso   1.000  H
  H10      1.0000 0.08810  0.88530  0.76650  Biso   1.000  H
  C11      1.0000 0.02310  0.92870  0.63450  Biso   1.000  C
  H11      1.0000 0.99270  0.88320  0.63310  Biso   1.000  H
  C12      1.0000 0.08310  0.04010  0.61120  Biso   1.000  C
  H12      1.0000 0.10330  0.08990  0.58850  Biso   1.000  H
  N1       1.0000 0.08352  0.30220  0.90101  Biso   1.000  N
  N2       1.0000 0.06386  0.33730  0.80470  Biso   1.000  N
  N3       1.0000 0.06655  0.20220  0.81070  Biso   1.000  N
  N4       1.0000 0.11856  0.67110  0.58476  Biso   1.000  N
  N5       1.0000 0.12017  0.66140  0.68260  Biso   1.000  N
  N6       1.0000 0.16813  0.68860  0.67360  Biso   1.000  N
  N7       1.0000 0.03876  0.98940  0.58760  Biso   1.000  N
  N8       1.0000 0.05612  0.94100  0.68348  Biso   1.000  N
  N9       1.0000 0.09550  0.01350  0.66900  Biso   1.000  N
  H13      1.0000 0.12230  0.03660  0.69230  Biso   1.000  H
  O1       1.0000 0.16771  0.57980  0.47939  Biso   1.000  O
  O2       1.0000 0.16920  0.31580  0.46026  Biso   1.000  O
  O3       1.0000 0.26368  0.56920  0.44351  Biso   1.000  O
  O4       1.0000 0.34553  0.43820  0.58321  Biso   1.000  O
  O5       1.0000 0.43605  0.43620  0.53944  Biso   1.000  O
  O6       1.0000 0.41737  0.19680  0.49525  Biso   1.000  O
  O7       1.0000 0.33905  0.37740  0.47071  Biso   1.000  O
  O8       1.0000 0.24879  0.11770  0.48538  Biso   1.000  O
  O9       1.0000 0.25070  0.31670  0.39646  Biso   1.000  O
  O10      1.0000 0.45931  0.96060  0.50569  Biso   1.000  O
  Zn2      1.0000 0.60045  0.16797  0.49271  Biso   1.000  Zn
  Mo6      1.0000 0.70130  0.97477  0.43740  Biso   1.000  Mo
  Mo7      1.0000 0.80752  0.04722  0.51933  Biso   1.000  Mo
  Mo8      1.0000 0.89159  0.81742  0.55436  Biso   1.000  Mo
  Mo9      1.0000 0.79442  0.73590  0.45034  Biso   1.000  Mo
  Mo10     1.0000 0.97626  0.63720  0.47173  Biso   1.000  Mo
  C13      1.0000 0.52615  0.02680  0.74770  Biso   1.000  C
  C14      1.0000 0.55180  0.14770  0.74670  Biso   1.000  C
  C15      1.0000 0.52572  0.26760  0.74790  Biso   1.000  C
  C16      1.0000 0.55230  0.89560  0.74380  Biso   1.000  C
  H14      1.0000 0.53090  0.83560  0.71770  Biso   1.000  H
  H15      1.0000 0.58320  0.90840  0.72590  Biso   1.000  H
  C17      1.0000 0.57366  0.89380  0.85860  Biso   1.000  C
  H16      1.0000 0.57360  0.98490  0.86560  Biso   1.000  H
  C18      1.0000 0.57910  0.68740  0.86960  Biso   1.000  C
  H17      1.0000 0.58450  0.60460  0.88800  Biso   1.000  H
  C19      1.0000 0.60820  0.14560  0.74510  Biso   1.000  C
  H18      1.0000 0.62380  0.21690  0.77040  Biso   1.000  H
  H19      1.0000 0.62190  0.06190  0.76170  Biso   1.000  H
  C20      1.0000 0.59203  0.14860  0.62940  Biso   1.000  C
  H20      1.0000 0.55800  0.12670  0.62440  Biso   1.000  H
  C21      1.0000 0.66500  0.19460  0.61340  Biso   1.000  C
  H21      1.0000 0.69240  0.21340  0.59280  Biso   1.000  H
  C22      1.0000 0.55410  0.39680  0.74610  Biso   1.000  C
  H22      1.0000 0.53770  0.46450  0.76790  Biso   1.000  H
  H23      1.0000 0.58810  0.38530  0.76650  Biso   1.000  H
  C23      1.0000 0.52310  0.42870  0.63450  Biso   1.000  C
  H24      1.0000 0.49270  0.38320  0.63310  Biso   1.000  H
  C24      1.0000 0.58310  0.54010  0.61120  Biso   1.000  C
  H25      1.0000 0.60330  0.58990  0.58850  Biso   1.000  H
  N10      1.0000 0.58352  0.80220  0.90101  Biso   1.000  N
  N11      1.0000 0.56386  0.83730  0.80470  Biso   1.000  N
  N12      1.0000 0.56655  0.70220  0.81070  Biso   1.000  N
  N13      1.0000 0.61856  0.17110  0.58476  Biso   1.000  N
  N14      1.0000 0.62017  0.16140  0.68260  Biso   1.000  N
  N15      1.0000 0.66813  0.18860  0.67360  Biso   1.000  N
  N16      1.0000 0.53876  0.48940  0.58760  Biso   1.000  N
  N17      1.0000 0.55612  0.44100  0.68348  Biso   1.000  N
  N18      1.0000 0.59550  0.51350  0.66900  Biso   1.000  N
  H26      1.0000 0.62230  0.53660  0.69230  Biso   1.000  H
  O11      1.0000 0.66771  0.07980  0.47939  Biso   1.000  O
  O12      1.0000 0.66920  0.81580  0.46026  Biso   1.000  O
  O13      1.0000 0.76368  0.06920  0.44351  Biso   1.000  O
  O14      1.0000 0.84553  0.93820  0.58321  Biso   1.000  O
  O15      1.0000 0.93605  0.93620  0.53944  Biso   1.000  O
  O16      1.0000 0.91737  0.69680  0.49525  Biso   1.000  O
  O17      1.0000 0.83905  0.87740  0.47071  Biso   1.000  O
  O18      1.0000 0.74879  0.61770  0.48538  Biso   1.000  O
  O19      1.0000 0.75070  0.81670  0.39646  Biso   1.000  O
  O20      1.0000 0.95931  0.46060  0.50569  Biso   1.000  O
  Zn3      1.0000 0.89955  0.66797  0.00729  Biso   1.000  Zn
  Mo11     1.0000 0.79870  0.47477  0.06260  Biso   1.000  Mo
  Mo12     1.0000 0.69248  0.54722  0.98067  Biso   1.000  Mo
  Mo13     1.0000 0.60841  0.31742  0.94564  Biso   1.000  Mo
  Mo14     1.0000 0.70558  0.23590  0.04966  Biso   1.000  Mo
  Mo15     1.0000 0.52374  0.13720  0.02827  Biso   1.000  Mo
  C25      1.0000 0.97385  0.52680  0.75230  Biso   1.000  C
  C26      1.0000 0.94820  0.64770  0.75330  Biso   1.000  C
  C27      1.0000 0.97428  0.76760  0.75210  Biso   1.000  C
  C28      1.0000 0.94770  0.39560  0.75620  Biso   1.000  C
  H27      1.0000 0.96910  0.33560  0.78230  Biso   1.000  H
  H28      1.0000 0.91680  0.40840  0.77410  Biso   1.000  H
  C29      1.0000 0.92634  0.39380  0.64140  Biso   1.000  C
  H29      1.0000 0.92640  0.48490  0.63440  Biso   1.000  H
  C30      1.0000 0.92090  0.18740  0.63040  Biso   1.000  C
  H30      1.0000 0.91550  0.10460  0.61200  Biso   1.000  H
  C31      1.0000 0.89180  0.64560  0.75490  Biso   1.000  C
  H31      1.0000 0.87620  0.71690  0.72960  Biso   1.000  H
  H32      1.0000 0.87810  0.56190  0.73830  Biso   1.000  H
  C32      1.0000 0.90797  0.64860  0.87060  Biso   1.000  C
  H33      1.0000 0.94200  0.62670  0.87560  Biso   1.000  H
  C33      1.0000 0.83500  0.69460  0.88660  Biso   1.000  C
  H34      1.0000 0.80760  0.71340  0.90720  Biso   1.000  H
  C34      1.0000 0.94590  0.89680  0.75390  Biso   1.000  C
  H35      1.0000 0.96230  0.96450  0.73210  Biso   1.000  H
  H36      1.0000 0.91190  0.88530  0.73350  Biso   1.000  H
  C35      1.0000 0.97690  0.92870  0.86550  Biso   1.000  C
  H37      1.0000 0.00730  0.88320  0.86690  Biso   1.000  H
  C36      1.0000 0.91690  0.04010  0.88880  Biso   1.000  C
  H38      1.0000 0.89670  0.08990  0.91150  Biso   1.000  H
  N19      1.0000 0.91648  0.30220  0.59899  Biso   1.000  N
  N20      1.0000 0.93614  0.33730  0.69530  Biso   1.000  N
  N21      1.0000 0.93345  0.20220  0.68930  Biso   1.000  N
  N22      1.0000 0.88144  0.67110  0.91524  Biso   1.000  N
  N23      1.0000 0.87983  0.66140  0.81740  Biso   1.000  N
  N24      1.0000 0.83187  0.68860  0.82640  Biso   1.000  N
  N25      1.0000 0.96124  0.98940  0.91240  Biso   1.000  N
  N26      1.0000 0.94388  0.94100  0.81652  Biso   1.000  N
  N27      1.0000 0.90450  0.01350  0.83100  Biso   1.000  N
  H39      1.0000 0.87770  0.03660  0.80770  Biso   1.000  H
  O21      1.0000 0.83229  0.57980  0.02061  Biso   1.000  O
  O22      1.0000 0.83080  0.31580  0.03974  Biso   1.000  O
  O23      1.0000 0.73632  0.56920  0.05649  Biso   1.000  O
  O24      1.0000 0.65447  0.43820  0.91679  Biso   1.000  O
  O25      1.0000 0.56395  0.43620  0.96056  Biso   1.000  O
  O26      1.0000 0.58263  0.19680  0.00475  Biso   1.000  O
  O27      1.0000 0.66095  0.37740  0.02929  Biso   1.000  O
  O28      1.0000 0.75121  0.11770  0.01462  Biso   1.000  O
  O29      1.0000 0.74930  0.31670  0.10354  Biso   1.000  O
  O30      1.0000 0.54069  0.96060  0.99431  Biso   1.000  O
  Zn4      1.0000 0.39955  0.16797  0.00729  Biso   1.000  Zn
  Mo16     1.0000 0.29870  0.97477  0.06260  Biso   1.000  Mo
  Mo17     1.0000 0.19248  0.04722  0.98067  Biso   1.000  Mo
  Mo18     1.0000 0.10841  0.81742  0.94564  Biso   1.000  Mo
  Mo19     1.0000 0.20558  0.73590  0.04966  Biso   1.000  Mo
  Mo20     1.0000 0.02374  0.63720  0.02827  Biso   1.000  Mo
  C37      1.0000 0.47385  0.02680  0.75230  Biso   1.000  C
  C38      1.0000 0.44820  0.14770  0.75330  Biso   1.000  C
  C39      1.0000 0.47428  0.26760  0.75210  Biso   1.000  C
  C40      1.0000 0.44770  0.89560  0.75620  Biso   1.000  C
  H40      1.0000 0.46910  0.83560  0.78230  Biso   1.000  H
  H41      1.0000 0.41680  0.90840  0.77410  Biso   1.000  H
  C41      1.0000 0.42634  0.89380  0.64140  Biso   1.000  C
  H42      1.0000 0.42640  0.98490  0.63440  Biso   1.000  H
  C42      1.0000 0.42090  0.68740  0.63040  Biso   1.000  C
  H43      1.0000 0.41550  0.60460  0.61200  Biso   1.000  H
  C43      1.0000 0.39180  0.14560  0.75490  Biso   1.000  C
  H44      1.0000 0.37620  0.21690  0.72960  Biso   1.000  H
  H45      1.0000 0.37810  0.06190  0.73830  Biso   1.000  H
  C44      1.0000 0.40797  0.14860  0.87060  Biso   1.000  C
  H46      1.0000 0.44200  0.12670  0.87560  Biso   1.000  H
  C45      1.0000 0.33500  0.19460  0.88660  Biso   1.000  C
  H47      1.0000 0.30760  0.21340  0.90720  Biso   1.000  H
  C46      1.0000 0.44590  0.39680  0.75390  Biso   1.000  C
  H48      1.0000 0.46230  0.46450  0.73210  Biso   1.000  H
  H49      1.0000 0.41190  0.38530  0.73350  Biso   1.000  H
  C47      1.0000 0.47690  0.42870  0.86550  Biso   1.000  C
  H50      1.0000 0.50730  0.38320  0.86690  Biso   1.000  H
  C48      1.0000 0.41690  0.54010  0.88880  Biso   1.000  C
  H51      1.0000 0.39670  0.58990  0.91150  Biso   1.000  H
  N28      1.0000 0.41648  0.80220  0.59899  Biso   1.000  N
  N29      1.0000 0.43614  0.83730  0.69530  Biso   1.000  N
  N30      1.0000 0.43345  0.70220  0.68930  Biso   1.000  N
  N31      1.0000 0.38144  0.17110  0.91524  Biso   1.000  N
  N32      1.0000 0.37983  0.16140  0.81740  Biso   1.000  N
  N33      1.0000 0.33187  0.18860  0.82640  Biso   1.000  N
  N34      1.0000 0.46124  0.48940  0.91240  Biso   1.000  N
  N35      1.0000 0.44388  0.44100  0.81652  Biso   1.000  N
  N36      1.0000 0.40450  0.51350  0.83100  Biso   1.000  N
  H52      1.0000 0.37770  0.53660  0.80770  Biso   1.000  H
  O31      1.0000 0.33229  0.07980  0.02061  Biso   1.000  O
  O32      1.0000 0.33080  0.81580  0.03974  Biso   1.000  O
  O33      1.0000 0.23632  0.06920  0.05649  Biso   1.000  O
  O34      1.0000 0.15447  0.93820  0.91679  Biso   1.000  O
  O35      1.0000 0.06395  0.93620  0.96056  Biso   1.000  O
  O36      1.0000 0.08263  0.69680  0.00475  Biso   1.000  O
  O37      1.0000 0.16095  0.87740  0.02929  Biso   1.000  O
  O38      1.0000 0.25121  0.61770  0.01462  Biso   1.000  O
  O39      1.0000 0.24930  0.81670  0.10354  Biso   1.000  O
  O40      1.0000 0.04069  0.46060  0.99431  Biso   1.000  O
  Zn5      1.0000 0.89955  0.33203  0.50729  Biso   1.000  Zn
  Mo21     1.0000 0.79870  0.52523  0.56260  Biso   1.000  Mo
  Mo22     1.0000 0.69248  0.45278  0.48067  Biso   1.000  Mo
  Mo23     1.0000 0.60841  0.68258  0.44564  Biso   1.000  Mo
  Mo24     1.0000 0.70558  0.76410  0.54966  Biso   1.000  Mo
  Mo25     1.0000 0.52374  0.86280  0.52827  Biso   1.000  Mo
  C49      1.0000 0.97385  0.47320  0.25230  Biso   1.000  C
  C50      1.0000 0.94820  0.35230  0.25330  Biso   1.000  C
  C51      1.0000 0.97428  0.23240  0.25210  Biso   1.000  C
  C52      1.0000 0.94770  0.60440  0.25620  Biso   1.000  C
  H53      1.0000 0.96910  0.66440  0.28230  Biso   1.000  H
  H54      1.0000 0.91680  0.59160  0.27410  Biso   1.000  H
  C53      1.0000 0.92634  0.60620  0.14140  Biso   1.000  C
  H55      1.0000 0.92640  0.51510  0.13440  Biso   1.000  H
  C54      1.0000 0.92090  0.81260  0.13040  Biso   1.000  C
  H56      1.0000 0.91550  0.89540  0.11200  Biso   1.000  H
  C55      1.0000 0.89180  0.35440  0.25490  Biso   1.000  C
  H57      1.0000 0.87620  0.28310  0.22960  Biso   1.000  H
  H58      1.0000 0.87810  0.43810  0.23830  Biso   1.000  H
  C56      1.0000 0.90797  0.35140  0.37060  Biso   1.000  C
  H59      1.0000 0.94200  0.37330  0.37560  Biso   1.000  H
  C57      1.0000 0.83500  0.30540  0.38660  Biso   1.000  C
  H60      1.0000 0.80760  0.28660  0.40720  Biso   1.000  H
  C58      1.0000 0.94590  0.10320  0.25390  Biso   1.000  C
  H61      1.0000 0.96230  0.03550  0.23210  Biso   1.000  H
  H62      1.0000 0.91190  0.11470  0.23350  Biso   1.000  H
  C59      1.0000 0.97690  0.07130  0.36550  Biso   1.000  C
  H63      1.0000 0.00730  0.11680  0.36690  Biso   1.000  H
  C60      1.0000 0.91690  0.95990  0.38880  Biso   1.000  C
  H64      1.0000 0.89670  0.91010  0.41150  Biso   1.000  H
  N37      1.0000 0.91648  0.69780  0.09899  Biso   1.000  N
  N38      1.0000 0.93614  0.66270  0.19530  Biso   1.000  N
  N39      1.0000 0.93345  0.79780  0.18930  Biso   1.000  N
  N40      1.0000 0.88144  0.32890  0.41524  Biso   1.000  N
  N41      1.0000 0.87983  0.33860  0.31740  Biso   1.000  N
  N42      1.0000 0.83187  0.31140  0.32640  Biso   1.000  N
  N43      1.0000 0.96124  0.01060  0.41240  Biso   1.000  N
  N44      1.0000 0.94388  0.05900  0.31652  Biso   1.000  N
  N45      1.0000 0.90450  0.98650  0.33100  Biso   1.000  N
  H65      1.0000 0.87770  0.96340  0.30770  Biso   1.000  H
  O41      1.0000 0.83229  0.42020  0.52061  Biso   1.000  O
  O42      1.0000 0.83080  0.68420  0.53974  Biso   1.000  O
  O43      1.0000 0.73632  0.43080  0.55649  Biso   1.000  O
  O44      1.0000 0.65447  0.56180  0.41679  Biso   1.000  O
  O45      1.0000 0.56395  0.56380  0.46056  Biso   1.000  O
  O46      1.0000 0.58263  0.80320  0.50475  Biso   1.000  O
  O47      1.0000 0.66095  0.62260  0.52929  Biso   1.000  O
  O48      1.0000 0.75121  0.88230  0.51462  Biso   1.000  O
  O49      1.0000 0.74930  0.68330  0.60354  Biso   1.000  O
  O50      1.0000 0.54069  0.03940  0.49431  Biso   1.000  O
  Zn6      1.0000 0.39955  0.83203  0.50729  Biso   1.000  Zn
  Mo26     1.0000 0.29870  0.02523  0.56260  Biso   1.000  Mo
  Mo27     1.0000 0.19248  0.95278  0.48067  Biso   1.000  Mo
  Mo28     1.0000 0.10841  0.18258  0.44564  Biso   1.000  Mo
  Mo29     1.0000 0.20558  0.26410  0.54966  Biso   1.000  Mo
  Mo30     1.0000 0.02374  0.36280  0.52827  Biso   1.000  Mo
  C61      1.0000 0.47385  0.97320  0.25230  Biso   1.000  C
  C62      1.0000 0.44820  0.85230  0.25330  Biso   1.000  C
  C63      1.0000 0.47428  0.73240  0.25210  Biso   1.000  C
  C64      1.0000 0.44770  0.10440  0.25620  Biso   1.000  C
  H66      1.0000 0.46910  0.16440  0.28230  Biso   1.000  H
  H67      1.0000 0.41680  0.09160  0.27410  Biso   1.000  H
  C65      1.0000 0.42634  0.10620  0.14140  Biso   1.000  C
  H68      1.0000 0.42640  0.01510  0.13440  Biso   1.000  H
  C66      1.0000 0.42090  0.31260  0.13040  Biso   1.000  C
  H69      1.0000 0.41550  0.39540  0.11200  Biso   1.000  H
  C67      1.0000 0.39180  0.85440  0.25490  Biso   1.000  C
  H70      1.0000 0.37620  0.78310  0.22960  Biso   1.000  H
  H71      1.0000 0.37810  0.93810  0.23830  Biso   1.000  H
  C68      1.0000 0.40797  0.85140  0.37060  Biso   1.000  C
  H72      1.0000 0.44200  0.87330  0.37560  Biso   1.000  H
  C69      1.0000 0.33500  0.80540  0.38660  Biso   1.000  C
  H73      1.0000 0.30760  0.78660  0.40720  Biso   1.000  H
  C70      1.0000 0.44590  0.60320  0.25390  Biso   1.000  C
  H74      1.0000 0.46230  0.53550  0.23210  Biso   1.000  H
  H75      1.0000 0.41190  0.61470  0.23350  Biso   1.000  H
  C71      1.0000 0.47690  0.57130  0.36550  Biso   1.000  C
  H76      1.0000 0.50730  0.61680  0.36690  Biso   1.000  H
  C72      1.0000 0.41690  0.45990  0.38880  Biso   1.000  C
  H77      1.0000 0.39670  0.41010  0.41150  Biso   1.000  H
  N46      1.0000 0.41648  0.19780  0.09899  Biso   1.000  N
  N47      1.0000 0.43614  0.16270  0.19530  Biso   1.000  N
  N48      1.0000 0.43345  0.29780  0.18930  Biso   1.000  N
  N49      1.0000 0.38144  0.82890  0.41524  Biso   1.000  N
  N50      1.0000 0.37983  0.83860  0.31740  Biso   1.000  N
  N51      1.0000 0.33187  0.81140  0.32640  Biso   1.000  N
  N52      1.0000 0.46124  0.51060  0.41240  Biso   1.000  N
  N53      1.0000 0.44388  0.55900  0.31652  Biso   1.000  N
  N54      1.0000 0.40450  0.48650  0.33100  Biso   1.000  N
  H78      1.0000 0.37770  0.46340  0.30770  Biso   1.000  H
  O51      1.0000 0.33229  0.92020  0.52061  Biso   1.000  O
  O52      1.0000 0.33080  0.18420  0.53974  Biso   1.000  O
  O53      1.0000 0.23632  0.93080  0.55649  Biso   1.000  O
  O54      1.0000 0.15447  0.06180  0.41679  Biso   1.000  O
  O55      1.0000 0.06395  0.06380  0.46056  Biso   1.000  O
  O56      1.0000 0.08263  0.30320  0.50475  Biso   1.000  O
  O57      1.0000 0.16095  0.12260  0.52929  Biso   1.000  O
  O58      1.0000 0.25121  0.38230  0.51462  Biso   1.000  O
  O59      1.0000 0.24930  0.18330  0.60354  Biso   1.000  O
  O60      1.0000 0.04069  0.53940  0.49431  Biso   1.000  O
  Zn7      1.0000 0.10045  0.33203  0.99271  Biso   1.000  Zn
  Mo31     1.0000 0.20130  0.52523  0.93740  Biso   1.000  Mo
  Mo32     1.0000 0.30752  0.45278  0.01933  Biso   1.000  Mo
  Mo33     1.0000 0.39159  0.68258  0.05436  Biso   1.000  Mo
  Mo34     1.0000 0.29442  0.76410  0.95034  Biso   1.000  Mo
  Mo35     1.0000 0.47626  0.86280  0.97173  Biso   1.000  Mo
  C73      1.0000 0.02615  0.47320  0.24770  Biso   1.000  C
  C74      1.0000 0.05180  0.35230  0.24670  Biso   1.000  C
  C75      1.0000 0.02572  0.23240  0.24790  Biso   1.000  C
  C76      1.0000 0.05230  0.60440  0.24380  Biso   1.000  C
  H79      1.0000 0.03090  0.66440  0.21770  Biso   1.000  H
  H80      1.0000 0.08320  0.59160  0.22590  Biso   1.000  H
  C77      1.0000 0.07366  0.60620  0.35860  Biso   1.000  C
  H81      1.0000 0.07360  0.51510  0.36560  Biso   1.000  H
  C78      1.0000 0.07910  0.81260  0.36960  Biso   1.000  C
  H82      1.0000 0.08450  0.89540  0.38800  Biso   1.000  H
  C79      1.0000 0.10820  0.35440  0.24510  Biso   1.000  C
  H83      1.0000 0.12380  0.28310  0.27040  Biso   1.000  H
  H84      1.0000 0.12190  0.43810  0.26170  Biso   1.000  H
  C80      1.0000 0.09203  0.35140  0.12940  Biso   1.000  C
  H85      1.0000 0.05800  0.37330  0.12440  Biso   1.000  H
  C81      1.0000 0.16500  0.30540  0.11340  Biso   1.000  C
  H86      1.0000 0.19240  0.28660  0.09280  Biso   1.000  H
  C82      1.0000 0.05410  0.10320  0.24610  Biso   1.000  C
  H87      1.0000 0.03770  0.03550  0.26790  Biso   1.000  H
  H88      1.0000 0.08810  0.11470  0.26650  Biso   1.000  H
  C83      1.0000 0.02310  0.07130  0.13450  Biso   1.000  C
  H89      1.0000 0.99270  0.11680  0.13310  Biso   1.000  H
  C84      1.0000 0.08310  0.95990  0.11120  Biso   1.000  C
  H90      1.0000 0.10330  0.91010  0.08850  Biso   1.000  H
  N55      1.0000 0.08352  0.69780  0.40101  Biso   1.000  N
  N56      1.0000 0.06386  0.66270  0.30470  Biso   1.000  N
  N57      1.0000 0.06655  0.79780  0.31070  Biso   1.000  N
  N58      1.0000 0.11856  0.32890  0.08476  Biso   1.000  N
  N59      1.0000 0.12017  0.33860  0.18260  Biso   1.000  N
  N60      1.0000 0.16813  0.31140  0.17360  Biso   1.000  N
  N61      1.0000 0.03876  0.01060  0.08760  Biso   1.000  N
  N62      1.0000 0.05612  0.05900  0.18348  Biso   1.000  N
  N63      1.0000 0.09550  0.98650  0.16900  Biso   1.000  N
  H91      1.0000 0.12230  0.96340  0.19230  Biso   1.000  H
  O61      1.0000 0.16771  0.42020  0.97939  Biso   1.000  O
  O62      1.0000 0.16920  0.68420  0.96026  Biso   1.000  O
  O63      1.0000 0.26368  0.43080  0.94351  Biso   1.000  O
  O64      1.0000 0.34553  0.56180  0.08321  Biso   1.000  O
  O65      1.0000 0.43605  0.56380  0.03944  Biso   1.000  O
  O66      1.0000 0.41737  0.80320  0.99525  Biso   1.000  O
  O67      1.0000 0.33905  0.62260  0.97071  Biso   1.000  O
  O68      1.0000 0.24879  0.88230  0.98538  Biso   1.000  O
  O69      1.0000 0.25070  0.68330  0.89646  Biso   1.000  O
  O70      1.0000 0.45931  0.03940  0.00569  Biso   1.000  O
  Zn8      1.0000 0.60045  0.83203  0.99271  Biso   1.000  Zn
  Mo36     1.0000 0.70130  0.02523  0.93740  Biso   1.000  Mo
  Mo37     1.0000 0.80752  0.95278  0.01933  Biso   1.000  Mo
  Mo38     1.0000 0.89159  0.18258  0.05436  Biso   1.000  Mo
  Mo39     1.0000 0.79442  0.26410  0.95034  Biso   1.000  Mo
  Mo40     1.0000 0.97626  0.36280  0.97173  Biso   1.000  Mo
  C85      1.0000 0.52615  0.97320  0.24770  Biso   1.000  C
  C86      1.0000 0.55180  0.85230  0.24670  Biso   1.000  C
  C87      1.0000 0.52572  0.73240  0.24790  Biso   1.000  C
  C88      1.0000 0.55230  0.10440  0.24380  Biso   1.000  C
  H92      1.0000 0.53090  0.16440  0.21770  Biso   1.000  H
  H93      1.0000 0.58320  0.09160  0.22590  Biso   1.000  H
  C89      1.0000 0.57366  0.10620  0.35860  Biso   1.000  C
  H94      1.0000 0.57360  0.01510  0.36560  Biso   1.000  H
  C90      1.0000 0.57910  0.31260  0.36960  Biso   1.000  C
  H95      1.0000 0.58450  0.39540  0.38800  Biso   1.000  H
  C91      1.0000 0.60820  0.85440  0.24510  Biso   1.000  C
  H96      1.0000 0.62380  0.78310  0.27040  Biso   1.000  H
  H97      1.0000 0.62190  0.93810  0.26170  Biso   1.000  H
  C92      1.0000 0.59203  0.85140  0.12940  Biso   1.000  C
  H98      1.0000 0.55800  0.87330  0.12440  Biso   1.000  H
  C93      1.0000 0.66500  0.80540  0.11340  Biso   1.000  C
  H99      1.0000 0.69240  0.78660  0.09280  Biso   1.000  H
  C94      1.0000 0.55410  0.60320  0.24610  Biso   1.000  C
  H100     1.0000 0.53770  0.53550  0.26790  Biso   1.000  H
  H101     1.0000 0.58810  0.61470  0.26650  Biso   1.000  H
  C95      1.0000 0.52310  0.57130  0.13450  Biso   1.000  C
  H102     1.0000 0.49270  0.61680  0.13310  Biso   1.000  H
  C96      1.0000 0.58310  0.45990  0.11120  Biso   1.000  C
  H103     1.0000 0.60330  0.41010  0.08850  Biso   1.000  H
  N64      1.0000 0.58352  0.19780  0.40101  Biso   1.000  N
  N65      1.0000 0.56386  0.16270  0.30470  Biso   1.000  N
  N66      1.0000 0.56655  0.29780  0.31070  Biso   1.000  N
  N67      1.0000 0.61856  0.82890  0.08476  Biso   1.000  N
  N68      1.0000 0.62017  0.83860  0.18260  Biso   1.000  N
  N69      1.0000 0.66813  0.81140  0.17360  Biso   1.000  N
  N70      1.0000 0.53876  0.51060  0.08760  Biso   1.000  N
  N71      1.0000 0.55612  0.55900  0.18348  Biso   1.000  N
  N72      1.0000 0.59550  0.48650  0.16900  Biso   1.000  N
  H104     1.0000 0.62230  0.46340  0.19230  Biso   1.000  H
  O71      1.0000 0.66771  0.92020  0.97939  Biso   1.000  O
  O72      1.0000 0.66920  0.18420  0.96026  Biso   1.000  O
  O73      1.0000 0.76368  0.93080  0.94351  Biso   1.000  O
  O74      1.0000 0.84553  0.06180  0.08321  Biso   1.000  O
  O75      1.0000 0.93605  0.06380  0.03944  Biso   1.000  O
  O76      1.0000 0.91737  0.30320  0.99525  Biso   1.000  O
  O77      1.0000 0.83905  0.12260  0.97071  Biso   1.000  O
  O78      1.0000 0.74879  0.38230  0.98538  Biso   1.000  O
  O79      1.0000 0.75070  0.18330  0.89646  Biso   1.000  O
  O80      1.0000 0.95931  0.53940  0.00569  Biso   1.000  O
  Zn9      1.0000 0.50000  0.50000  0.50000  Biso   1.000  Zn
  Zn10     1.0000 0.00000  0.00000  0.50000  Biso   1.000  Zn
  Zn11     1.0000 0.50000  0.50000  0.00000  Biso   1.000  Zn
  Zn12     1.0000 0.00000  0.00000  0.00000  Biso   1.000  Zn
