data_image0
_cell_length_a       11.2374
_cell_length_b       11.2374
_cell_length_c       37.096
_cell_angle_alpha    90
_cell_angle_beta     90
_cell_angle_gamma    90

_symmetry_space_group_name_H-M    "P 1"
_symmetry_int_tables_number       1

loop_
  _symmetry_equiv_pos_as_xyz
  'x, y, z'

loop_
  _atom_site_label
  _atom_site_occupancy
  _atom_site_fract_x
  _atom_site_fract_y
  _atom_site_fract_z
  _atom_site_thermal_displace_type
  _atom_site_B_iso_or_equiv
  _atom_site_type_symbol
  Cu1      1.0000 0.69675  0.69699  0.56054  Biso   1.000  Cu
  O1       1.0000 0.60910  0.61780  0.59742  Biso   1.000  O
  O2       1.0000 0.61720  0.60910  0.52314  Biso   1.000  O
  O3       1.0000 0.48650  0.49080  0.62260  Biso   1.000  O
  O4       1.0000 0.49190  0.48760  0.49750  Biso   1.000  O
  N1       1.0000 0.79530  0.77090  0.59990  Biso   1.000  N
  N2       1.0000 0.77380  0.79420  0.52130  Biso   1.000  N
  N3       1.0000 0.15310  0.86630  0.75330  Biso   1.000  N
  N4       1.0000 0.86900  0.15220  0.36700  Biso   1.000  N
  C1       1.0000 0.91660  0.76440  0.59930  Biso   1.000  C
  H1       1.0000 0.95440  0.73970  0.57830  Biso   1.000  H
  C2       1.0000 0.98300  0.79240  0.62810  Biso   1.000  C
  H2       1.0000 0.06550  0.79340  0.62610  Biso   1.000  H
  C3       1.0000 0.93130  0.81940  0.66040  Biso   1.000  C
  C4       1.0000 0.81400  0.82910  0.66050  Biso   1.000  C
  H3       1.0000 0.77550  0.85450  0.68140  Biso   1.000  H
  C5       1.0000 0.74800  0.80220  0.63040  Biso   1.000  C
  H4       1.0000 0.66550  0.80670  0.63200  Biso   1.000  H
  C6       1.0000 0.00710  0.83890  0.69320  Biso   1.000  C
  C7       1.0000 0.13100  0.84060  0.69160  Biso   1.000  C
  H5       1.0000 0.16840  0.83740  0.66920  Biso   1.000  H
  C8       1.0000 0.19540  0.84600  0.72080  Biso   1.000  C
  H6       1.0000 0.27710  0.83590  0.71840  Biso   1.000  H
  C9       1.0000 0.03830  0.87050  0.75510  Biso   1.000  C
  H7       1.0000 0.00400  0.88300  0.77760  Biso   1.000  H
  C10      1.0000 0.96320  0.85770  0.72580  Biso   1.000  C
  H8       1.0000 0.88130  0.86220  0.72900  Biso   1.000  H
  C11      1.0000 0.76990  0.91310  0.52270  Biso   1.000  C
  H9       1.0000 0.75170  0.94950  0.54460  Biso   1.000  H
  C12      1.0000 0.79170  0.98360  0.49320  Biso   1.000  C
  H10      1.0000 0.78670  0.06590  0.49540  Biso   1.000  H
  C13      1.0000 0.82060  0.93390  0.46080  Biso   1.000  C
  C14      1.0000 0.82580  0.81040  0.45910  Biso   1.000  C
  H11      1.0000 0.84520  0.77130  0.43780  Biso   1.000  H
  C15      1.0000 0.80090  0.74770  0.49060  Biso   1.000  C
  H12      1.0000 0.80410  0.66510  0.48940  Biso   1.000  H
  C16      1.0000 0.83840  0.01030  0.42830  Biso   1.000  C
  C17      1.0000 0.83810  0.12910  0.43020  Biso   1.000  C
  H13      1.0000 0.83010  0.16710  0.45230  Biso   1.000  H
  C18      1.0000 0.84980  0.19490  0.39890  Biso   1.000  C
  H14      1.0000 0.84330  0.27710  0.40100  Biso   1.000  H
  C19      1.0000 0.86730  0.03780  0.36580  Biso   1.000  C
  H15      1.0000 0.87490  0.00310  0.34310  Biso   1.000  H
  C20      1.0000 0.85540  0.96160  0.39460  Biso   1.000  C
  H16      1.0000 0.85880  0.87960  0.39140  Biso   1.000  H
  C21      1.0000 0.53660  0.53330  0.52500  Biso   1.000  C
  C22      1.0000 0.48870  0.48800  0.56040  Biso   1.000  C
  H17      1.0000 0.40310  0.49890  0.55970  Biso   1.000  H
  H18      1.0000 0.50280  0.40290  0.56080  Biso   1.000  H
  C23      1.0000 0.53030  0.53570  0.59560  Biso   1.000  C
  Cu2      1.0000 0.30325  0.30301  0.06054  Biso   1.000  Cu
  O5       1.0000 0.39090  0.38220  0.09742  Biso   1.000  O
  O6       1.0000 0.38280  0.39090  0.02314  Biso   1.000  O
  O7       1.0000 0.51350  0.50920  0.12260  Biso   1.000  O
  O8       1.0000 0.50810  0.51240  0.99750  Biso   1.000  O
  N5       1.0000 0.20470  0.22910  0.09990  Biso   1.000  N
  N6       1.0000 0.22620  0.20580  0.02130  Biso   1.000  N
  N7       1.0000 0.84690  0.13370  0.25330  Biso   1.000  N
  N8       1.0000 0.13100  0.84780  0.86700  Biso   1.000  N
  C24      1.0000 0.08340  0.23560  0.09930  Biso   1.000  C
  H19      1.0000 0.04560  0.26030  0.07830  Biso   1.000  H
  C25      1.0000 0.01700  0.20760  0.12810  Biso   1.000  C
  H20      1.0000 0.93450  0.20660  0.12610  Biso   1.000  H
  C26      1.0000 0.06870  0.18060  0.16040  Biso   1.000  C
  C27      1.0000 0.18600  0.17090  0.16050  Biso   1.000  C
  H21      1.0000 0.22450  0.14550  0.18140  Biso   1.000  H
  C28      1.0000 0.25200  0.19780  0.13040  Biso   1.000  C
  H22      1.0000 0.33450  0.19330  0.13200  Biso   1.000  H
  C29      1.0000 0.99290  0.16110  0.19320  Biso   1.000  C
  C30      1.0000 0.86900  0.15940  0.19160  Biso   1.000  C
  H23      1.0000 0.83160  0.16260  0.16920  Biso   1.000  H
  C31      1.0000 0.80460  0.15400  0.22080  Biso   1.000  C
  H24      1.0000 0.72290  0.16410  0.21840  Biso   1.000  H
  C32      1.0000 0.96170  0.12950  0.25510  Biso   1.000  C
  H25      1.0000 0.99600  0.11700  0.27760  Biso   1.000  H
  C33      1.0000 0.03680  0.14230  0.22580  Biso   1.000  C
  H26      1.0000 0.11870  0.13780  0.22900  Biso   1.000  H
  C34      1.0000 0.23010  0.08690  0.02270  Biso   1.000  C
  H27      1.0000 0.24830  0.05050  0.04460  Biso   1.000  H
  C35      1.0000 0.20830  0.01640  0.99320  Biso   1.000  C
  H28      1.0000 0.21330  0.93410  0.99540  Biso   1.000  H
  C36      1.0000 0.17940  0.06610  0.96080  Biso   1.000  C
  C37      1.0000 0.17420  0.18960  0.95910  Biso   1.000  C
  H29      1.0000 0.15480  0.22870  0.93780  Biso   1.000  H
  C38      1.0000 0.19910  0.25230  0.99060  Biso   1.000  C
  H30      1.0000 0.19590  0.33490  0.98940  Biso   1.000  H
  C39      1.0000 0.16160  0.98970  0.92830  Biso   1.000  C
  C40      1.0000 0.16190  0.87090  0.93020  Biso   1.000  C
  H31      1.0000 0.16990  0.83290  0.95230  Biso   1.000  H
  C41      1.0000 0.15020  0.80510  0.89890  Biso   1.000  C
  H32      1.0000 0.15670  0.72290  0.90100  Biso   1.000  H
  C42      1.0000 0.13270  0.96220  0.86580  Biso   1.000  C
  H33      1.0000 0.12510  0.99690  0.84310  Biso   1.000  H
  C43      1.0000 0.14460  0.03840  0.89460  Biso   1.000  C
  H34      1.0000 0.14120  0.12040  0.89140  Biso   1.000  H
  C44      1.0000 0.46340  0.46670  0.02500  Biso   1.000  C
  C45      1.0000 0.51130  0.51200  0.06040  Biso   1.000  C
  H35      1.0000 0.59690  0.50110  0.05970  Biso   1.000  H
  H36      1.0000 0.49720  0.59710  0.06080  Biso   1.000  H
  C46      1.0000 0.46970  0.46430  0.09560  Biso   1.000  C
  Cu3      1.0000 0.30301  0.69675  0.31054  Biso   1.000  Cu
  O9       1.0000 0.38220  0.60910  0.34742  Biso   1.000  O
  O10      1.0000 0.39090  0.61720  0.27314  Biso   1.000  O
  O11      1.0000 0.50920  0.48650  0.37260  Biso   1.000  O
  O12      1.0000 0.51240  0.49190  0.24750  Biso   1.000  O
  N9       1.0000 0.22910  0.79530  0.34990  Biso   1.000  N
  N10      1.0000 0.20580  0.77380  0.27130  Biso   1.000  N
  N11      1.0000 0.13370  0.15310  0.50330  Biso   1.000  N
  N12      1.0000 0.84780  0.86900  0.11700  Biso   1.000  N
  C47      1.0000 0.23560  0.91660  0.34930  Biso   1.000  C
  H37      1.0000 0.26030  0.95440  0.32830  Biso   1.000  H
  C48      1.0000 0.20760  0.98300  0.37810  Biso   1.000  C
  H38      1.0000 0.20660  0.06550  0.37610  Biso   1.000  H
  C49      1.0000 0.18060  0.93130  0.41040  Biso   1.000  C
  C50      1.0000 0.17090  0.81400  0.41050  Biso   1.000  C
  H39      1.0000 0.14550  0.77550  0.43140  Biso   1.000  H
  C51      1.0000 0.19780  0.74800  0.38040  Biso   1.000  C
  H40      1.0000 0.19330  0.66550  0.38200  Biso   1.000  H
  C52      1.0000 0.16110  0.00710  0.44320  Biso   1.000  C
  C53      1.0000 0.15940  0.13100  0.44160  Biso   1.000  C
  H41      1.0000 0.16260  0.16840  0.41920  Biso   1.000  H
  C54      1.0000 0.15400  0.19540  0.47080  Biso   1.000  C
  H42      1.0000 0.16410  0.27710  0.46840  Biso   1.000  H
  C55      1.0000 0.12950  0.03830  0.50510  Biso   1.000  C
  H43      1.0000 0.11700  0.00400  0.52760  Biso   1.000  H
  C56      1.0000 0.14230  0.96320  0.47580  Biso   1.000  C
  H44      1.0000 0.13780  0.88130  0.47900  Biso   1.000  H
  C57      1.0000 0.08690  0.76990  0.27270  Biso   1.000  C
  H45      1.0000 0.05050  0.75170  0.29460  Biso   1.000  H
  C58      1.0000 0.01640  0.79170  0.24320  Biso   1.000  C
  H46      1.0000 0.93410  0.78670  0.24540  Biso   1.000  H
  C59      1.0000 0.06610  0.82060  0.21080  Biso   1.000  C
  C60      1.0000 0.18960  0.82580  0.20910  Biso   1.000  C
  H47      1.0000 0.22870  0.84520  0.18780  Biso   1.000  H
  C61      1.0000 0.25230  0.80090  0.24060  Biso   1.000  C
  H48      1.0000 0.33490  0.80410  0.23940  Biso   1.000  H
  C62      1.0000 0.98970  0.83840  0.17830  Biso   1.000  C
  C63      1.0000 0.87090  0.83810  0.18020  Biso   1.000  C
  H49      1.0000 0.83290  0.83010  0.20230  Biso   1.000  H
  C64      1.0000 0.80510  0.84980  0.14890  Biso   1.000  C
  H50      1.0000 0.72290  0.84330  0.15100  Biso   1.000  H
  C65      1.0000 0.96220  0.86730  0.11580  Biso   1.000  C
  H51      1.0000 0.99690  0.87490  0.09310  Biso   1.000  H
  C66      1.0000 0.03840  0.85540  0.14460  Biso   1.000  C
  H52      1.0000 0.12040  0.85880  0.14140  Biso   1.000  H
  C67      1.0000 0.46670  0.53660  0.27500  Biso   1.000  C
  C68      1.0000 0.51200  0.48870  0.31040  Biso   1.000  C
  H53      1.0000 0.50110  0.40310  0.30970  Biso   1.000  H
  H54      1.0000 0.59710  0.50280  0.31080  Biso   1.000  H
  C69      1.0000 0.46430  0.53030  0.34560  Biso   1.000  C
  Cu4      1.0000 0.69699  0.30325  0.81054  Biso   1.000  Cu
  O13      1.0000 0.61780  0.39090  0.84742  Biso   1.000  O
  O14      1.0000 0.60910  0.38280  0.77314  Biso   1.000  O
  O15      1.0000 0.49080  0.51350  0.87260  Biso   1.000  O
  O16      1.0000 0.48760  0.50810  0.74750  Biso   1.000  O
  N13      1.0000 0.77090  0.20470  0.84990  Biso   1.000  N
  N14      1.0000 0.79420  0.22620  0.77130  Biso   1.000  N
  N15      1.0000 0.86630  0.84690  0.00330  Biso   1.000  N
  N16      1.0000 0.15220  0.13100  0.61700  Biso   1.000  N
  C70      1.0000 0.76440  0.08340  0.84930  Biso   1.000  C
  H55      1.0000 0.73970  0.04560  0.82830  Biso   1.000  H
  C71      1.0000 0.79240  0.01700  0.87810  Biso   1.000  C
  H56      1.0000 0.79340  0.93450  0.87610  Biso   1.000  H
  C72      1.0000 0.81940  0.06870  0.91040  Biso   1.000  C
  C73      1.0000 0.82910  0.18600  0.91050  Biso   1.000  C
  H57      1.0000 0.85450  0.22450  0.93140  Biso   1.000  H
  C74      1.0000 0.80220  0.25200  0.88040  Biso   1.000  C
  H58      1.0000 0.80670  0.33450  0.88200  Biso   1.000  H
  C75      1.0000 0.83890  0.99290  0.94320  Biso   1.000  C
  C76      1.0000 0.84060  0.86900  0.94160  Biso   1.000  C
  H59      1.0000 0.83740  0.83160  0.91920  Biso   1.000  H
  C77      1.0000 0.84600  0.80460  0.97080  Biso   1.000  C
  H60      1.0000 0.83590  0.72290  0.96840  Biso   1.000  H
  C78      1.0000 0.87050  0.96170  0.00510  Biso   1.000  C
  H61      1.0000 0.88300  0.99600  0.02760  Biso   1.000  H
  C79      1.0000 0.85770  0.03680  0.97580  Biso   1.000  C
  H62      1.0000 0.86220  0.11870  0.97900  Biso   1.000  H
  C80      1.0000 0.91310  0.23010  0.77270  Biso   1.000  C
  H63      1.0000 0.94950  0.24830  0.79460  Biso   1.000  H
  C81      1.0000 0.98360  0.20830  0.74320  Biso   1.000  C
  H64      1.0000 0.06590  0.21330  0.74540  Biso   1.000  H
  C82      1.0000 0.93390  0.17940  0.71080  Biso   1.000  C
  C83      1.0000 0.81040  0.17420  0.70910  Biso   1.000  C
  H65      1.0000 0.77130  0.15480  0.68780  Biso   1.000  H
  C84      1.0000 0.74770  0.19910  0.74060  Biso   1.000  C
  H66      1.0000 0.66510  0.19590  0.73940  Biso   1.000  H
  C85      1.0000 0.01030  0.16160  0.67830  Biso   1.000  C
  C86      1.0000 0.12910  0.16190  0.68020  Biso   1.000  C
  H67      1.0000 0.16710  0.16990  0.70230  Biso   1.000  H
  C87      1.0000 0.19490  0.15020  0.64890  Biso   1.000  C
  H68      1.0000 0.27710  0.15670  0.65100  Biso   1.000  H
  C88      1.0000 0.03780  0.13270  0.61580  Biso   1.000  C
  H69      1.0000 0.00310  0.12510  0.59310  Biso   1.000  H
  C89      1.0000 0.96160  0.14460  0.64460  Biso   1.000  C
  H70      1.0000 0.87960  0.14120  0.64140  Biso   1.000  H
  C90      1.0000 0.53330  0.46340  0.77500  Biso   1.000  C
  C91      1.0000 0.48800  0.51130  0.81040  Biso   1.000  C
  H71      1.0000 0.49890  0.59690  0.80970  Biso   1.000  H
  H72      1.0000 0.40290  0.49720  0.81080  Biso   1.000  H
  C92      1.0000 0.53570  0.46970  0.84560  Biso   1.000  C
  Cu5      1.0000 0.49400  0.49983  0.68583  Biso   1.000  Cu
  N17      1.0000 0.30810  0.49970  0.68660  Biso   1.000  N
  N18      1.0000 0.48750  0.31540  0.68534  Biso   1.000  N
  N19      1.0000 0.67790  0.49930  0.68660  Biso   1.000  N
  N20      1.0000 0.48850  0.68440  0.68770  Biso   1.000  N
  C93      1.0000 0.24570  0.48180  0.65590  Biso   1.000  C
  H73      1.0000 0.28780  0.46700  0.63480  Biso   1.000  H
  C94      1.0000 0.12300  0.48440  0.65410  Biso   1.000  C
  H74      1.0000 0.08380  0.47710  0.63210  Biso   1.000  H
  C95      1.0000 0.06050  0.49790  0.68560  Biso   1.000  C
  C96      1.0000 0.12490  0.51680  0.71570  Biso   1.000  C
  H75      1.0000 0.08610  0.53090  0.73740  Biso   1.000  H
  C97      1.0000 0.24660  0.51550  0.71470  Biso   1.000  C
  H76      1.0000 0.28700  0.52710  0.73630  Biso   1.000  H
  C98      1.0000 0.92820  0.49930  0.68620  Biso   1.000  C
  C99      1.0000 0.86290  0.53160  0.71540  Biso   1.000  C
  H77      1.0000 0.90180  0.55410  0.73650  Biso   1.000  H
  C100     1.0000 0.74070  0.53170  0.71470  Biso   1.000  C
  H78      1.0000 0.70030  0.55620  0.73520  Biso   1.000  H
  C101     1.0000 0.74100  0.46940  0.65640  Biso   1.000  C
  H79      1.0000 0.70000  0.44910  0.63550  Biso   1.000  H
  C102     1.0000 0.86600  0.46830  0.65600  Biso   1.000  C
  H80      1.0000 0.90650  0.44650  0.63510  Biso   1.000  H
  C103     1.0000 0.52880  0.25000  0.65620  Biso   1.000  C
  H81      1.0000 0.55850  0.29020  0.63630  Biso   1.000  H
  C104     1.0000 0.52710  0.12780  0.65600  Biso   1.000  C
  H82      1.0000 0.55400  0.08650  0.63580  Biso   1.000  H
  C105     1.0000 0.48540  0.06610  0.68560  Biso   1.000  C
  C106     1.0000 0.44260  0.13310  0.71440  Biso   1.000  C
  H83      1.0000 0.41330  0.09560  0.73490  Biso   1.000  H
  C107     1.0000 0.44410  0.25560  0.71220  Biso   1.000  C
  H84      1.0000 0.41170  0.29830  0.73130  Biso   1.000  H
  C108     1.0000 0.48580  0.93490  0.68630  Biso   1.000  C
  C109     1.0000 0.44410  0.86660  0.65720  Biso   1.000  C
  H85      1.0000 0.41460  0.90400  0.63670  Biso   1.000  H
  C110     1.0000 0.44680  0.74670  0.65900  Biso   1.000  C
  H86      1.0000 0.41830  0.70410  0.63940  Biso   1.000  H
  C111     1.0000 0.52720  0.74950  0.71470  Biso   1.000  C
  H87      1.0000 0.55720  0.71000  0.73480  Biso   1.000  H
  C112     1.0000 0.52640  0.86890  0.71540  Biso   1.000  C
  H88      1.0000 0.55360  0.90830  0.73580  Biso   1.000  H
  Cu6      1.0000 0.50600  0.50017  0.18583  Biso   1.000  Cu
  N21      1.0000 0.69190  0.50030  0.18660  Biso   1.000  N
  N22      1.0000 0.51250  0.68460  0.18534  Biso   1.000  N
  N23      1.0000 0.32210  0.50070  0.18660  Biso   1.000  N
  N24      1.0000 0.51150  0.31560  0.18770  Biso   1.000  N
  C113     1.0000 0.75430  0.51820  0.15590  Biso   1.000  C
  H89      1.0000 0.71220  0.53300  0.13480  Biso   1.000  H
  C114     1.0000 0.87700  0.51560  0.15410  Biso   1.000  C
  H90      1.0000 0.91620  0.52290  0.13210  Biso   1.000  H
  C115     1.0000 0.93950  0.50210  0.18560  Biso   1.000  C
  C116     1.0000 0.87510  0.48320  0.21570  Biso   1.000  C
  H91      1.0000 0.91390  0.46910  0.23740  Biso   1.000  H
  C117     1.0000 0.75340  0.48450  0.21470  Biso   1.000  C
  H92      1.0000 0.71300  0.47290  0.23630  Biso   1.000  H
  C118     1.0000 0.07180  0.50070  0.18620  Biso   1.000  C
  C119     1.0000 0.13710  0.46840  0.21540  Biso   1.000  C
  H93      1.0000 0.09820  0.44590  0.23650  Biso   1.000  H
  C120     1.0000 0.25930  0.46830  0.21470  Biso   1.000  C
  H94      1.0000 0.29970  0.44380  0.23520  Biso   1.000  H
  C121     1.0000 0.25900  0.53060  0.15640  Biso   1.000  C
  H95      1.0000 0.30000  0.55090  0.13550  Biso   1.000  H
  C122     1.0000 0.13400  0.53170  0.15600  Biso   1.000  C
  H96      1.0000 0.09350  0.55350  0.13510  Biso   1.000  H
  C123     1.0000 0.47120  0.75000  0.15620  Biso   1.000  C
  H97      1.0000 0.44150  0.70980  0.13630  Biso   1.000  H
  C124     1.0000 0.47290  0.87220  0.15600  Biso   1.000  C
  H98      1.0000 0.44600  0.91350  0.13580  Biso   1.000  H
  C125     1.0000 0.51460  0.93390  0.18560  Biso   1.000  C
  C126     1.0000 0.55740  0.86690  0.21440  Biso   1.000  C
  H99      1.0000 0.58670  0.90440  0.23490  Biso   1.000  H
  C127     1.0000 0.55590  0.74440  0.21220  Biso   1.000  C
  H100     1.0000 0.58830  0.70170  0.23130  Biso   1.000  H
  C128     1.0000 0.51420  0.06510  0.18630  Biso   1.000  C
  C129     1.0000 0.55590  0.13340  0.15720  Biso   1.000  C
  H101     1.0000 0.58540  0.09600  0.13670  Biso   1.000  H
  C130     1.0000 0.55320  0.25330  0.15900  Biso   1.000  C
  H102     1.0000 0.58170  0.29590  0.13940  Biso   1.000  H
  C131     1.0000 0.47280  0.25050  0.21470  Biso   1.000  C
  H103     1.0000 0.44280  0.29000  0.23480  Biso   1.000  H
  C132     1.0000 0.47360  0.13110  0.21540  Biso   1.000  C
  H104     1.0000 0.44640  0.09170  0.23580  Biso   1.000  H
  Cu7      1.0000 0.50017  0.49400  0.43583  Biso   1.000  Cu
  N25      1.0000 0.50030  0.30810  0.43660  Biso   1.000  N
  N26      1.0000 0.68460  0.48750  0.43534  Biso   1.000  N
  N27      1.0000 0.50070  0.67790  0.43660  Biso   1.000  N
  N28      1.0000 0.31560  0.48850  0.43770  Biso   1.000  N
  C133     1.0000 0.51820  0.24570  0.40590  Biso   1.000  C
  H105     1.0000 0.53300  0.28780  0.38480  Biso   1.000  H
  C134     1.0000 0.51560  0.12300  0.40410  Biso   1.000  C
  H106     1.0000 0.52290  0.08380  0.38210  Biso   1.000  H
  C135     1.0000 0.50210  0.06050  0.43560  Biso   1.000  C
  C136     1.0000 0.48320  0.12490  0.46570  Biso   1.000  C
  H107     1.0000 0.46910  0.08610  0.48740  Biso   1.000  H
  C137     1.0000 0.48450  0.24660  0.46470  Biso   1.000  C
  H108     1.0000 0.47290  0.28700  0.48630  Biso   1.000  H
  C138     1.0000 0.50070  0.92820  0.43620  Biso   1.000  C
  C139     1.0000 0.46840  0.86290  0.46540  Biso   1.000  C
  H109     1.0000 0.44590  0.90180  0.48650  Biso   1.000  H
  C140     1.0000 0.46830  0.74070  0.46470  Biso   1.000  C
  H110     1.0000 0.44380  0.70030  0.48520  Biso   1.000  H
  C141     1.0000 0.53060  0.74100  0.40640  Biso   1.000  C
  H111     1.0000 0.55090  0.70000  0.38550  Biso   1.000  H
  C142     1.0000 0.53170  0.86600  0.40600  Biso   1.000  C
  H112     1.0000 0.55350  0.90650  0.38510  Biso   1.000  H
  C143     1.0000 0.75000  0.52880  0.40620  Biso   1.000  C
  H113     1.0000 0.70980  0.55850  0.38630  Biso   1.000  H
  C144     1.0000 0.87220  0.52710  0.40600  Biso   1.000  C
  H114     1.0000 0.91350  0.55400  0.38580  Biso   1.000  H
  C145     1.0000 0.93390  0.48540  0.43560  Biso   1.000  C
  C146     1.0000 0.86690  0.44260  0.46440  Biso   1.000  C
  H115     1.0000 0.90440  0.41330  0.48490  Biso   1.000  H
  C147     1.0000 0.74440  0.44410  0.46220  Biso   1.000  C
  H116     1.0000 0.70170  0.41170  0.48130  Biso   1.000  H
  C148     1.0000 0.06510  0.48580  0.43630  Biso   1.000  C
  C149     1.0000 0.13340  0.44410  0.40720  Biso   1.000  C
  H117     1.0000 0.09600  0.41460  0.38670  Biso   1.000  H
  C150     1.0000 0.25330  0.44680  0.40900  Biso   1.000  C
  H118     1.0000 0.29590  0.41830  0.38940  Biso   1.000  H
  C151     1.0000 0.25050  0.52720  0.46470  Biso   1.000  C
  H119     1.0000 0.29000  0.55720  0.48480  Biso   1.000  H
  C152     1.0000 0.13110  0.52640  0.46540  Biso   1.000  C
  H120     1.0000 0.09170  0.55360  0.48580  Biso   1.000  H
  Cu8      1.0000 0.49983  0.50600  0.93583  Biso   1.000  Cu
  N29      1.0000 0.49970  0.69190  0.93660  Biso   1.000  N
  N30      1.0000 0.31540  0.51250  0.93534  Biso   1.000  N
  N31      1.0000 0.49930  0.32210  0.93660  Biso   1.000  N
  N32      1.0000 0.68440  0.51150  0.93770  Biso   1.000  N
  C153     1.0000 0.48180  0.75430  0.90590  Biso   1.000  C
  H121     1.0000 0.46700  0.71220  0.88480  Biso   1.000  H
  C154     1.0000 0.48440  0.87700  0.90410  Biso   1.000  C
  H122     1.0000 0.47710  0.91620  0.88210  Biso   1.000  H
  C155     1.0000 0.49790  0.93950  0.93560  Biso   1.000  C
  C156     1.0000 0.51680  0.87510  0.96570  Biso   1.000  C
  H123     1.0000 0.53090  0.91390  0.98740  Biso   1.000  H
  C157     1.0000 0.51550  0.75340  0.96470  Biso   1.000  C
  H124     1.0000 0.52710  0.71300  0.98630  Biso   1.000  H
  C158     1.0000 0.49930  0.07180  0.93620  Biso   1.000  C
  C159     1.0000 0.53160  0.13710  0.96540  Biso   1.000  C
  H125     1.0000 0.55410  0.09820  0.98650  Biso   1.000  H
  C160     1.0000 0.53170  0.25930  0.96470  Biso   1.000  C
  H126     1.0000 0.55620  0.29970  0.98520  Biso   1.000  H
  C161     1.0000 0.46940  0.25900  0.90640  Biso   1.000  C
  H127     1.0000 0.44910  0.30000  0.88550  Biso   1.000  H
  C162     1.0000 0.46830  0.13400  0.90600  Biso   1.000  C
  H128     1.0000 0.44650  0.09350  0.88510  Biso   1.000  H
  C163     1.0000 0.25000  0.47120  0.90620  Biso   1.000  C
  H129     1.0000 0.29020  0.44150  0.88630  Biso   1.000  H
  C164     1.0000 0.12780  0.47290  0.90600  Biso   1.000  C
  H130     1.0000 0.08650  0.44600  0.88580  Biso   1.000  H
  C165     1.0000 0.06610  0.51460  0.93560  Biso   1.000  C
  C166     1.0000 0.13310  0.55740  0.96440  Biso   1.000  C
  H131     1.0000 0.09560  0.58670  0.98490  Biso   1.000  H
  C167     1.0000 0.25560  0.55590  0.96220  Biso   1.000  C
  H132     1.0000 0.29830  0.58830  0.98130  Biso   1.000  H
  C168     1.0000 0.93490  0.51420  0.93630  Biso   1.000  C
  C169     1.0000 0.86660  0.55590  0.90720  Biso   1.000  C
  H133     1.0000 0.90400  0.58540  0.88670  Biso   1.000  H
  C170     1.0000 0.74670  0.55320  0.90900  Biso   1.000  C
  H134     1.0000 0.70410  0.58170  0.88940  Biso   1.000  H
  C171     1.0000 0.74950  0.47280  0.96470  Biso   1.000  C
  H135     1.0000 0.71000  0.44280  0.98480  Biso   1.000  H
  C172     1.0000 0.86890  0.47360  0.96540  Biso   1.000  C
  H136     1.0000 0.90830  0.44640  0.98580  Biso   1.000  H
