data_image0
_cell_length_a       15.847
_cell_length_b       9.685
_cell_length_c       18.333
_cell_angle_alpha    90
_cell_angle_beta     115.5
_cell_angle_gamma    90

_symmetry_space_group_name_H-M    "P 1"
_symmetry_int_tables_number       1

loop_
  _symmetry_equiv_pos_as_xyz
  'x, y, z'

loop_
  _atom_site_label
  _atom_site_occupancy
  _atom_site_fract_x
  _atom_site_fract_y
  _atom_site_fract_z
  _atom_site_thermal_displace_type
  _atom_site_B_iso_or_equiv
  _atom_site_type_symbol
  Zn1      1.0000 0.41800  0.12490  0.58610  Biso   1.000  Zn
  O1       1.0000 0.35840  0.28470  0.50240  Biso   1.000  O
  O2       1.0000 0.39360  0.96500  0.50250  Biso   1.000  O
  O3       1.0000 0.46690  0.26260  0.68270  Biso   1.000  O
  O4       1.0000 0.46620  0.98610  0.68350  Biso   1.000  O
  O5       1.0000 0.22170  0.38550  0.43120  Biso   1.000  O
  O6       1.0000 0.45920  0.86450  0.43130  Biso   1.000  O
  C1       1.0000 0.27270  0.30070  0.48080  Biso   1.000  C
  C2       1.0000 0.45750  0.95010  0.48070  Biso   1.000  C
  Zn2      1.0000 0.91800  0.62490  0.58610  Biso   1.000  Zn
  O7       1.0000 0.85840  0.78470  0.50240  Biso   1.000  O
  O8       1.0000 0.89360  0.46500  0.50250  Biso   1.000  O
  O9       1.0000 0.96690  0.76260  0.68270  Biso   1.000  O
  O10      1.0000 0.96620  0.48610  0.68350  Biso   1.000  O
  O11      1.0000 0.72170  0.88550  0.43120  Biso   1.000  O
  O12      1.0000 0.95920  0.36450  0.43130  Biso   1.000  O
  C3       1.0000 0.77270  0.80070  0.48080  Biso   1.000  C
  C4       1.0000 0.95750  0.45010  0.48070  Biso   1.000  C
  Zn3      1.0000 0.58200  0.12490  0.91390  Biso   1.000  Zn
  O13      1.0000 0.64160  0.28470  0.99760  Biso   1.000  O
  O14      1.0000 0.60640  0.96500  0.99750  Biso   1.000  O
  O15      1.0000 0.53310  0.26260  0.81730  Biso   1.000  O
  O16      1.0000 0.53380  0.98610  0.81650  Biso   1.000  O
  O17      1.0000 0.77830  0.38550  0.06880  Biso   1.000  O
  O18      1.0000 0.54080  0.86450  0.06870  Biso   1.000  O
  C5       1.0000 0.72730  0.30070  0.01920  Biso   1.000  C
  C6       1.0000 0.54250  0.95010  0.01930  Biso   1.000  C
  Zn4      1.0000 0.08200  0.62490  0.91390  Biso   1.000  Zn
  O19      1.0000 0.14160  0.78470  0.99760  Biso   1.000  O
  O20      1.0000 0.10640  0.46500  0.99750  Biso   1.000  O
  O21      1.0000 0.03310  0.76260  0.81730  Biso   1.000  O
  O22      1.0000 0.03380  0.48610  0.81650  Biso   1.000  O
  O23      1.0000 0.27830  0.88550  0.06880  Biso   1.000  O
  O24      1.0000 0.04080  0.36450  0.06870  Biso   1.000  O
  C7       1.0000 0.22730  0.80070  0.01920  Biso   1.000  C
  C8       1.0000 0.04250  0.45010  0.01930  Biso   1.000  C
  Zn5      1.0000 0.58200  0.87510  0.41390  Biso   1.000  Zn
  O25      1.0000 0.64160  0.71530  0.49760  Biso   1.000  O
  O26      1.0000 0.60640  0.03500  0.49750  Biso   1.000  O
  O27      1.0000 0.53310  0.73740  0.31730  Biso   1.000  O
  O28      1.0000 0.53380  0.01390  0.31650  Biso   1.000  O
  O29      1.0000 0.77830  0.61450  0.56880  Biso   1.000  O
  O30      1.0000 0.54080  0.13550  0.56870  Biso   1.000  O
  C9       1.0000 0.72730  0.69930  0.51920  Biso   1.000  C
  C10      1.0000 0.54250  0.04990  0.51930  Biso   1.000  C
  Zn6      1.0000 0.08200  0.37510  0.41390  Biso   1.000  Zn
  O31      1.0000 0.14160  0.21530  0.49760  Biso   1.000  O
  O32      1.0000 0.10640  0.53500  0.49750  Biso   1.000  O
  O33      1.0000 0.03310  0.23740  0.31730  Biso   1.000  O
  O34      1.0000 0.03380  0.51390  0.31650  Biso   1.000  O
  O35      1.0000 0.27830  0.11450  0.56880  Biso   1.000  O
  O36      1.0000 0.04080  0.63550  0.56870  Biso   1.000  O
  C11      1.0000 0.22730  0.19930  0.51920  Biso   1.000  C
  C12      1.0000 0.04250  0.54990  0.51930  Biso   1.000  C
  Zn7      1.0000 0.41800  0.87510  0.08610  Biso   1.000  Zn
  O37      1.0000 0.35840  0.71530  0.00240  Biso   1.000  O
  O38      1.0000 0.39360  0.03500  0.00250  Biso   1.000  O
  O39      1.0000 0.46690  0.73740  0.18270  Biso   1.000  O
  O40      1.0000 0.46620  0.01390  0.18350  Biso   1.000  O
  O41      1.0000 0.22170  0.61450  0.93120  Biso   1.000  O
  O42      1.0000 0.45920  0.13550  0.93130  Biso   1.000  O
  C13      1.0000 0.27270  0.69930  0.98080  Biso   1.000  C
  C14      1.0000 0.45750  0.04990  0.98070  Biso   1.000  C
  Zn8      1.0000 0.91800  0.37510  0.08610  Biso   1.000  Zn
  O43      1.0000 0.85840  0.21530  0.00240  Biso   1.000  O
  O44      1.0000 0.89360  0.53500  0.00250  Biso   1.000  O
  O45      1.0000 0.96690  0.23740  0.18270  Biso   1.000  O
  O46      1.0000 0.96620  0.51390  0.18350  Biso   1.000  O
  O47      1.0000 0.72170  0.11450  0.93120  Biso   1.000  O
  O48      1.0000 0.95920  0.63550  0.93130  Biso   1.000  O
  C15      1.0000 0.77270  0.19930  0.98080  Biso   1.000  C
  C16      1.0000 0.95750  0.54990  0.98070  Biso   1.000  C
  C17      1.0000 0.50000  0.20470  0.75000  Biso   1.000  C
  C18      1.0000 0.50000  0.04400  0.75000  Biso   1.000  C
  C19      1.0000 0.00000  0.70470  0.75000  Biso   1.000  C
  C20      1.0000 0.00000  0.54400  0.75000  Biso   1.000  C
  C21      1.0000 0.50000  0.79530  0.25000  Biso   1.000  C
  C22      1.0000 0.50000  0.95600  0.25000  Biso   1.000  C
  C23      1.0000 0.00000  0.29530  0.25000  Biso   1.000  C
  C24      1.0000 0.00000  0.45600  0.25000  Biso   1.000  C
