data_image0
_cell_length_a       9.5852
_cell_length_b       20.3941
_cell_length_c       10.5339
_cell_angle_alpha    90
_cell_angle_beta     94.125
_cell_angle_gamma    90

_symmetry_space_group_name_H-M    "P 1"
_symmetry_int_tables_number       1

loop_
  _symmetry_equiv_pos_as_xyz
  'x, y, z'

loop_
  _atom_site_label
  _atom_site_occupancy
  _atom_site_fract_x
  _atom_site_fract_y
  _atom_site_fract_z
  _atom_site_thermal_displace_type
  _atom_site_B_iso_or_equiv
  _atom_site_type_symbol
  Zn1      1.0000 0.18166  0.30371  0.36352  Biso   1.000  Zn
  Zn2      1.0000 0.30930  0.55121  0.40400  Biso   1.000  Zn
  Zn3      1.0000 0.03663  0.56614  0.86604  Biso   1.000  Zn
  P1       1.0000 0.09879  0.20143  0.57076  Biso   1.000  P
  H1       1.0000 0.97500  0.21900  0.52900  Biso   1.000  H
  P2       1.0000 0.43584  0.40727  0.42316  Biso   1.000  P
  H2       1.0000 0.50200  0.43100  0.33300  Biso   1.000  H
  P3       1.0000 0.16209  0.55819  0.14032  Biso   1.000  P
  H3       1.0000 0.11900  0.62500  0.14840  Biso   1.000  H
  P4       1.0000 0.11013  0.62036  0.59332  Biso   1.000  P
  H4       1.0000 0.18700  0.67000  0.58260  Biso   1.000  H
  O1       1.0000 0.10000  0.12705  0.57620  Biso   1.000  O
  O2       1.0000 0.12830  0.23341  0.69870  Biso   1.000  O
  O3       1.0000 0.19900  0.22414  0.47400  Biso   1.000  O
  O4       1.0000 0.35950  0.34745  0.37000  Biso   1.000  O
  O5       1.0000 0.54500  0.38941  0.52870  Biso   1.000  O
  O6       1.0000 0.34020  0.46133  0.46520  Biso   1.000  O
  O7       1.0000 0.29990  0.55255  0.22000  Biso   1.000  O
  O8       1.0000 0.04680  0.51686  0.19270  Biso   1.000  O
  O9       1.0000 0.18030  0.54470  0.00050  Biso   1.000  O
  O10      1.0000 0.14440  0.59199  0.72410  Biso   1.000  O
  O11      1.0000 0.14150  0.57319  0.48880  Biso   1.000  O
  O12      1.0000 0.96040  0.64229  0.56850  Biso   1.000  O
  Zn4      1.0000 0.81834  0.80371  0.13648  Biso   1.000  Zn
  Zn5      1.0000 0.69070  0.05121  0.09600  Biso   1.000  Zn
  Zn6      1.0000 0.96337  0.06614  0.63396  Biso   1.000  Zn
  P5       1.0000 0.90121  0.70143  0.92924  Biso   1.000  P
  H5       1.0000 0.02500  0.71900  0.97100  Biso   1.000  H
  P6       1.0000 0.56416  0.90727  0.07684  Biso   1.000  P
  H6       1.0000 0.49800  0.93100  0.16700  Biso   1.000  H
  P7       1.0000 0.83791  0.05819  0.35968  Biso   1.000  P
  H7       1.0000 0.88100  0.12500  0.35160  Biso   1.000  H
  P8       1.0000 0.88987  0.12036  0.90668  Biso   1.000  P
  H8       1.0000 0.81300  0.17000  0.91740  Biso   1.000  H
  O13      1.0000 0.90000  0.62705  0.92380  Biso   1.000  O
  O14      1.0000 0.87170  0.73341  0.80130  Biso   1.000  O
  O15      1.0000 0.80100  0.72414  0.02600  Biso   1.000  O
  O16      1.0000 0.64050  0.84745  0.13000  Biso   1.000  O
  O17      1.0000 0.45500  0.88941  0.97130  Biso   1.000  O
  O18      1.0000 0.65980  0.96133  0.03480  Biso   1.000  O
  O19      1.0000 0.70010  0.05255  0.28000  Biso   1.000  O
  O20      1.0000 0.95320  0.01686  0.30730  Biso   1.000  O
  O21      1.0000 0.81970  0.04470  0.49950  Biso   1.000  O
  O22      1.0000 0.85560  0.09199  0.77590  Biso   1.000  O
  O23      1.0000 0.85850  0.07319  0.01120  Biso   1.000  O
  O24      1.0000 0.03960  0.14229  0.93150  Biso   1.000  O
  Zn7      1.0000 0.81834  0.69629  0.63648  Biso   1.000  Zn
  Zn8      1.0000 0.69070  0.44879  0.59600  Biso   1.000  Zn
  Zn9      1.0000 0.96337  0.43386  0.13396  Biso   1.000  Zn
  P9       1.0000 0.90121  0.79857  0.42924  Biso   1.000  P
  H9       1.0000 0.02500  0.78100  0.47100  Biso   1.000  H
  P10      1.0000 0.56416  0.59273  0.57684  Biso   1.000  P
  H10      1.0000 0.49800  0.56900  0.66700  Biso   1.000  H
  P11      1.0000 0.83791  0.44181  0.85968  Biso   1.000  P
  H11      1.0000 0.88100  0.37500  0.85160  Biso   1.000  H
  P12      1.0000 0.88987  0.37964  0.40668  Biso   1.000  P
  H12      1.0000 0.81300  0.33000  0.41740  Biso   1.000  H
  O25      1.0000 0.90000  0.87295  0.42380  Biso   1.000  O
  O26      1.0000 0.87170  0.76659  0.30130  Biso   1.000  O
  O27      1.0000 0.80100  0.77586  0.52600  Biso   1.000  O
  O28      1.0000 0.64050  0.65255  0.63000  Biso   1.000  O
  O29      1.0000 0.45500  0.61059  0.47130  Biso   1.000  O
  O30      1.0000 0.65980  0.53867  0.53480  Biso   1.000  O
  O31      1.0000 0.70010  0.44745  0.78000  Biso   1.000  O
  O32      1.0000 0.95320  0.48314  0.80730  Biso   1.000  O
  O33      1.0000 0.81970  0.45530  0.99950  Biso   1.000  O
  O34      1.0000 0.85560  0.40801  0.27590  Biso   1.000  O
  O35      1.0000 0.85850  0.42681  0.51120  Biso   1.000  O
  O36      1.0000 0.03960  0.35771  0.43150  Biso   1.000  O
  Zn10     1.0000 0.18166  0.19629  0.86352  Biso   1.000  Zn
  Zn11     1.0000 0.30930  0.94879  0.90400  Biso   1.000  Zn
  Zn12     1.0000 0.03663  0.93386  0.36604  Biso   1.000  Zn
  P13      1.0000 0.09879  0.29857  0.07076  Biso   1.000  P
  H13      1.0000 0.97500  0.28100  0.02900  Biso   1.000  H
  P14      1.0000 0.43584  0.09273  0.92316  Biso   1.000  P
  H14      1.0000 0.50200  0.06900  0.83300  Biso   1.000  H
  P15      1.0000 0.16209  0.94181  0.64032  Biso   1.000  P
  H15      1.0000 0.11900  0.87500  0.64840  Biso   1.000  H
  P16      1.0000 0.11013  0.87964  0.09332  Biso   1.000  P
  H16      1.0000 0.18700  0.83000  0.08260  Biso   1.000  H
  O37      1.0000 0.10000  0.37295  0.07620  Biso   1.000  O
  O38      1.0000 0.12830  0.26659  0.19870  Biso   1.000  O
  O39      1.0000 0.19900  0.27586  0.97400  Biso   1.000  O
  O40      1.0000 0.35950  0.15255  0.87000  Biso   1.000  O
  O41      1.0000 0.54500  0.11059  0.02870  Biso   1.000  O
  O42      1.0000 0.34020  0.03867  0.96520  Biso   1.000  O
  O43      1.0000 0.29990  0.94745  0.72000  Biso   1.000  O
  O44      1.0000 0.04680  0.98314  0.69270  Biso   1.000  O
  O45      1.0000 0.18030  0.95530  0.50050  Biso   1.000  O
  O46      1.0000 0.14440  0.90801  0.22410  Biso   1.000  O
  O47      1.0000 0.14150  0.92681  0.98880  Biso   1.000  O
  O48      1.0000 0.96040  0.85771  0.06850  Biso   1.000  O
