data_image0
_cell_length_a       16.1284
_cell_length_b       16.1284
_cell_length_c       5.2134
_cell_angle_alpha    90
_cell_angle_beta     90
_cell_angle_gamma    90

_symmetry_space_group_name_H-M    "P 1"
_symmetry_int_tables_number       1

loop_
  _symmetry_equiv_pos_as_xyz
  'x, y, z'

loop_
  _atom_site_label
  _atom_site_occupancy
  _atom_site_fract_x
  _atom_site_fract_y
  _atom_site_fract_z
  _atom_site_thermal_displace_type
  _atom_site_B_iso_or_equiv
  _atom_site_type_symbol
  C1       1.0000 0.24613  0.05612  0.75810  Biso   1.000  C
  H1       1.0000 0.28520  0.07550  0.64130  Biso   1.000  H
  C2       1.0000 0.22691  0.97353  0.75720  Biso   1.000  C
  H2       1.0000 0.25270  0.93760  0.64250  Biso   1.000  H
  C3       1.0000 0.16867  0.94419  0.92900  Biso   1.000  C
  H3       1.0000 0.15500  0.88820  0.93240  Biso   1.000  H
  C4       1.0000 0.13104  0.99912  0.09600  Biso   1.000  C
  C5       1.0000 0.15470  0.08182  0.08510  Biso   1.000  C
  H4       1.0000 0.13010  0.11910  0.19800  Biso   1.000  H
  C6       1.0000 0.06797  0.97074  0.27860  Biso   1.000  C
  H5       1.0000 0.05660  0.91430  0.29040  Biso   1.000  H
  N1       1.0000 0.21108  0.11017  0.92000  Biso   1.000  N
  N2       1.0000 0.02871  0.02037  0.41980  Biso   1.000  N
  C7       1.0000 0.25387  0.44388  0.75810  Biso   1.000  C
  H6       1.0000 0.21480  0.42450  0.64130  Biso   1.000  H
  C8       1.0000 0.27309  0.52647  0.75720  Biso   1.000  C
  H7       1.0000 0.24730  0.56240  0.64250  Biso   1.000  H
  C9       1.0000 0.33133  0.55581  0.92900  Biso   1.000  C
  H8       1.0000 0.34500  0.61180  0.93240  Biso   1.000  H
  C10      1.0000 0.36896  0.50088  0.09600  Biso   1.000  C
  C11      1.0000 0.34530  0.41818  0.08510  Biso   1.000  C
  H9       1.0000 0.36990  0.38090  0.19800  Biso   1.000  H
  C12      1.0000 0.43203  0.52926  0.27860  Biso   1.000  C
  H10      1.0000 0.44340  0.58570  0.29040  Biso   1.000  H
  N3       1.0000 0.28892  0.38983  0.92000  Biso   1.000  N
  N4       1.0000 0.47129  0.47963  0.41980  Biso   1.000  N
  C13      1.0000 0.44388  0.24613  0.75810  Biso   1.000  C
  H11      1.0000 0.42450  0.28520  0.64130  Biso   1.000  H
  C14      1.0000 0.52647  0.22691  0.75720  Biso   1.000  C
  H12      1.0000 0.56240  0.25270  0.64250  Biso   1.000  H
  C15      1.0000 0.55581  0.16867  0.92900  Biso   1.000  C
  H13      1.0000 0.61180  0.15500  0.93240  Biso   1.000  H
  C16      1.0000 0.50088  0.13104  0.09600  Biso   1.000  C
  C17      1.0000 0.41818  0.15470  0.08510  Biso   1.000  C
  H14      1.0000 0.38090  0.13010  0.19800  Biso   1.000  H
  C18      1.0000 0.52926  0.06797  0.27860  Biso   1.000  C
  H15      1.0000 0.58570  0.05660  0.29040  Biso   1.000  H
  N5       1.0000 0.38983  0.21108  0.92000  Biso   1.000  N
  N6       1.0000 0.47963  0.02871  0.41980  Biso   1.000  N
  C19      1.0000 0.05612  0.25387  0.75810  Biso   1.000  C
  H16      1.0000 0.07550  0.21480  0.64130  Biso   1.000  H
  C20      1.0000 0.97353  0.27309  0.75720  Biso   1.000  C
  H17      1.0000 0.93760  0.24730  0.64250  Biso   1.000  H
  C21      1.0000 0.94419  0.33133  0.92900  Biso   1.000  C
  H18      1.0000 0.88820  0.34500  0.93240  Biso   1.000  H
  C22      1.0000 0.99912  0.36896  0.09600  Biso   1.000  C
  C23      1.0000 0.08182  0.34530  0.08510  Biso   1.000  C
  H19      1.0000 0.11910  0.36990  0.19800  Biso   1.000  H
  C24      1.0000 0.97074  0.43203  0.27860  Biso   1.000  C
  H20      1.0000 0.91430  0.44340  0.29040  Biso   1.000  H
  N7       1.0000 0.11017  0.28892  0.92000  Biso   1.000  N
  N8       1.0000 0.02037  0.47129  0.41980  Biso   1.000  N
  C25      1.0000 0.75387  0.94388  0.24190  Biso   1.000  C
  H21      1.0000 0.71480  0.92450  0.35870  Biso   1.000  H
  C26      1.0000 0.77309  0.02647  0.24280  Biso   1.000  C
  H22      1.0000 0.74730  0.06240  0.35750  Biso   1.000  H
  C27      1.0000 0.83133  0.05581  0.07100  Biso   1.000  C
  H23      1.0000 0.84500  0.11180  0.06760  Biso   1.000  H
  C28      1.0000 0.86896  0.00088  0.90400  Biso   1.000  C
  C29      1.0000 0.84530  0.91818  0.91490  Biso   1.000  C
  H24      1.0000 0.86990  0.88090  0.80200  Biso   1.000  H
  C30      1.0000 0.93203  0.02926  0.72140  Biso   1.000  C
  H25      1.0000 0.94340  0.08570  0.70960  Biso   1.000  H
  N9       1.0000 0.78892  0.88983  0.08000  Biso   1.000  N
  N10      1.0000 0.97129  0.97963  0.58020  Biso   1.000  N
  C31      1.0000 0.74613  0.55612  0.24190  Biso   1.000  C
  H26      1.0000 0.78520  0.57550  0.35870  Biso   1.000  H
  C32      1.0000 0.72691  0.47353  0.24280  Biso   1.000  C
  H27      1.0000 0.75270  0.43760  0.35750  Biso   1.000  H
  C33      1.0000 0.66867  0.44419  0.07100  Biso   1.000  C
  H28      1.0000 0.65500  0.38820  0.06760  Biso   1.000  H
  C34      1.0000 0.63104  0.49912  0.90400  Biso   1.000  C
  C35      1.0000 0.65470  0.58182  0.91490  Biso   1.000  C
  H29      1.0000 0.63010  0.61910  0.80200  Biso   1.000  H
  C36      1.0000 0.56797  0.47074  0.72140  Biso   1.000  C
  H30      1.0000 0.55660  0.41430  0.70960  Biso   1.000  H
  N11      1.0000 0.71108  0.61017  0.08000  Biso   1.000  N
  N12      1.0000 0.52871  0.52037  0.58020  Biso   1.000  N
  C37      1.0000 0.55612  0.75387  0.24190  Biso   1.000  C
  H31      1.0000 0.57550  0.71480  0.35870  Biso   1.000  H
  C38      1.0000 0.47353  0.77309  0.24280  Biso   1.000  C
  H32      1.0000 0.43760  0.74730  0.35750  Biso   1.000  H
  C39      1.0000 0.44419  0.83133  0.07100  Biso   1.000  C
  H33      1.0000 0.38820  0.84500  0.06760  Biso   1.000  H
  C40      1.0000 0.49912  0.86896  0.90400  Biso   1.000  C
  C41      1.0000 0.58182  0.84530  0.91490  Biso   1.000  C
  H34      1.0000 0.61910  0.86990  0.80200  Biso   1.000  H
  C42      1.0000 0.47074  0.93203  0.72140  Biso   1.000  C
  H35      1.0000 0.41430  0.94340  0.70960  Biso   1.000  H
  N13      1.0000 0.61017  0.78892  0.08000  Biso   1.000  N
  N14      1.0000 0.52037  0.97129  0.58020  Biso   1.000  N
  C43      1.0000 0.94388  0.74613  0.24190  Biso   1.000  C
  H36      1.0000 0.92450  0.78520  0.35870  Biso   1.000  H
  C44      1.0000 0.02647  0.72691  0.24280  Biso   1.000  C
  H37      1.0000 0.06240  0.75270  0.35750  Biso   1.000  H
  C45      1.0000 0.05581  0.66867  0.07100  Biso   1.000  C
  H38      1.0000 0.11180  0.65500  0.06760  Biso   1.000  H
  C46      1.0000 0.00088  0.63104  0.90400  Biso   1.000  C
  C47      1.0000 0.91818  0.65470  0.91490  Biso   1.000  C
  H39      1.0000 0.88090  0.63010  0.80200  Biso   1.000  H
  C48      1.0000 0.02926  0.56797  0.72140  Biso   1.000  C
  H40      1.0000 0.08570  0.55660  0.70960  Biso   1.000  H
  N15      1.0000 0.88983  0.71108  0.08000  Biso   1.000  N
  N16      1.0000 0.97963  0.52871  0.58020  Biso   1.000  N
  Cl1      1.0000 0.25000  0.25000  0.41877  Biso   1.000  Cl
  Cd1      1.0000 0.25000  0.25000  0.91827  Biso   1.000  Cd
  Cl2      1.0000 0.75000  0.75000  0.58123  Biso   1.000  Cl
  Cd2      1.0000 0.75000  0.75000  0.08173  Biso   1.000  Cd
