data_image0
_cell_length_a       17.669
_cell_length_b       8.537
_cell_length_c       10.252
_cell_angle_alpha    90
_cell_angle_beta     103.42
_cell_angle_gamma    90

_symmetry_space_group_name_H-M    "P 1"
_symmetry_int_tables_number       1

loop_
  _symmetry_equiv_pos_as_xyz
  'x, y, z'

loop_
  _atom_site_label
  _atom_site_occupancy
  _atom_site_fract_x
  _atom_site_fract_y
  _atom_site_fract_z
  _atom_site_thermal_displace_type
  _atom_site_B_iso_or_equiv
  _atom_site_type_symbol
  P1       1.0000 0.29060  0.60210  0.88520  Biso   1.000  P
  Al1      1.0000 0.32920  0.35060  0.68320  Biso   1.000  Al
  O1       1.0000 0.30180  0.44950  0.81210  Biso   1.000  O
  O2       1.0000 0.20610  0.65760  0.82220  Biso   1.000  O
  O3       1.0000 0.42930  0.34400  0.71590  Biso   1.000  O
  O4       1.0000 0.34860  0.72680  0.88170  Biso   1.000  O
  O5       1.0000 0.29050  0.55080  0.03160  Biso   1.000  O
  O6       1.0000 0.49510  0.13160  0.86800  Biso   1.000  O
  P2       1.0000 0.79060  0.10210  0.88520  Biso   1.000  P
  Al2      1.0000 0.82920  0.85060  0.68320  Biso   1.000  Al
  O7       1.0000 0.80180  0.94950  0.81210  Biso   1.000  O
  O8       1.0000 0.70610  0.15760  0.82220  Biso   1.000  O
  O9       1.0000 0.92930  0.84400  0.71590  Biso   1.000  O
  O10      1.0000 0.84860  0.22680  0.88170  Biso   1.000  O
  O11      1.0000 0.79050  0.05080  0.03160  Biso   1.000  O
  O12      1.0000 0.99510  0.63160  0.86800  Biso   1.000  O
  P3       1.0000 0.70940  0.60210  0.61480  Biso   1.000  P
  Al3      1.0000 0.67080  0.35060  0.81680  Biso   1.000  Al
  O13      1.0000 0.69820  0.44950  0.68790  Biso   1.000  O
  O14      1.0000 0.79390  0.65760  0.67780  Biso   1.000  O
  O15      1.0000 0.57070  0.34400  0.78410  Biso   1.000  O
  O16      1.0000 0.65140  0.72680  0.61830  Biso   1.000  O
  O17      1.0000 0.70950  0.55080  0.46840  Biso   1.000  O
  O18      1.0000 0.50490  0.13160  0.63200  Biso   1.000  O
  P4       1.0000 0.20940  0.10210  0.61480  Biso   1.000  P
  Al4      1.0000 0.17080  0.85060  0.81680  Biso   1.000  Al
  O19      1.0000 0.19820  0.94950  0.68790  Biso   1.000  O
  O20      1.0000 0.29390  0.15760  0.67780  Biso   1.000  O
  O21      1.0000 0.07070  0.84400  0.78410  Biso   1.000  O
  O22      1.0000 0.15140  0.22680  0.61830  Biso   1.000  O
  O23      1.0000 0.20950  0.05080  0.46840  Biso   1.000  O
  O24      1.0000 0.00490  0.63160  0.63200  Biso   1.000  O
  P5       1.0000 0.70940  0.39790  0.11480  Biso   1.000  P
  Al5      1.0000 0.67080  0.64940  0.31680  Biso   1.000  Al
  O25      1.0000 0.69820  0.55050  0.18790  Biso   1.000  O
  O26      1.0000 0.79390  0.34240  0.17780  Biso   1.000  O
  O27      1.0000 0.57070  0.65600  0.28410  Biso   1.000  O
  O28      1.0000 0.65140  0.27320  0.11830  Biso   1.000  O
  O29      1.0000 0.70950  0.44920  0.96840  Biso   1.000  O
  O30      1.0000 0.50490  0.86840  0.13200  Biso   1.000  O
  P6       1.0000 0.20940  0.89790  0.11480  Biso   1.000  P
  Al6      1.0000 0.17080  0.14940  0.31680  Biso   1.000  Al
  O31      1.0000 0.19820  0.05050  0.18790  Biso   1.000  O
  O32      1.0000 0.29390  0.84240  0.17780  Biso   1.000  O
  O33      1.0000 0.07070  0.15600  0.28410  Biso   1.000  O
  O34      1.0000 0.15140  0.77320  0.11830  Biso   1.000  O
  O35      1.0000 0.20950  0.94920  0.96840  Biso   1.000  O
  O36      1.0000 0.00490  0.36840  0.13200  Biso   1.000  O
  P7       1.0000 0.29060  0.39790  0.38520  Biso   1.000  P
  Al7      1.0000 0.32920  0.64940  0.18320  Biso   1.000  Al
  O37      1.0000 0.30180  0.55050  0.31210  Biso   1.000  O
  O38      1.0000 0.20610  0.34240  0.32220  Biso   1.000  O
  O39      1.0000 0.42930  0.65600  0.21590  Biso   1.000  O
  O40      1.0000 0.34860  0.27320  0.38170  Biso   1.000  O
  O41      1.0000 0.29050  0.44920  0.53160  Biso   1.000  O
  O42      1.0000 0.49510  0.86840  0.36800  Biso   1.000  O
  P8       1.0000 0.79060  0.89790  0.38520  Biso   1.000  P
  Al8      1.0000 0.82920  0.14940  0.18320  Biso   1.000  Al
  O43      1.0000 0.80180  0.05050  0.31210  Biso   1.000  O
  O44      1.0000 0.70610  0.84240  0.32220  Biso   1.000  O
  O45      1.0000 0.92930  0.15600  0.21590  Biso   1.000  O
  O46      1.0000 0.84860  0.77320  0.38170  Biso   1.000  O
  O47      1.0000 0.79050  0.94920  0.53160  Biso   1.000  O
  O48      1.0000 0.99510  0.36840  0.36800  Biso   1.000  O
  P9       1.0000 0.50000  0.23330  0.75000  Biso   1.000  P
  P10      1.0000 0.00000  0.73330  0.75000  Biso   1.000  P
  P11      1.0000 0.50000  0.76670  0.25000  Biso   1.000  P
  P12      1.0000 0.00000  0.26670  0.25000  Biso   1.000  P
