data_SICZOV_clean
_audit_creation_date              2014-07-02
_audit_creation_method            'Materials Studio'
_symmetry_space_group_name_H-M    'P1'
_symmetry_Int_Tables_number       1
_symmetry_cell_setting            triclinic
loop_
_symmetry_equiv_pos_as_xyz
  x,y,z
_cell_length_a                    23.4415
_cell_length_b                    23.4415
_cell_length_c                    23.4415
_cell_angle_alpha                 83.1196
_cell_angle_beta                  83.1196
_cell_angle_gamma                 83.1196
loop_
_atom_site_label
_atom_site_type_symbol
_atom_site_fract_x
_atom_site_fract_y
_atom_site_fract_z
_atom_site_U_iso_or_equiv
_atom_site_adp_type
_atom_site_occupancy
In1    In    0.64291   0.70585   0.77305   0.01267  Uiso   1.00
In2    In    0.22691   0.29411   0.35702   0.01267  Uiso   1.00
In3    In    0.77305   0.64291   0.70585   0.01267  Uiso   1.00
In4    In    0.35702   0.22691   0.29411   0.01267  Uiso   1.00
In5    In    0.70585   0.77305   0.64291   0.01267  Uiso   1.00
In6    In    0.29411   0.35702   0.22691   0.01267  Uiso   1.00
P1     P     0.64942   0.49501   0.09825   0.01267  Uiso   1.00
P2     P     0.09825   0.64942   0.49501   0.01267  Uiso   1.00
P3     P     0.49501   0.09825   0.64942   0.01267  Uiso   1.00
H1     H     0.70080   0.66840   0.94410   0.01267  Uiso   1.00
H2     H     0.82170   0.55660   0.87260   0.01267  Uiso   1.00
H3     H     0.72220   0.62030   0.03710   0.01267  Uiso   1.00
H4     H     0.84770   0.52030   0.96150   0.01267  Uiso   1.00
H5     H     0.87830   0.51610   0.04460   0.01267  Uiso   1.00
H6     H     0.95520   0.47050   0.11470   0.01267  Uiso   1.00
H7     H     0.80170   0.43130   0.25760   0.01267  Uiso   1.00
H8     H     0.89700   0.40930   0.27490   0.01267  Uiso   1.00
H9     H     0.79030   0.56010   0.23950   0.01267  Uiso   1.00
H10    H     0.96320   0.34030   0.26660   0.01267  Uiso   1.00
H11    H     0.02720   0.45440   0.14460   0.01267  Uiso   1.00
H12    H     0.60220   0.48610   0.33870   0.01267  Uiso   1.00
H13    H     0.65110   0.53230   0.39330   0.01267  Uiso   1.00
H14    H     0.79640   0.59730   0.32640   0.01267  Uiso   1.00
H15    H     0.05830   0.30610   0.28400   0.01267  Uiso   1.00
H16    H     0.11930   0.41680   0.16300   0.01267  Uiso   1.00
H17    H     0.59830   0.36520   0.31320   0.01267  Uiso   1.00
H18    H     0.54270   0.48190   0.18070   0.01267  Uiso   1.00
H19    H     0.52130   0.30750   0.31320   0.01267  Uiso   1.00
H20    H     0.45650   0.42370   0.18080   0.01267  Uiso   1.00
H21    H     0.76040   0.51080   0.46270   0.01267  Uiso   1.00
H22    H     0.72520   0.67630   0.38430   0.01267  Uiso   1.00
H23    H     0.76410   0.55330   0.55180   0.01267  Uiso   1.00
H24    H     0.72570   0.71540   0.47490   0.01267  Uiso   1.00
H25    H     0.94410   0.70080   0.66840   0.01267  Uiso   1.00
H26    H     0.87260   0.82170   0.55660   0.01267  Uiso   1.00
H27    H     0.03710   0.72220   0.62030   0.01267  Uiso   1.00
H28    H     0.96150   0.84770   0.52030   0.01267  Uiso   1.00
H29    H     0.04460   0.87830   0.51610   0.01267  Uiso   1.00
H30    H     0.11470   0.95520   0.47050   0.01267  Uiso   1.00
H31    H     0.25760   0.80170   0.43130   0.01267  Uiso   1.00
H32    H     0.27490   0.89700   0.40930   0.01267  Uiso   1.00
H33    H     0.23950   0.79030   0.56010   0.01267  Uiso   1.00
H34    H     0.26660   0.96320   0.34030   0.01267  Uiso   1.00
H35    H     0.14460   0.02720   0.45440   0.01267  Uiso   1.00
H36    H     0.33870   0.60220   0.48610   0.01267  Uiso   1.00
H37    H     0.39330   0.65110   0.53230   0.01267  Uiso   1.00
H38    H     0.32640   0.79640   0.59730   0.01267  Uiso   1.00
H39    H     0.28400   0.05830   0.30610   0.01267  Uiso   1.00
H40    H     0.16300   0.11930   0.41680   0.01267  Uiso   1.00
H41    H     0.31320   0.59830   0.36520   0.01267  Uiso   1.00
H42    H     0.18070   0.54270   0.48190   0.01267  Uiso   1.00
H43    H     0.31320   0.52130   0.30750   0.01267  Uiso   1.00
H44    H     0.18080   0.45650   0.42370   0.01267  Uiso   1.00
H45    H     0.46270   0.76040   0.51080   0.01267  Uiso   1.00
H46    H     0.38430   0.72520   0.67630   0.01267  Uiso   1.00
H47    H     0.55180   0.76410   0.55330   0.01267  Uiso   1.00
H48    H     0.47490   0.72570   0.71540   0.01267  Uiso   1.00
H49    H     0.66840   0.94410   0.70080   0.01267  Uiso   1.00
H50    H     0.55660   0.87260   0.82170   0.01267  Uiso   1.00
H51    H     0.62030   0.03710   0.72220   0.01267  Uiso   1.00
H52    H     0.52030   0.96150   0.84770   0.01267  Uiso   1.00
H53    H     0.51610   0.04460   0.87830   0.01267  Uiso   1.00
H54    H     0.47050   0.11470   0.95520   0.01267  Uiso   1.00
H55    H     0.43130   0.25760   0.80170   0.01267  Uiso   1.00
H56    H     0.40930   0.27490   0.89700   0.01267  Uiso   1.00
H57    H     0.56010   0.23950   0.79030   0.01267  Uiso   1.00
H58    H     0.34030   0.26660   0.96320   0.01267  Uiso   1.00
H59    H     0.45440   0.14460   0.02720   0.01267  Uiso   1.00
H60    H     0.48610   0.33870   0.60220   0.01267  Uiso   1.00
H61    H     0.53230   0.39330   0.65110   0.01267  Uiso   1.00
H62    H     0.59730   0.32640   0.79640   0.01267  Uiso   1.00
H63    H     0.30610   0.28400   0.05830   0.01267  Uiso   1.00
H64    H     0.41680   0.16300   0.11930   0.01267  Uiso   1.00
H65    H     0.36520   0.31320   0.59830   0.01267  Uiso   1.00
H66    H     0.48190   0.18070   0.54270   0.01267  Uiso   1.00
H67    H     0.30750   0.31320   0.52130   0.01267  Uiso   1.00
H68    H     0.42370   0.18080   0.45650   0.01267  Uiso   1.00
H69    H     0.51080   0.46270   0.76040   0.01267  Uiso   1.00
H70    H     0.67630   0.38430   0.72520   0.01267  Uiso   1.00
H71    H     0.55330   0.55180   0.76410   0.01267  Uiso   1.00
H72    H     0.71540   0.47490   0.72570   0.01267  Uiso   1.00
C1     C     0.74810   0.65020   0.84090   0.01267  Uiso   1.00
C2     C     0.76280   0.61600   0.90180   0.01267  Uiso   1.00
C3     C     0.72980   0.63660   0.94780   0.01267  Uiso   1.00
C4     C     0.80190   0.57150   0.90630   0.01267  Uiso   1.00
C5     C     0.74220   0.60670   0.00280   0.01267  Uiso   1.00
C6     C     0.81420   0.54730   0.95900   0.01267  Uiso   1.00
C7     C     0.78250   0.55860   0.00700   0.01267  Uiso   1.00
C8     C     0.79020   0.52710   0.06350   0.01267  Uiso   1.00
C9     C     0.84840   0.50890   0.07480   0.01267  Uiso   1.00
C10    C     0.75060   0.52170   0.11060   0.01267  Uiso   1.00
C11    C     0.86380   0.48120   0.12700   0.01267  Uiso   1.00
C12    C     0.75860   0.49680   0.16230   0.01267  Uiso   1.00
C13    C     0.81730   0.46960   0.17400   0.01267  Uiso   1.00
C14    C     0.92320   0.46050   0.14140   0.01267  Uiso   1.00
C15    C     0.71290   0.49410   0.21190   0.01267  Uiso   1.00
C16    C     0.83160   0.43990   0.22780   0.01267  Uiso   1.00
C17    C     0.93290   0.42730   0.19220   0.01267  Uiso   1.00
C18    C     0.71880   0.51800   0.26700   0.01267  Uiso   1.00
C19    C     0.66540   0.46940   0.20730   0.01267  Uiso   1.00
C20    C     0.88800   0.42360   0.23690   0.01267  Uiso   1.00
C21    C     0.99170   0.39930   0.20310   0.01267  Uiso   1.00
C22    C     0.67610   0.51510   0.30990   0.01267  Uiso   1.00
C23    C     0.76260   0.55250   0.27180   0.01267  Uiso   1.00
C24    C     0.62330   0.46160   0.25450   0.01267  Uiso   1.00
C25    C     0.99560   0.35660   0.24550   0.01267  Uiso   1.00
C26    C     0.03350   0.42340   0.17380   0.01267  Uiso   1.00
C27    C     0.63100   0.48850   0.30660   0.01267  Uiso   1.00
C28    C     0.68010   0.53750   0.36180   0.01267  Uiso   1.00
C29    C     0.76580   0.57540   0.32250   0.01267  Uiso   1.00
C30    C     0.57400   0.43090   0.25290   0.01267  Uiso   1.00
C31    C     0.05250   0.33840   0.25600   0.01267  Uiso   1.00
C32    C     0.08760   0.40190   0.18680   0.01267  Uiso   1.00
C33    C     0.72400   0.56580   0.36670   0.01267  Uiso   1.00
C34    C     0.56900   0.37850   0.28840   0.01267  Uiso   1.00
C35    C     0.53610   0.44970   0.20840   0.01267  Uiso   1.00
C36    C     0.09940   0.36170   0.23050   0.01267  Uiso   1.00
C37    C     0.73420   0.59000   0.41930   0.01267  Uiso   1.00
C38    C     0.52140   0.34330   0.28930   0.01267  Uiso   1.00
C39    C     0.48350   0.41390   0.20860   0.01267  Uiso   1.00
C40    C     0.15919   0.34903   0.25181   0.01267  Uiso   1.00
C41    C     0.75170   0.55110   0.46530   0.01267  Uiso   1.00
C42    C     0.72980   0.65150   0.41890   0.01267  Uiso   1.00
C43    C     0.47721   0.36131   0.25641   0.01267  Uiso   1.00
C44    C     0.75520   0.57810   0.51820   0.01267  Uiso   1.00
C45    C     0.73290   0.67480   0.47320   0.01267  Uiso   1.00
C46    C     0.42305   0.33465   0.25275   0.01267  Uiso   1.00
C47    C     0.74634   0.63854   0.52284   0.01267  Uiso   1.00
C48    C     0.74777   0.66257   0.57697   0.01267  Uiso   1.00
C49    C     0.84090   0.74810   0.65020   0.01267  Uiso   1.00
C50    C     0.90180   0.76280   0.61600   0.01267  Uiso   1.00
C51    C     0.94780   0.72980   0.63660   0.01267  Uiso   1.00
C52    C     0.90630   0.80190   0.57150   0.01267  Uiso   1.00
C53    C     0.00280   0.74220   0.60670   0.01267  Uiso   1.00
C54    C     0.95900   0.81420   0.54730   0.01267  Uiso   1.00
C55    C     0.00700   0.78250   0.55860   0.01267  Uiso   1.00
C56    C     0.06350   0.79020   0.52710   0.01267  Uiso   1.00
C57    C     0.07480   0.84840   0.50890   0.01267  Uiso   1.00
C58    C     0.11060   0.75060   0.52170   0.01267  Uiso   1.00
C59    C     0.12700   0.86380   0.48120   0.01267  Uiso   1.00
C60    C     0.16230   0.75860   0.49680   0.01267  Uiso   1.00
C61    C     0.17400   0.81730   0.46960   0.01267  Uiso   1.00
C62    C     0.14140   0.92320   0.46050   0.01267  Uiso   1.00
C63    C     0.21190   0.71290   0.49410   0.01267  Uiso   1.00
C64    C     0.22780   0.83160   0.43990   0.01267  Uiso   1.00
C65    C     0.19220   0.93290   0.42730   0.01267  Uiso   1.00
C66    C     0.26700   0.71880   0.51800   0.01267  Uiso   1.00
C67    C     0.20730   0.66540   0.46940   0.01267  Uiso   1.00
C68    C     0.23690   0.88800   0.42360   0.01267  Uiso   1.00
C69    C     0.20310   0.99170   0.39930   0.01267  Uiso   1.00
C70    C     0.30990   0.67610   0.51510   0.01267  Uiso   1.00
C71    C     0.27180   0.76260   0.55250   0.01267  Uiso   1.00
C72    C     0.25450   0.62330   0.46160   0.01267  Uiso   1.00
C73    C     0.24550   0.99560   0.35660   0.01267  Uiso   1.00
C74    C     0.17380   0.03350   0.42340   0.01267  Uiso   1.00
C75    C     0.30660   0.63100   0.48850   0.01267  Uiso   1.00
C76    C     0.36180   0.68010   0.53750   0.01267  Uiso   1.00
C77    C     0.32250   0.76580   0.57540   0.01267  Uiso   1.00
C78    C     0.25290   0.57400   0.43090   0.01267  Uiso   1.00
C79    C     0.25600   0.05250   0.33840   0.01267  Uiso   1.00
C80    C     0.18680   0.08760   0.40190   0.01267  Uiso   1.00
C81    C     0.36670   0.72400   0.56580   0.01267  Uiso   1.00
C82    C     0.28840   0.56900   0.37850   0.01267  Uiso   1.00
C83    C     0.20840   0.53610   0.44970   0.01267  Uiso   1.00
C84    C     0.23050   0.09940   0.36170   0.01267  Uiso   1.00
C85    C     0.41930   0.73420   0.59000   0.01267  Uiso   1.00
C86    C     0.28930   0.52140   0.34330   0.01267  Uiso   1.00
C87    C     0.20860   0.48350   0.41390   0.01267  Uiso   1.00
C88    C     0.25181   0.15919   0.34903   0.01267  Uiso   1.00
C89    C     0.46530   0.75170   0.55110   0.01267  Uiso   1.00
C90    C     0.41890   0.72980   0.65150   0.01267  Uiso   1.00
C91    C     0.25641   0.47721   0.36131   0.01267  Uiso   1.00
C92    C     0.51820   0.75520   0.57810   0.01267  Uiso   1.00
C93    C     0.47320   0.73290   0.67480   0.01267  Uiso   1.00
C94    C     0.25275   0.42305   0.33465   0.01267  Uiso   1.00
C95    C     0.52284   0.74634   0.63854   0.01267  Uiso   1.00
C96    C     0.57697   0.74777   0.66257   0.01267  Uiso   1.00
C97    C     0.65020   0.84090   0.74810   0.01267  Uiso   1.00
C98    C     0.61600   0.90180   0.76280   0.01267  Uiso   1.00
C99    C     0.63660   0.94780   0.72980   0.01267  Uiso   1.00
C100   C     0.57150   0.90630   0.80190   0.01267  Uiso   1.00
C101   C     0.60670   0.00280   0.74220   0.01267  Uiso   1.00
C102   C     0.54730   0.95900   0.81420   0.01267  Uiso   1.00
C103   C     0.55860   0.00700   0.78250   0.01267  Uiso   1.00
C104   C     0.52710   0.06350   0.79020   0.01267  Uiso   1.00
C105   C     0.50890   0.07480   0.84840   0.01267  Uiso   1.00
C106   C     0.52170   0.11060   0.75060   0.01267  Uiso   1.00
C107   C     0.48120   0.12700   0.86380   0.01267  Uiso   1.00
C108   C     0.49680   0.16230   0.75860   0.01267  Uiso   1.00
C109   C     0.46960   0.17400   0.81730   0.01267  Uiso   1.00
C110   C     0.46050   0.14140   0.92320   0.01267  Uiso   1.00
C111   C     0.49410   0.21190   0.71290   0.01267  Uiso   1.00
C112   C     0.43990   0.22780   0.83160   0.01267  Uiso   1.00
C113   C     0.42730   0.19220   0.93290   0.01267  Uiso   1.00
C114   C     0.51800   0.26700   0.71880   0.01267  Uiso   1.00
C115   C     0.46940   0.20730   0.66540   0.01267  Uiso   1.00
C116   C     0.42360   0.23690   0.88800   0.01267  Uiso   1.00
C117   C     0.39930   0.20310   0.99170   0.01267  Uiso   1.00
C118   C     0.51510   0.30990   0.67610   0.01267  Uiso   1.00
C119   C     0.55250   0.27180   0.76260   0.01267  Uiso   1.00
C120   C     0.46160   0.25450   0.62330   0.01267  Uiso   1.00
C121   C     0.35660   0.24550   0.99560   0.01267  Uiso   1.00
C122   C     0.42340   0.17380   0.03350   0.01267  Uiso   1.00
C123   C     0.48850   0.30660   0.63100   0.01267  Uiso   1.00
C124   C     0.53750   0.36180   0.68010   0.01267  Uiso   1.00
C125   C     0.57540   0.32250   0.76580   0.01267  Uiso   1.00
C126   C     0.43090   0.25290   0.57400   0.01267  Uiso   1.00
C127   C     0.33840   0.25600   0.05250   0.01267  Uiso   1.00
C128   C     0.40190   0.18680   0.08760   0.01267  Uiso   1.00
C129   C     0.56580   0.36670   0.72400   0.01267  Uiso   1.00
C130   C     0.37850   0.28840   0.56900   0.01267  Uiso   1.00
C131   C     0.44970   0.20840   0.53610   0.01267  Uiso   1.00
C132   C     0.36170   0.23050   0.09940   0.01267  Uiso   1.00
C133   C     0.59000   0.41930   0.73420   0.01267  Uiso   1.00
C134   C     0.34330   0.28930   0.52140   0.01267  Uiso   1.00
C135   C     0.41390   0.20860   0.48350   0.01267  Uiso   1.00
C136   C     0.34903   0.25181   0.15919   0.01267  Uiso   1.00
C137   C     0.55110   0.46530   0.75170   0.01267  Uiso   1.00
C138   C     0.65150   0.41890   0.72980   0.01267  Uiso   1.00
C139   C     0.36131   0.25641   0.47721   0.01267  Uiso   1.00
C140   C     0.57810   0.51820   0.75520   0.01267  Uiso   1.00
C141   C     0.67480   0.47320   0.73290   0.01267  Uiso   1.00
C142   C     0.33465   0.25275   0.42305   0.01267  Uiso   1.00
C143   C     0.63854   0.52284   0.74634   0.01267  Uiso   1.00
C144   C     0.66257   0.57697   0.74777   0.01267  Uiso   1.00
O1     O     0.70232   0.68259   0.83902   0.01267  Uiso   1.00
O2     O     0.77248   0.63636   0.61372   0.01267  Uiso   1.00
O3     O     0.72076   0.71362   0.57702   0.01267  Uiso   1.00
O4     O     0.78065   0.63505   0.79836   0.01267  Uiso   1.00
O5     O     0.69461   0.54141   0.10011   0.01267  Uiso   1.00
O6     O     0.66072   0.44892   0.15482   0.01267  Uiso   1.00
O7     O     0.59475   0.52705   0.10435   0.01267  Uiso   1.00
O8     O     0.66920   0.46260   0.05310   0.01267  Uiso   1.00
O9     O     0.16073   0.31714   0.29788   0.01267  Uiso   1.00
O10    O     0.20203   0.36536   0.21964   0.01267  Uiso   1.00
O11    O     0.42325   0.28609   0.27876   0.01267  Uiso   1.00
O12    O     0.38610   0.36293   0.22773   0.01267  Uiso   1.00
O13    O     0.83902   0.70232   0.68259   0.01267  Uiso   1.00
O14    O     0.61372   0.77248   0.63636   0.01267  Uiso   1.00
O15    O     0.57702   0.72076   0.71362   0.01267  Uiso   1.00
O16    O     0.79836   0.78065   0.63505   0.01267  Uiso   1.00
O17    O     0.10011   0.69461   0.54141   0.01267  Uiso   1.00
O18    O     0.15482   0.66072   0.44892   0.01267  Uiso   1.00
O19    O     0.10435   0.59475   0.52705   0.01267  Uiso   1.00
O20    O     0.05310   0.66920   0.46260   0.01267  Uiso   1.00
O21    O     0.29788   0.16073   0.31714   0.01267  Uiso   1.00
O22    O     0.21964   0.20203   0.36536   0.01267  Uiso   1.00
O23    O     0.27876   0.42325   0.28609   0.01267  Uiso   1.00
O24    O     0.22773   0.38610   0.36293   0.01267  Uiso   1.00
O25    O     0.68259   0.83902   0.70232   0.01267  Uiso   1.00
O26    O     0.63636   0.61372   0.77248   0.01267  Uiso   1.00
O27    O     0.71362   0.57702   0.72076   0.01267  Uiso   1.00
O28    O     0.63505   0.79836   0.78065   0.01267  Uiso   1.00
O29    O     0.54141   0.10011   0.69461   0.01267  Uiso   1.00
O30    O     0.44892   0.15482   0.66072   0.01267  Uiso   1.00
O31    O     0.52705   0.10435   0.59475   0.01267  Uiso   1.00
O32    O     0.46260   0.05310   0.66920   0.01267  Uiso   1.00
O33    O     0.31714   0.29788   0.16073   0.01267  Uiso   1.00
O34    O     0.36536   0.21964   0.20203   0.01267  Uiso   1.00
O35    O     0.28609   0.27876   0.42325   0.01267  Uiso   1.00
O36    O     0.36293   0.22773   0.38610   0.01267  Uiso   1.00
O37    O     0.70853   0.70853   0.70853   0.01267  Uiso   1.00
O38    O     0.29188   0.29188   0.29188   0.01267  Uiso   1.00
