data_image0
_cell_length_a       9.8523
_cell_length_b       19.5244
_cell_length_c       19.6699
_cell_angle_alpha    89.715
_cell_angle_beta     83.058
_cell_angle_gamma    87.776

_symmetry_space_group_name_H-M    "P 1"
_symmetry_int_tables_number       1

loop_
  _symmetry_equiv_pos_as_xyz
  'x, y, z'

loop_
  _atom_site_label
  _atom_site_occupancy
  _atom_site_fract_x
  _atom_site_fract_y
  _atom_site_fract_z
  _atom_site_thermal_displace_type
  _atom_site_B_iso_or_equiv
  _atom_site_type_symbol
  Cd1      1.0000 0.99924  0.15416  0.07684  Biso   1.000  Cd
  Cd2      1.0000 0.06366  0.57392  0.34431  Biso   1.000  Cd
  C1       1.0000 0.98390  0.22230  0.19600  Biso   1.000  C
  C2       1.0000 0.98570  0.25870  0.26380  Biso   1.000  C
  C3       1.0000 0.00550  0.32930  0.26630  Biso   1.000  C
  H1       1.0000 0.01590  0.35530  0.22630  Biso   1.000  H
  C4       1.0000 0.00940  0.35990  0.32990  Biso   1.000  C
  C5       1.0000 0.99710  0.32010  0.39020  Biso   1.000  C
  H2       1.0000 0.00010  0.34110  0.43240  Biso   1.000  H
  C6       1.0000 0.98070  0.25080  0.38740  Biso   1.000  C
  C7       1.0000 0.97070  0.22040  0.32370  Biso   1.000  C
  H3       1.0000 0.95380  0.17400  0.32160  Biso   1.000  H
  C8       1.0000 0.03340  0.43440  0.33260  Biso   1.000  C
  C9       1.0000 0.97440  0.20760  0.45240  Biso   1.000  C
  C10      1.0000 0.98400  0.13210  0.44260  Biso   1.000  C
  H4       1.0000 0.06640  0.11970  0.41340  Biso   1.000  H
  H5       1.0000 0.90630  0.11790  0.42180  Biso   1.000  H
  H6       1.0000 0.98510  0.10990  0.48620  Biso   1.000  H
  C11      1.0000 0.09200  0.22210  0.49160  Biso   1.000  C
  H7       1.0000 0.09180  0.27030  0.50120  Biso   1.000  H
  H8       1.0000 0.17660  0.20840  0.46480  Biso   1.000  H
  H9       1.0000 0.08290  0.19700  0.53390  Biso   1.000  H
  C12      1.0000 0.84600  0.22740  0.49700  Biso   1.000  C
  H10      1.0000 0.84070  0.27630  0.50300  Biso   1.000  H
  H11      1.0000 0.84670  0.20550  0.54080  Biso   1.000  H
  H12      1.0000 0.76890  0.21330  0.47600  Biso   1.000  H
  C13      1.0000 0.75240  0.08470  0.08370  Biso   1.000  C
  C14      1.0000 0.62610  0.04480  0.08940  Biso   1.000  C
  C15      1.0000 0.50000  0.07330  0.07890  Biso   1.000  C
  H13      1.0000 0.49210  0.11950  0.06760  Biso   1.000  H
  C16      1.0000 0.38720  0.03480  0.08490  Biso   1.000  C
  C17      1.0000 0.40130  0.96590  0.10350  Biso   1.000  C
  H14      1.0000 0.32410  0.93950  0.10620  Biso   1.000  H
  C18      1.0000 0.52070  0.93490  0.11790  Biso   1.000  C
  C19      1.0000 0.63750  0.97490  0.10820  Biso   1.000  C
  H15      1.0000 0.72270  0.95520  0.11410  Biso   1.000  H
  C20      1.0000 0.24880  0.06280  0.07360  Biso   1.000  C
  C21      1.0000 0.40700  0.83210  0.17030  Biso   1.000  C
  H16      1.0000 0.33530  0.84400  0.14280  Biso   1.000  H
  H17      1.0000 0.38390  0.85110  0.21540  Biso   1.000  H
  H18      1.0000 0.41700  0.78320  0.17340  Biso   1.000  H
  C22      1.0000 0.55800  0.81910  0.07190  Biso   1.000  C
  H19      1.0000 0.64160  0.83270  0.04600  Biso   1.000  H
  H20      1.0000 0.48310  0.82830  0.04580  Biso   1.000  H
  H21      1.0000 0.56450  0.77100  0.08180  Biso   1.000  H
  C23      1.0000 0.66800  0.83330  0.15830  Biso   1.000  C
  H22      1.0000 0.74110  0.85080  0.12680  Biso   1.000  H
  H23      1.0000 0.67250  0.78410  0.15650  Biso   1.000  H
  H24      1.0000 0.67830  0.84800  0.20380  Biso   1.000  H
  C24      1.0000 0.79480  0.58270  0.41200  Biso   1.000  C
  C25      1.0000 0.65710  0.58910  0.45340  Biso   1.000  C
  C26      1.0000 0.54050  0.57770  0.42400  Biso   1.000  C
  H25      1.0000 0.54700  0.56580  0.37800  Biso   1.000  H
  C27      1.0000 0.41210  0.58380  0.46280  Biso   1.000  C
  C28      1.0000 0.40480  0.60400  0.53240  Biso   1.000  C
  H26      1.0000 0.31970  0.60740  0.55860  Biso   1.000  H
  C29      1.0000 0.51860  0.61850  0.56210  Biso   1.000  C
  C30      1.0000 0.65110  0.60800  0.52140  Biso   1.000  C
  H27      1.0000 0.73120  0.61410  0.54090  Biso   1.000  H
  C31      1.0000 0.28020  0.57120  0.43550  Biso   1.000  C
  C32      1.0000 0.50200  0.64140  0.63790  Biso   1.000  C
  C33      1.0000 0.63300  0.64460  0.66840  Biso   1.000  C
  H28      1.0000 0.69320  0.60710  0.65150  Biso   1.000  H
  H29      1.0000 0.61450  0.64160  0.71740  Biso   1.000  H
  H30      1.0000 0.67490  0.68710  0.65600  Biso   1.000  H
  C34      1.0000 0.42200  0.58640  0.67730  Biso   1.000  C
  H31      1.0000 0.34150  0.57810  0.65630  Biso   1.000  H
  H32      1.0000 0.39680  0.60120  0.72370  Biso   1.000  H
  H33      1.0000 0.47810  0.54490  0.67700  Biso   1.000  H
  C35      1.0000 0.40000  0.69940  0.65130  Biso   1.000  C
  H34      1.0000 0.31460  0.68690  0.63740  Biso   1.000  H
  H35      1.0000 0.43250  0.73890  0.62580  Biso   1.000  H
  H36      1.0000 0.38820  0.71000  0.69930  Biso   1.000  H
  C36      1.0000 0.06680  0.69340  0.27400  Biso   1.000  C
  C37      1.0000 0.04860  0.75950  0.23810  Biso   1.000  C
  C38      1.0000 0.03410  0.81960  0.27570  Biso   1.000  C
  H37      1.0000 0.03080  0.81650  0.32300  Biso   1.000  H
  C39      1.0000 0.02420  0.88510  0.24640  Biso   1.000  C
  C40      1.0000 0.04250  0.76420  0.16800  Biso   1.000  C
  H38      1.0000 0.05080  0.72480  0.14110  Biso   1.000  H
  C41      1.0000 0.02410  0.82700  0.13880  Biso   1.000  C
  C42      1.0000 0.01610  0.88590  0.17500  Biso   1.000  C
  H39      1.0000 0.00520  0.92750  0.15270  Biso   1.000  H
  C43      1.0000 0.00760  0.83230  0.06250  Biso   1.000  C
  C44      1.0000 0.01110  0.95010  0.28840  Biso   1.000  C
  C45      1.0000 0.11900  0.00020  0.25930  Biso   1.000  C
  H40      1.0000 0.11600  0.00500  0.21090  Biso   1.000  H
  H41      1.0000 0.20770  0.98290  0.26760  Biso   1.000  H
  H42      1.0000 0.09980  0.04400  0.28100  Biso   1.000  H
  C46      1.0000 0.88900  0.99350  0.27790  Biso   1.000  C
  H43      1.0000 0.88490  0.99950  0.22970  Biso   1.000  H
  H44      1.0000 0.89490  0.03740  0.29890  Biso   1.000  H
  H45      1.0000 0.80830  0.97180  0.29820  Biso   1.000  H
  C47      1.0000 0.01200  0.94430  0.36010  Biso   1.000  C
  H46      1.0000 0.09190  0.91820  0.36950  Biso   1.000  H
  H47      1.0000 0.93150  0.92160  0.37960  Biso   1.000  H
  H48      1.0000 0.01210  0.98920  0.37970  Biso   1.000  H
  O1       1.0000 0.97210  0.16020  0.19650  Biso   1.000  O
  O2       1.0000 0.99700  0.25640  0.14110  Biso   1.000  O
  O3       1.0000 0.04800  0.45840  0.39230  Biso   1.000  O
  O4       1.0000 0.04550  0.47130  0.28120  Biso   1.000  O
  O5       1.0000 0.73910  0.14940  0.07470  Biso   1.000  O
  O6       1.0000 0.86910  0.05440  0.08850  Biso   1.000  O
  O7       1.0000 0.16160  0.01940  0.06490  Biso   1.000  O
  O8       1.0000 0.22470  0.12720  0.07280  Biso   1.000  O
  O9       1.0000 0.79850  0.57730  0.34980  Biso   1.000  O
  O10      1.0000 0.90070  0.58640  0.44360  Biso   1.000  O
  O11      1.0000 0.17980  0.56550  0.47850  Biso   1.000  O
  O12      1.0000 0.27610  0.56960  0.37040  Biso   1.000  O
  O13      1.0000 0.05990  0.63700  0.24090  Biso   1.000  O
  O14      1.0000 0.07390  0.69350  0.33680  Biso   1.000  O
  O15      1.0000 0.02170  0.77900  0.02570  Biso   1.000  O
  O16      1.0000 0.98260  0.89070  0.03770  Biso   1.000  O
  C48      1.0000 0.53420  0.85960  0.13910  Biso   1.000  C
  Cd3      1.0000 0.00076  0.84584  0.92316  Biso   1.000  Cd
  Cd4      1.0000 0.93634  0.42608  0.65569  Biso   1.000  Cd
  C49      1.0000 0.01610  0.77770  0.80400  Biso   1.000  C
  C50      1.0000 0.01430  0.74130  0.73620  Biso   1.000  C
  C51      1.0000 0.99450  0.67070  0.73370  Biso   1.000  C
  H49      1.0000 0.98410  0.64470  0.77370  Biso   1.000  H
  C52      1.0000 0.99060  0.64010  0.67010  Biso   1.000  C
  C53      1.0000 0.00290  0.67990  0.60980  Biso   1.000  C
  H50      1.0000 0.99990  0.65890  0.56760  Biso   1.000  H
  C54      1.0000 0.01930  0.74920  0.61260  Biso   1.000  C
  C55      1.0000 0.02930  0.77960  0.67630  Biso   1.000  C
  H51      1.0000 0.04620  0.82600  0.67840  Biso   1.000  H
  C56      1.0000 0.96660  0.56560  0.66740  Biso   1.000  C
  C57      1.0000 0.02560  0.79240  0.54760  Biso   1.000  C
  C58      1.0000 0.01600  0.86790  0.55740  Biso   1.000  C
  H52      1.0000 0.93360  0.88030  0.58660  Biso   1.000  H
  H53      1.0000 0.09370  0.88210  0.57820  Biso   1.000  H
  H54      1.0000 0.01490  0.89010  0.51380  Biso   1.000  H
  C59      1.0000 0.90800  0.77790  0.50840  Biso   1.000  C
  H55      1.0000 0.90820  0.72970  0.49880  Biso   1.000  H
  H56      1.0000 0.82340  0.79160  0.53520  Biso   1.000  H
  H57      1.0000 0.91710  0.80300  0.46610  Biso   1.000  H
  C60      1.0000 0.15400  0.77260  0.50300  Biso   1.000  C
  H58      1.0000 0.15930  0.72370  0.49700  Biso   1.000  H
  H59      1.0000 0.15330  0.79450  0.45920  Biso   1.000  H
  H60      1.0000 0.23110  0.78670  0.52400  Biso   1.000  H
  C61      1.0000 0.24760  0.91530  0.91630  Biso   1.000  C
  C62      1.0000 0.37390  0.95520  0.91060  Biso   1.000  C
  C63      1.0000 0.50000  0.92670  0.92110  Biso   1.000  C
  H61      1.0000 0.50790  0.88050  0.93240  Biso   1.000  H
  C64      1.0000 0.61280  0.96520  0.91510  Biso   1.000  C
  C65      1.0000 0.59870  0.03410  0.89650  Biso   1.000  C
  H62      1.0000 0.67590  0.06050  0.89380  Biso   1.000  H
  C66      1.0000 0.47930  0.06510  0.88210  Biso   1.000  C
  C67      1.0000 0.36250  0.02510  0.89180  Biso   1.000  C
  H63      1.0000 0.27730  0.04480  0.88590  Biso   1.000  H
  C68      1.0000 0.75120  0.93720  0.92640  Biso   1.000  C
  C69      1.0000 0.59300  0.16790  0.82970  Biso   1.000  C
  H64      1.0000 0.66470  0.15600  0.85720  Biso   1.000  H
  H65      1.0000 0.61610  0.14890  0.78460  Biso   1.000  H
  H66      1.0000 0.58300  0.21680  0.82660  Biso   1.000  H
  C70      1.0000 0.44200  0.18090  0.92810  Biso   1.000  C
  H67      1.0000 0.35840  0.16730  0.95400  Biso   1.000  H
  H68      1.0000 0.51690  0.17170  0.95420  Biso   1.000  H
  H69      1.0000 0.43550  0.22900  0.91820  Biso   1.000  H
  C71      1.0000 0.33200  0.16670  0.84170  Biso   1.000  C
  H70      1.0000 0.25890  0.14920  0.87320  Biso   1.000  H
  H71      1.0000 0.32750  0.21590  0.84350  Biso   1.000  H
  H72      1.0000 0.32170  0.15200  0.79620  Biso   1.000  H
  C72      1.0000 0.20520  0.41730  0.58800  Biso   1.000  C
  C73      1.0000 0.34290  0.41090  0.54660  Biso   1.000  C
  C74      1.0000 0.45950  0.42230  0.57600  Biso   1.000  C
  H73      1.0000 0.45300  0.43420  0.62200  Biso   1.000  H
  C75      1.0000 0.58790  0.41620  0.53720  Biso   1.000  C
  C76      1.0000 0.59520  0.39600  0.46760  Biso   1.000  C
  H74      1.0000 0.68030  0.39260  0.44140  Biso   1.000  H
  C77      1.0000 0.48140  0.38150  0.43790  Biso   1.000  C
  C78      1.0000 0.34890  0.39200  0.47860  Biso   1.000  C
  H75      1.0000 0.26880  0.38590  0.45910  Biso   1.000  H
  C79      1.0000 0.71980  0.42880  0.56450  Biso   1.000  C
  C80      1.0000 0.49800  0.35860  0.36210  Biso   1.000  C
  C81      1.0000 0.36700  0.35540  0.33160  Biso   1.000  C
  H76      1.0000 0.30680  0.39290  0.34850  Biso   1.000  H
  H77      1.0000 0.38550  0.35840  0.28260  Biso   1.000  H
  H78      1.0000 0.32510  0.31290  0.34400  Biso   1.000  H
  C82      1.0000 0.57800  0.41360  0.32270  Biso   1.000  C
  H79      1.0000 0.65850  0.42190  0.34370  Biso   1.000  H
  H80      1.0000 0.60320  0.39880  0.27630  Biso   1.000  H
  H81      1.0000 0.52190  0.45510  0.32300  Biso   1.000  H
  C83      1.0000 0.60000  0.30060  0.34870  Biso   1.000  C
  H82      1.0000 0.68540  0.31310  0.36260  Biso   1.000  H
  H83      1.0000 0.56750  0.26110  0.37420  Biso   1.000  H
  H84      1.0000 0.61180  0.29000  0.30070  Biso   1.000  H
  C84      1.0000 0.93320  0.30660  0.72600  Biso   1.000  C
  C85      1.0000 0.95140  0.24050  0.76190  Biso   1.000  C
  C86      1.0000 0.96590  0.18040  0.72430  Biso   1.000  C
  H85      1.0000 0.96920  0.18350  0.67700  Biso   1.000  H
  C87      1.0000 0.97580  0.11490  0.75360  Biso   1.000  C
  C88      1.0000 0.95750  0.23580  0.83200  Biso   1.000  C
  H86      1.0000 0.94920  0.27520  0.85890  Biso   1.000  H
  C89      1.0000 0.97590  0.17300  0.86120  Biso   1.000  C
  C90      1.0000 0.98390  0.11410  0.82500  Biso   1.000  C
  H87      1.0000 0.99480  0.07250  0.84730  Biso   1.000  H
  C91      1.0000 0.99240  0.16770  0.93750  Biso   1.000  C
  C92      1.0000 0.98890  0.04990  0.71160  Biso   1.000  C
  C93      1.0000 0.88100  0.99980  0.74070  Biso   1.000  C
  H88      1.0000 0.88400  0.99500  0.78910  Biso   1.000  H
  H89      1.0000 0.79230  0.01710  0.73240  Biso   1.000  H
  H90      1.0000 0.90020  0.95600  0.71900  Biso   1.000  H
  C94      1.0000 0.11100  0.00650  0.72210  Biso   1.000  C
  H91      1.0000 0.11510  0.00050  0.77030  Biso   1.000  H
  H92      1.0000 0.10510  0.96260  0.70110  Biso   1.000  H
  H93      1.0000 0.19170  0.02820  0.70180  Biso   1.000  H
  C95      1.0000 0.98800  0.05570  0.63990  Biso   1.000  C
  H94      1.0000 0.90810  0.08180  0.63050  Biso   1.000  H
  H95      1.0000 0.06850  0.07840  0.62040  Biso   1.000  H
  H96      1.0000 0.98790  0.01080  0.62030  Biso   1.000  H
  O17      1.0000 0.02790  0.83980  0.80350  Biso   1.000  O
  O18      1.0000 0.00300  0.74360  0.85890  Biso   1.000  O
  O19      1.0000 0.95200  0.54160  0.60770  Biso   1.000  O
  O20      1.0000 0.95450  0.52870  0.71880  Biso   1.000  O
  O21      1.0000 0.26090  0.85060  0.92530  Biso   1.000  O
  O22      1.0000 0.13090  0.94560  0.91150  Biso   1.000  O
  O23      1.0000 0.83840  0.98060  0.93510  Biso   1.000  O
  O24      1.0000 0.77530  0.87280  0.92720  Biso   1.000  O
  O25      1.0000 0.20150  0.42270  0.65020  Biso   1.000  O
  O26      1.0000 0.09930  0.41360  0.55640  Biso   1.000  O
  O27      1.0000 0.82020  0.43450  0.52150  Biso   1.000  O
  O28      1.0000 0.72390  0.43040  0.62960  Biso   1.000  O
  O29      1.0000 0.94010  0.36300  0.75910  Biso   1.000  O
  O30      1.0000 0.92610  0.30650  0.66320  Biso   1.000  O
  O31      1.0000 0.97830  0.22100  0.97430  Biso   1.000  O
  O32      1.0000 0.01740  0.10930  0.96230  Biso   1.000  O
  C96      1.0000 0.46580  0.14040  0.86090  Biso   1.000  C
  Cd5      1.0000 0.00000  0.00000  0.00000  Biso   1.000  Cd
  Cd6      1.0000 0.00000  0.50000  0.50000  Biso   1.000  Cd
