data_SIFVAG_clean
_audit_creation_date              2014-07-02
_audit_creation_method            'Materials Studio'
_symmetry_space_group_name_H-M    'P1'
_symmetry_Int_Tables_number       1
_symmetry_cell_setting            triclinic
loop_
_symmetry_equiv_pos_as_xyz
  x,y,z
_cell_length_a                    10.2882
_cell_length_b                    14.4724
_cell_length_c                    31.0300
_cell_angle_alpha                 90.0000
_cell_angle_beta                  91.9910
_cell_angle_gamma                 90.0000
loop_
_atom_site_label
_atom_site_type_symbol
_atom_site_fract_x
_atom_site_fract_y
_atom_site_fract_z
_atom_site_U_iso_or_equiv
_atom_site_adp_type
_atom_site_occupancy
Na1    Na    0.21560   0.46820   0.52409   0.01267  Uiso   1.00
Na2    Na    0.28860   0.70590   0.48229   0.01267  Uiso   1.00
Na3    Na    0.78440   0.96820   0.97591   0.01267  Uiso   1.00
Na4    Na    0.71140   0.20590   0.01771   0.01267  Uiso   1.00
Na5    Na    0.78440   0.53180   0.47591   0.01267  Uiso   1.00
Na6    Na    0.71140   0.29410   0.51771   0.01267  Uiso   1.00
Na7    Na    0.21560   0.03180   0.02409   0.01267  Uiso   1.00
Na8    Na    0.28860   0.79410   0.98229   0.01267  Uiso   1.00
Ag1    Ag    0.66491   0.85187   0.24147   0.01267  Uiso   1.00
Ag2    Ag    0.33509   0.35187   0.25853   0.01267  Uiso   1.00
Ag3    Ag    0.33509   0.14813   0.75853   0.01267  Uiso   1.00
Ag4    Ag    0.66491   0.64813   0.74147   0.01267  Uiso   1.00
H1     H     0.92020   0.14150   0.27990   0.01267  Uiso   1.00
H2     H     0.85710   0.08320   0.35100   0.01267  Uiso   1.00
H3     H     0.81150   0.73860   0.40630   0.01267  Uiso   1.00
H4     H     0.46970   0.87330   0.40610   0.01267  Uiso   1.00
H5     H     0.56490   0.05160   0.33330   0.01267  Uiso   1.00
H6     H     0.46490   0.12770   0.37910   0.01267  Uiso   1.00
H7     H     0.35720   0.05180   0.38300   0.01267  Uiso   1.00
H8     H     0.48660   0.04460   0.41100   0.01267  Uiso   1.00
H9     H     0.35010   0.02510   0.30900   0.01267  Uiso   1.00
H10    H     0.44790   0.95160   0.29200   0.01267  Uiso   1.00
H11    H     0.35780   0.92670   0.33010   0.01267  Uiso   1.00
H12    H     0.95310   0.87940   0.32450   0.01267  Uiso   1.00
H13    H     0.87230   0.72760   0.30530   0.01267  Uiso   1.00
H14    H     0.02460   0.73320   0.30800   0.01267  Uiso   1.00
H15    H     0.94930   0.68860   0.34580   0.01267  Uiso   1.00
H16    H     0.03980   0.79150   0.40240   0.01267  Uiso   1.00
H17    H     0.13060   0.83900   0.36950   0.01267  Uiso   1.00
H18    H     0.03730   0.89910   0.39680   0.01267  Uiso   1.00
H19    H     0.04390   0.97080   0.13820   0.01267  Uiso   1.00
H20    H     0.71140   0.11080   0.12000   0.01267  Uiso   1.00
H21    H     0.02690   0.95040   0.25150   0.01267  Uiso   1.00
H22    H     0.20760   0.00130   0.18980   0.01267  Uiso   1.00
H23    H     0.18590   0.04870   0.23440   0.01267  Uiso   1.00
H24    H     0.25370   0.95180   0.23260   0.01267  Uiso   1.00
H25    H     0.96490   0.81710   0.21690   0.01267  Uiso   1.00
H26    H     0.07470   0.82940   0.18350   0.01267  Uiso   1.00
H27    H     0.11150   0.80950   0.23210   0.01267  Uiso   1.00
H28    H     0.63240   0.11990   0.23230   0.01267  Uiso   1.00
H29    H     0.60850   0.23910   0.16030   0.01267  Uiso   1.00
H30    H     0.56440   0.26090   0.20710   0.01267  Uiso   1.00
H31    H     0.71280   0.25560   0.19750   0.01267  Uiso   1.00
H32    H     0.50080   0.08520   0.15330   0.01267  Uiso   1.00
H33    H     0.50930   0.01580   0.19210   0.01267  Uiso   1.00
H34    H     0.43270   0.10880   0.19640   0.01267  Uiso   1.00
H35    H     0.07980   0.64150   0.22010   0.01267  Uiso   1.00
H36    H     0.14290   0.58320   0.14900   0.01267  Uiso   1.00
H37    H     0.18850   0.23860   0.09370   0.01267  Uiso   1.00
H38    H     0.53030   0.37330   0.09390   0.01267  Uiso   1.00
H39    H     0.43510   0.55160   0.16670   0.01267  Uiso   1.00
H40    H     0.53510   0.62770   0.12090   0.01267  Uiso   1.00
H41    H     0.64280   0.55180   0.11700   0.01267  Uiso   1.00
H42    H     0.51340   0.54460   0.08900   0.01267  Uiso   1.00
H43    H     0.64990   0.52510   0.19100   0.01267  Uiso   1.00
H44    H     0.55210   0.45160   0.20800   0.01267  Uiso   1.00
H45    H     0.64220   0.42670   0.16990   0.01267  Uiso   1.00
H46    H     0.04690   0.37940   0.17550   0.01267  Uiso   1.00
H47    H     0.12770   0.22760   0.19470   0.01267  Uiso   1.00
H48    H     0.97540   0.23320   0.19200   0.01267  Uiso   1.00
H49    H     0.05070   0.18860   0.15420   0.01267  Uiso   1.00
H50    H     0.96020   0.29150   0.09760   0.01267  Uiso   1.00
H51    H     0.86940   0.33900   0.13050   0.01267  Uiso   1.00
H52    H     0.96270   0.39910   0.10320   0.01267  Uiso   1.00
H53    H     0.95610   0.47080   0.36180   0.01267  Uiso   1.00
H54    H     0.28860   0.61080   0.38000   0.01267  Uiso   1.00
H55    H     0.97310   0.45040   0.24850   0.01267  Uiso   1.00
H56    H     0.79240   0.50130   0.31020   0.01267  Uiso   1.00
H57    H     0.81410   0.54870   0.26560   0.01267  Uiso   1.00
H58    H     0.74630   0.45180   0.26740   0.01267  Uiso   1.00
H59    H     0.03510   0.31710   0.28310   0.01267  Uiso   1.00
H60    H     0.92530   0.32940   0.31650   0.01267  Uiso   1.00
H61    H     0.88850   0.30950   0.26790   0.01267  Uiso   1.00
H62    H     0.36760   0.61990   0.26770   0.01267  Uiso   1.00
H63    H     0.39150   0.73910   0.33970   0.01267  Uiso   1.00
H64    H     0.43560   0.76090   0.29290   0.01267  Uiso   1.00
H65    H     0.28720   0.75560   0.30250   0.01267  Uiso   1.00
H66    H     0.49920   0.58520   0.34670   0.01267  Uiso   1.00
H67    H     0.49070   0.51580   0.30790   0.01267  Uiso   1.00
H68    H     0.56730   0.60880   0.30360   0.01267  Uiso   1.00
H69    H     0.07980   0.85850   0.72010   0.01267  Uiso   1.00
H70    H     0.14290   0.91680   0.64900   0.01267  Uiso   1.00
H71    H     0.18850   0.26140   0.59370   0.01267  Uiso   1.00
H72    H     0.53030   0.12670   0.59390   0.01267  Uiso   1.00
H73    H     0.43510   0.94840   0.66670   0.01267  Uiso   1.00
H74    H     0.53510   0.87230   0.62090   0.01267  Uiso   1.00
H75    H     0.64280   0.94820   0.61700   0.01267  Uiso   1.00
H76    H     0.51340   0.95540   0.58900   0.01267  Uiso   1.00
H77    H     0.64990   0.97490   0.69100   0.01267  Uiso   1.00
H78    H     0.55210   0.04840   0.70800   0.01267  Uiso   1.00
H79    H     0.64220   0.07330   0.66990   0.01267  Uiso   1.00
H80    H     0.04690   0.12060   0.67550   0.01267  Uiso   1.00
H81    H     0.12770   0.27240   0.69470   0.01267  Uiso   1.00
H82    H     0.97540   0.26680   0.69200   0.01267  Uiso   1.00
H83    H     0.05070   0.31140   0.65420   0.01267  Uiso   1.00
H84    H     0.96020   0.20850   0.59760   0.01267  Uiso   1.00
H85    H     0.86940   0.16100   0.63050   0.01267  Uiso   1.00
H86    H     0.96270   0.10090   0.60320   0.01267  Uiso   1.00
H87    H     0.95610   0.02920   0.86180   0.01267  Uiso   1.00
H88    H     0.28860   0.88920   0.88000   0.01267  Uiso   1.00
H89    H     0.97310   0.04960   0.74850   0.01267  Uiso   1.00
H90    H     0.79240   0.99870   0.81020   0.01267  Uiso   1.00
H91    H     0.81410   0.95130   0.76560   0.01267  Uiso   1.00
H92    H     0.74630   0.04820   0.76740   0.01267  Uiso   1.00
H93    H     0.03510   0.18290   0.78310   0.01267  Uiso   1.00
H94    H     0.92530   0.17060   0.81650   0.01267  Uiso   1.00
H95    H     0.88850   0.19050   0.76790   0.01267  Uiso   1.00
H96    H     0.36760   0.88010   0.76770   0.01267  Uiso   1.00
H97    H     0.39150   0.76090   0.83970   0.01267  Uiso   1.00
H98    H     0.43560   0.73910   0.79290   0.01267  Uiso   1.00
H99    H     0.28720   0.74440   0.80250   0.01267  Uiso   1.00
H100   H     0.49920   0.91480   0.84670   0.01267  Uiso   1.00
H101   H     0.49070   0.98420   0.80790   0.01267  Uiso   1.00
H102   H     0.56730   0.89120   0.80360   0.01267  Uiso   1.00
H103   H     0.92020   0.35850   0.77990   0.01267  Uiso   1.00
H104   H     0.85710   0.41680   0.85100   0.01267  Uiso   1.00
H105   H     0.81150   0.76140   0.90630   0.01267  Uiso   1.00
H106   H     0.46970   0.62670   0.90610   0.01267  Uiso   1.00
H107   H     0.56490   0.44840   0.83330   0.01267  Uiso   1.00
H108   H     0.46490   0.37230   0.87910   0.01267  Uiso   1.00
H109   H     0.35720   0.44820   0.88300   0.01267  Uiso   1.00
H110   H     0.48660   0.45540   0.91100   0.01267  Uiso   1.00
H111   H     0.35010   0.47490   0.80900   0.01267  Uiso   1.00
H112   H     0.44790   0.54840   0.79200   0.01267  Uiso   1.00
H113   H     0.35780   0.57330   0.83010   0.01267  Uiso   1.00
H114   H     0.95310   0.62060   0.82450   0.01267  Uiso   1.00
H115   H     0.87230   0.77240   0.80530   0.01267  Uiso   1.00
H116   H     0.02460   0.76680   0.80800   0.01267  Uiso   1.00
H117   H     0.94930   0.81140   0.84580   0.01267  Uiso   1.00
H118   H     0.03980   0.70850   0.90240   0.01267  Uiso   1.00
H119   H     0.13060   0.66100   0.86950   0.01267  Uiso   1.00
H120   H     0.03730   0.60090   0.89680   0.01267  Uiso   1.00
H121   H     0.04390   0.52920   0.63820   0.01267  Uiso   1.00
H122   H     0.71140   0.38920   0.62000   0.01267  Uiso   1.00
H123   H     0.02690   0.54960   0.75150   0.01267  Uiso   1.00
H124   H     0.20760   0.49870   0.68980   0.01267  Uiso   1.00
H125   H     0.18590   0.45130   0.73440   0.01267  Uiso   1.00
H126   H     0.25370   0.54820   0.73260   0.01267  Uiso   1.00
H127   H     0.96490   0.68290   0.71690   0.01267  Uiso   1.00
H128   H     0.07470   0.67060   0.68350   0.01267  Uiso   1.00
H129   H     0.11150   0.69050   0.73210   0.01267  Uiso   1.00
H130   H     0.63240   0.38010   0.73230   0.01267  Uiso   1.00
H131   H     0.60850   0.26090   0.66030   0.01267  Uiso   1.00
H132   H     0.56440   0.23910   0.70710   0.01267  Uiso   1.00
H133   H     0.71280   0.24440   0.69750   0.01267  Uiso   1.00
H134   H     0.50080   0.41480   0.65330   0.01267  Uiso   1.00
H135   H     0.50930   0.48420   0.69210   0.01267  Uiso   1.00
H136   H     0.43270   0.39120   0.69640   0.01267  Uiso   1.00
C1     C     0.75710   0.95880   0.27400   0.01267  Uiso   1.00
C2     C     0.87180   0.08860   0.28530   0.01267  Uiso   1.00
C3     C     0.83700   0.05680   0.32430   0.01267  Uiso   1.00
C4     C     0.71930   0.91660   0.34910   0.01267  Uiso   1.00
C5     C     0.80350   0.84570   0.36360   0.01267  Uiso   1.00
C6     C     0.75870   0.78600   0.39550   0.01267  Uiso   1.00
C7     C     0.63600   0.79840   0.41070   0.01267  Uiso   1.00
C8     C     0.55310   0.86820   0.39560   0.01267  Uiso   1.00
C9     C     0.59510   0.93010   0.36490   0.01267  Uiso   1.00
C10    C     0.50920   0.00910   0.34890   0.01267  Uiso   1.00
C11    C     0.44920   0.06300   0.38360   0.01267  Uiso   1.00
C12    C     0.40710   0.97510   0.31720   0.01267  Uiso   1.00
C13    C     0.93880   0.83180   0.34630   0.01267  Uiso   1.00
C14    C     0.94700   0.73620   0.32430   0.01267  Uiso   1.00
C15    C     0.04700   0.84130   0.38220   0.01267  Uiso   1.00
C16    C     0.84240   0.03530   0.20930   0.01267  Uiso   1.00
C17    C     0.95390   0.99310   0.19380   0.01267  Uiso   1.00
C18    C     0.97100   0.99790   0.14980   0.01267  Uiso   1.00
C19    C     0.88120   0.04260   0.12270   0.01267  Uiso   1.00
C20    C     0.77130   0.08200   0.13860   0.01267  Uiso   1.00
C21    C     0.74900   0.07900   0.18320   0.01267  Uiso   1.00
C22    C     0.05400   0.94290   0.22170   0.01267  Uiso   1.00
C23    C     0.18800   0.99070   0.21940   0.01267  Uiso   1.00
C24    C     0.05100   0.84040   0.21270   0.01267  Uiso   1.00
C25    C     0.62840   0.12660   0.20090   0.01267  Uiso   1.00
C26    C     0.62860   0.23030   0.19050   0.01267  Uiso   1.00
C27    C     0.50690   0.07990   0.18420   0.01267  Uiso   1.00
C28    C     0.36900   0.71700   0.60180   0.01267  Uiso   1.00
C29    C     0.53750   0.58720   0.58240   0.01267  Uiso   1.00
C30    C     0.24290   0.45880   0.22600   0.01267  Uiso   1.00
C31    C     0.12820   0.58860   0.21470   0.01267  Uiso   1.00
C32    C     0.16300   0.55680   0.17570   0.01267  Uiso   1.00
C33    C     0.28070   0.41660   0.15090   0.01267  Uiso   1.00
C34    C     0.19650   0.34570   0.13640   0.01267  Uiso   1.00
C35    C     0.24130   0.28600   0.10450   0.01267  Uiso   1.00
C36    C     0.36400   0.29840   0.08930   0.01267  Uiso   1.00
C37    C     0.44690   0.36820   0.10440   0.01267  Uiso   1.00
C38    C     0.40490   0.43010   0.13510   0.01267  Uiso   1.00
C39    C     0.49080   0.50910   0.15110   0.01267  Uiso   1.00
C40    C     0.55080   0.56300   0.11640   0.01267  Uiso   1.00
C41    C     0.59290   0.47510   0.18280   0.01267  Uiso   1.00
C42    C     0.06120   0.33180   0.15370   0.01267  Uiso   1.00
C43    C     0.05300   0.23620   0.17570   0.01267  Uiso   1.00
C44    C     0.95300   0.34130   0.11780   0.01267  Uiso   1.00
C45    C     0.15760   0.53530   0.29070   0.01267  Uiso   1.00
C46    C     0.04610   0.49310   0.30620   0.01267  Uiso   1.00
C47    C     0.02900   0.49790   0.35020   0.01267  Uiso   1.00
C48    C     0.11880   0.54260   0.37730   0.01267  Uiso   1.00
C49    C     0.22870   0.58200   0.36140   0.01267  Uiso   1.00
C50    C     0.25100   0.57900   0.31680   0.01267  Uiso   1.00
C51    C     0.94600   0.44290   0.27830   0.01267  Uiso   1.00
C52    C     0.81200   0.49070   0.28060   0.01267  Uiso   1.00
C53    C     0.94900   0.34040   0.28730   0.01267  Uiso   1.00
C54    C     0.37160   0.62660   0.29910   0.01267  Uiso   1.00
C55    C     0.37140   0.73030   0.30950   0.01267  Uiso   1.00
C56    C     0.49310   0.57990   0.31580   0.01267  Uiso   1.00
C57    C     0.63100   0.21700   0.89820   0.01267  Uiso   1.00
C58    C     0.46250   0.08720   0.91760   0.01267  Uiso   1.00
C59    C     0.24290   0.04120   0.72600   0.01267  Uiso   1.00
C60    C     0.12820   0.91140   0.71470   0.01267  Uiso   1.00
C61    C     0.16300   0.94320   0.67570   0.01267  Uiso   1.00
C62    C     0.28070   0.08340   0.65090   0.01267  Uiso   1.00
C63    C     0.19650   0.15430   0.63640   0.01267  Uiso   1.00
C64    C     0.24130   0.21400   0.60450   0.01267  Uiso   1.00
C65    C     0.36400   0.20160   0.58930   0.01267  Uiso   1.00
C66    C     0.44690   0.13180   0.60440   0.01267  Uiso   1.00
C67    C     0.40490   0.06990   0.63510   0.01267  Uiso   1.00
C68    C     0.49080   0.99090   0.65110   0.01267  Uiso   1.00
C69    C     0.55080   0.93700   0.61640   0.01267  Uiso   1.00
C70    C     0.59290   0.02490   0.68280   0.01267  Uiso   1.00
C71    C     0.06120   0.16820   0.65370   0.01267  Uiso   1.00
C72    C     0.05300   0.26380   0.67570   0.01267  Uiso   1.00
C73    C     0.95300   0.15870   0.61780   0.01267  Uiso   1.00
C74    C     0.15760   0.96470   0.79070   0.01267  Uiso   1.00
C75    C     0.04610   0.00690   0.80620   0.01267  Uiso   1.00
C76    C     0.02900   0.00210   0.85020   0.01267  Uiso   1.00
C77    C     0.11880   0.95740   0.87730   0.01267  Uiso   1.00
C78    C     0.22870   0.91800   0.86140   0.01267  Uiso   1.00
C79    C     0.25100   0.92100   0.81680   0.01267  Uiso   1.00
C80    C     0.94600   0.05710   0.77830   0.01267  Uiso   1.00
C81    C     0.81200   0.00930   0.78060   0.01267  Uiso   1.00
C82    C     0.94900   0.15960   0.78730   0.01267  Uiso   1.00
C83    C     0.37160   0.87340   0.79910   0.01267  Uiso   1.00
C84    C     0.37140   0.76970   0.80950   0.01267  Uiso   1.00
C85    C     0.49310   0.92010   0.81580   0.01267  Uiso   1.00
C86    C     0.63100   0.28300   0.39820   0.01267  Uiso   1.00
C87    C     0.46250   0.41280   0.41760   0.01267  Uiso   1.00
C88    C     0.75710   0.54120   0.77400   0.01267  Uiso   1.00
C89    C     0.87180   0.41140   0.78530   0.01267  Uiso   1.00
C90    C     0.83700   0.44320   0.82430   0.01267  Uiso   1.00
C91    C     0.71930   0.58340   0.84910   0.01267  Uiso   1.00
C92    C     0.80350   0.65430   0.86360   0.01267  Uiso   1.00
C93    C     0.75870   0.71400   0.89550   0.01267  Uiso   1.00
C94    C     0.63600   0.70160   0.91070   0.01267  Uiso   1.00
C95    C     0.55310   0.63180   0.89560   0.01267  Uiso   1.00
C96    C     0.59510   0.56990   0.86490   0.01267  Uiso   1.00
C97    C     0.50920   0.49090   0.84890   0.01267  Uiso   1.00
C98    C     0.44920   0.43700   0.88360   0.01267  Uiso   1.00
C99    C     0.40710   0.52490   0.81720   0.01267  Uiso   1.00
C100   C     0.93880   0.66820   0.84630   0.01267  Uiso   1.00
C101   C     0.94700   0.76380   0.82430   0.01267  Uiso   1.00
C102   C     0.04700   0.65870   0.88220   0.01267  Uiso   1.00
C103   C     0.84240   0.46470   0.70930   0.01267  Uiso   1.00
C104   C     0.95390   0.50690   0.69380   0.01267  Uiso   1.00
C105   C     0.97100   0.50210   0.64980   0.01267  Uiso   1.00
C106   C     0.88120   0.45740   0.62270   0.01267  Uiso   1.00
C107   C     0.77130   0.41800   0.63860   0.01267  Uiso   1.00
C108   C     0.74900   0.42100   0.68320   0.01267  Uiso   1.00
C109   C     0.05400   0.55710   0.72170   0.01267  Uiso   1.00
C110   C     0.18800   0.50930   0.71940   0.01267  Uiso   1.00
C111   C     0.05100   0.65960   0.71270   0.01267  Uiso   1.00
C112   C     0.62840   0.37340   0.70090   0.01267  Uiso   1.00
C113   C     0.62860   0.26970   0.69050   0.01267  Uiso   1.00
C114   C     0.50690   0.42010   0.68420   0.01267  Uiso   1.00
C115   C     0.36900   0.78300   0.10180   0.01267  Uiso   1.00
C116   C     0.53750   0.91280   0.08240   0.01267  Uiso   1.00
S1     S     0.57670   0.72092   0.45097   0.01267  Uiso   1.00
S2     S     0.91138   0.05164   0.06688   0.01267  Uiso   1.00
S3     S     0.36990   0.60430   0.58821   0.01267  Uiso   1.00
S4     S     0.42330   0.22092   0.04903   0.01267  Uiso   1.00
S5     S     0.08862   0.55164   0.43312   0.01267  Uiso   1.00
S6     S     0.63010   0.10430   0.91179   0.01267  Uiso   1.00
S7     S     0.42330   0.27908   0.54903   0.01267  Uiso   1.00
S8     S     0.08862   0.94836   0.93312   0.01267  Uiso   1.00
S9     S     0.63010   0.39570   0.41179   0.01267  Uiso   1.00
S10    S     0.57670   0.77908   0.95097   0.01267  Uiso   1.00
S11    S     0.91138   0.44836   0.56688   0.01267  Uiso   1.00
S12    S     0.36990   0.89570   0.08821   0.01267  Uiso   1.00
N1     N     0.76650   0.97810   0.31651   0.01267  Uiso   1.00
N2     N     0.82240   0.02860   0.25556   0.01267  Uiso   1.00
N3     N     0.23350   0.47810   0.18349   0.01267  Uiso   1.00
N4     N     0.17760   0.52860   0.24444   0.01267  Uiso   1.00
N5     N     0.23350   0.02190   0.68349   0.01267  Uiso   1.00
N6     N     0.17760   0.97140   0.74444   0.01267  Uiso   1.00
N7     N     0.76650   0.52190   0.81651   0.01267  Uiso   1.00
N8     N     0.82240   0.47140   0.75556   0.01267  Uiso   1.00
Cl1    Cl    0.56170   0.73810   0.20157   0.01267  Uiso   1.00
Cl2    Cl    0.43830   0.23810   0.29843   0.01267  Uiso   1.00
Cl3    Cl    0.43830   0.26190   0.79843   0.01267  Uiso   1.00
Cl4    Cl    0.56170   0.76190   0.70157   0.01267  Uiso   1.00
O1     O     0.66920   0.65290   0.45770   0.01267  Uiso   1.00
O2     O     0.55480   0.77510   0.48850   0.01267  Uiso   1.00
O3     O     0.45480   0.68600   0.43430   0.01267  Uiso   1.00
O4     O     0.04040   0.02610   0.06230   0.01267  Uiso   1.00
O5     O     0.81900   0.99270   0.04600   0.01267  Uiso   1.00
O6     O     0.88820   0.14330   0.05510   0.01267  Uiso   1.00
O7     O     0.31800   0.60740   0.54150   0.01267  Uiso   1.00
O8     O     0.33080   0.15290   0.04230   0.01267  Uiso   1.00
O9     O     0.44520   0.27510   0.01150   0.01267  Uiso   1.00
O10    O     0.54520   0.18600   0.06570   0.01267  Uiso   1.00
O11    O     0.95960   0.52610   0.43770   0.01267  Uiso   1.00
O12    O     0.18100   0.49270   0.45400   0.01267  Uiso   1.00
O13    O     0.11180   0.64330   0.44490   0.01267  Uiso   1.00
O14    O     0.68200   0.10740   0.95850   0.01267  Uiso   1.00
O15    O     0.33080   0.34710   0.54230   0.01267  Uiso   1.00
O16    O     0.44520   0.22490   0.51150   0.01267  Uiso   1.00
O17    O     0.54520   0.31400   0.56570   0.01267  Uiso   1.00
O18    O     0.95960   0.97390   0.93770   0.01267  Uiso   1.00
O19    O     0.18100   0.00730   0.95400   0.01267  Uiso   1.00
O20    O     0.11180   0.85670   0.94490   0.01267  Uiso   1.00
O21    O     0.68200   0.39260   0.45850   0.01267  Uiso   1.00
O22    O     0.66920   0.84710   0.95770   0.01267  Uiso   1.00
O23    O     0.55480   0.72490   0.98850   0.01267  Uiso   1.00
O24    O     0.45480   0.81400   0.93430   0.01267  Uiso   1.00
O25    O     0.04040   0.47390   0.56230   0.01267  Uiso   1.00
O26    O     0.81900   0.50730   0.54600   0.01267  Uiso   1.00
O27    O     0.88820   0.35670   0.55510   0.01267  Uiso   1.00
O28    O     0.31800   0.89260   0.04150   0.01267  Uiso   1.00
