data_image0
_cell_length_a       13.5494
_cell_length_b       13.5494
_cell_length_c       15.2795
_cell_angle_alpha    90
_cell_angle_beta     90
_cell_angle_gamma    120

_symmetry_space_group_name_H-M    "P 1"
_symmetry_int_tables_number       1

loop_
  _symmetry_equiv_pos_as_xyz
  'x, y, z'

loop_
  _atom_site_label
  _atom_site_occupancy
  _atom_site_fract_x
  _atom_site_fract_y
  _atom_site_fract_z
  _atom_site_thermal_displace_type
  _atom_site_B_iso_or_equiv
  _atom_site_type_symbol
  Al1      1.0000 0.09730  0.66210  0.06950  Biso   1.000  Al
  P1       1.0000 0.32830  0.89790  0.06300  Biso   1.000  P
  O1       1.0000 0.21600  0.78960  0.04360  Biso   1.000  O
  O2       1.0000 0.12590  0.55280  0.05200  Biso   1.000  O
  O3       1.0000 0.98980  0.64960  0.00190  Biso   1.000  O
  O4       1.0000 0.05390  0.66070  0.17730  Biso   1.000  O
  Al2      1.0000 0.76397  0.99543  0.40283  Biso   1.000  Al
  P2       1.0000 0.99497  0.23123  0.39633  Biso   1.000  P
  O5       1.0000 0.88267  0.12293  0.37693  Biso   1.000  O
  O6       1.0000 0.79257  0.88613  0.38533  Biso   1.000  O
  O7       1.0000 0.65647  0.98293  0.33523  Biso   1.000  O
  O8       1.0000 0.72057  0.99403  0.51063  Biso   1.000  O
  Al3      1.0000 0.43063  0.32877  0.73617  Biso   1.000  Al
  P3       1.0000 0.66163  0.56457  0.72967  Biso   1.000  P
  O9       1.0000 0.54933  0.45627  0.71027  Biso   1.000  O
  O10      1.0000 0.45923  0.21947  0.71867  Biso   1.000  O
  O11      1.0000 0.32313  0.31627  0.66857  Biso   1.000  O
  O12      1.0000 0.38723  0.32737  0.84397  Biso   1.000  O
  Al4      1.0000 0.33790  0.43520  0.06950  Biso   1.000  Al
  P4       1.0000 0.10210  0.43040  0.06300  Biso   1.000  P
  O13      1.0000 0.21040  0.42640  0.04360  Biso   1.000  O
  O14      1.0000 0.44720  0.57310  0.05200  Biso   1.000  O
  O15      1.0000 0.35040  0.34020  0.00190  Biso   1.000  O
  O16      1.0000 0.33930  0.39320  0.17730  Biso   1.000  O
  Al5      1.0000 0.00457  0.76853  0.40283  Biso   1.000  Al
  P5       1.0000 0.76877  0.76373  0.39633  Biso   1.000  P
  O17      1.0000 0.87707  0.75973  0.37693  Biso   1.000  O
  O18      1.0000 0.11387  0.90643  0.38533  Biso   1.000  O
  O19      1.0000 0.01707  0.67353  0.33523  Biso   1.000  O
  O20      1.0000 0.00597  0.72653  0.51063  Biso   1.000  O
  Al6      1.0000 0.67123  0.10187  0.73617  Biso   1.000  Al
  P6       1.0000 0.43543  0.09707  0.72967  Biso   1.000  P
  O21      1.0000 0.54373  0.09307  0.71027  Biso   1.000  O
  O22      1.0000 0.78053  0.23977  0.71867  Biso   1.000  O
  O23      1.0000 0.68373  0.00687  0.66857  Biso   1.000  O
  O24      1.0000 0.67263  0.05987  0.84397  Biso   1.000  O
  Al7      1.0000 0.56480  0.90270  0.06950  Biso   1.000  Al
  P7       1.0000 0.56960  0.67170  0.06300  Biso   1.000  P
  O25      1.0000 0.57360  0.78400  0.04360  Biso   1.000  O
  O26      1.0000 0.42690  0.87410  0.05200  Biso   1.000  O
  O27      1.0000 0.65980  0.01020  0.00190  Biso   1.000  O
  O28      1.0000 0.60680  0.94610  0.17730  Biso   1.000  O
  Al8      1.0000 0.23147  0.23603  0.40283  Biso   1.000  Al
  P8       1.0000 0.23627  0.00503  0.39633  Biso   1.000  P
  O29      1.0000 0.24027  0.11733  0.37693  Biso   1.000  O
  O30      1.0000 0.09357  0.20743  0.38533  Biso   1.000  O
  O31      1.0000 0.32647  0.34353  0.33523  Biso   1.000  O
  O32      1.0000 0.27347  0.27943  0.51063  Biso   1.000  O
  Al9      1.0000 0.89813  0.56937  0.73617  Biso   1.000  Al
  P9       1.0000 0.90293  0.33837  0.72967  Biso   1.000  P
  O33      1.0000 0.90693  0.45067  0.71027  Biso   1.000  O
  O34      1.0000 0.76023  0.54077  0.71867  Biso   1.000  O
  O35      1.0000 0.99313  0.67687  0.66857  Biso   1.000  O
  O36      1.0000 0.94013  0.61277  0.84397  Biso   1.000  O
  Al10     1.0000 0.90270  0.33790  0.93050  Biso   1.000  Al
  P10      1.0000 0.67170  0.10210  0.93700  Biso   1.000  P
  O37      1.0000 0.78400  0.21040  0.95640  Biso   1.000  O
  O38      1.0000 0.87410  0.44720  0.94800  Biso   1.000  O
  O39      1.0000 0.01020  0.35040  0.99810  Biso   1.000  O
  O40      1.0000 0.94610  0.33930  0.82270  Biso   1.000  O
  Al11     1.0000 0.56937  0.67123  0.26383  Biso   1.000  Al
  P11      1.0000 0.33837  0.43543  0.27033  Biso   1.000  P
  O41      1.0000 0.45067  0.54373  0.28973  Biso   1.000  O
  O42      1.0000 0.54077  0.78053  0.28133  Biso   1.000  O
  O43      1.0000 0.67687  0.68373  0.33143  Biso   1.000  O
  O44      1.0000 0.61277  0.67263  0.15603  Biso   1.000  O
  Al12     1.0000 0.23603  0.00457  0.59717  Biso   1.000  Al
  P12      1.0000 0.00503  0.76877  0.60367  Biso   1.000  P
  O45      1.0000 0.11733  0.87707  0.62307  Biso   1.000  O
  O46      1.0000 0.20743  0.11387  0.61467  Biso   1.000  O
  O47      1.0000 0.34353  0.01707  0.66477  Biso   1.000  O
  O48      1.0000 0.27943  0.00597  0.48937  Biso   1.000  O
  Al13     1.0000 0.66210  0.56480  0.93050  Biso   1.000  Al
  P13      1.0000 0.89790  0.56960  0.93700  Biso   1.000  P
  O49      1.0000 0.78960  0.57360  0.95640  Biso   1.000  O
  O50      1.0000 0.55280  0.42690  0.94800  Biso   1.000  O
  O51      1.0000 0.64960  0.65980  0.99810  Biso   1.000  O
  O52      1.0000 0.66070  0.60680  0.82270  Biso   1.000  O
  Al14     1.0000 0.32877  0.89813  0.26383  Biso   1.000  Al
  P14      1.0000 0.56457  0.90293  0.27033  Biso   1.000  P
  O53      1.0000 0.45627  0.90693  0.28973  Biso   1.000  O
  O54      1.0000 0.21947  0.76023  0.28133  Biso   1.000  O
  O55      1.0000 0.31627  0.99313  0.33143  Biso   1.000  O
  O56      1.0000 0.32737  0.94013  0.15603  Biso   1.000  O
  Al15     1.0000 0.99543  0.23147  0.59717  Biso   1.000  Al
  P15      1.0000 0.23123  0.23627  0.60367  Biso   1.000  P
  O57      1.0000 0.12293  0.24027  0.62307  Biso   1.000  O
  O58      1.0000 0.88613  0.09357  0.61467  Biso   1.000  O
  O59      1.0000 0.98293  0.32647  0.66477  Biso   1.000  O
  O60      1.0000 0.99403  0.27347  0.48937  Biso   1.000  O
  Al16     1.0000 0.43520  0.09730  0.93050  Biso   1.000  Al
  P16      1.0000 0.43040  0.32830  0.93700  Biso   1.000  P
  O61      1.0000 0.42640  0.21600  0.95640  Biso   1.000  O
  O62      1.0000 0.57310  0.12590  0.94800  Biso   1.000  O
  O63      1.0000 0.34020  0.98980  0.99810  Biso   1.000  O
  O64      1.0000 0.39320  0.05390  0.82270  Biso   1.000  O
  Al17     1.0000 0.10187  0.43063  0.26383  Biso   1.000  Al
  P17      1.0000 0.09707  0.66163  0.27033  Biso   1.000  P
  O65      1.0000 0.09307  0.54933  0.28973  Biso   1.000  O
  O66      1.0000 0.23977  0.45923  0.28133  Biso   1.000  O
  O67      1.0000 0.00687  0.32313  0.33143  Biso   1.000  O
  O68      1.0000 0.05987  0.38723  0.15603  Biso   1.000  O
  Al18     1.0000 0.76853  0.76397  0.59717  Biso   1.000  Al
  P18      1.0000 0.76373  0.99497  0.60367  Biso   1.000  P
  O69      1.0000 0.75973  0.88267  0.62307  Biso   1.000  O
  O70      1.0000 0.90643  0.79257  0.61467  Biso   1.000  O
  O71      1.0000 0.67353  0.65647  0.66477  Biso   1.000  O
  O72      1.0000 0.72653  0.72057  0.48937  Biso   1.000  O
