data_image0
_cell_length_a       10.837
_cell_length_b       18.131
_cell_length_c       17.561
_cell_angle_alpha    90
_cell_angle_beta     104.301
_cell_angle_gamma    90

_symmetry_space_group_name_H-M    "P 1"
_symmetry_int_tables_number       1

loop_
  _symmetry_equiv_pos_as_xyz
  'x, y, z'

loop_
  _atom_site_label
  _atom_site_occupancy
  _atom_site_fract_x
  _atom_site_fract_y
  _atom_site_fract_z
  _atom_site_thermal_displace_type
  _atom_site_B_iso_or_equiv
  _atom_site_type_symbol
  Cu1      1.0000 0.95558  0.14045  0.62506  Biso   1.000  Cu
  Cu2      1.0000 0.55272  0.13269  0.86997  Biso   1.000  Cu
  N1       1.0000 0.84570  0.11399  0.70282  Biso   1.000  N
  N2       1.0000 0.67820  0.11334  0.80299  Biso   1.000  N
  C1       1.0000 0.72230  0.09640  0.67750  Biso   1.000  C
  H1       1.0000 0.69010  0.08370  0.62380  Biso   1.000  H
  C2       1.0000 0.63970  0.09610  0.72610  Biso   1.000  C
  H2       1.0000 0.55300  0.08320  0.70470  Biso   1.000  H
  C3       1.0000 0.80350  0.12852  0.82910  Biso   1.000  C
  H3       1.0000 0.83660  0.13910  0.88330  Biso   1.000  H
  C4       1.0000 0.88560  0.12924  0.78010  Biso   1.000  C
  H4       1.0000 0.97280  0.14080  0.80160  Biso   1.000  H
  N3       1.0000 0.13390  0.15082  0.69451  Biso   1.000  N
  N4       1.0000 0.37770  0.14672  0.79713  Biso   1.000  N
  C5       1.0000 0.17830  0.09050  0.73660  Biso   1.000  C
  H5       1.0000 0.12580  0.04790  0.73130  Biso   1.000  H
  C6       1.0000 0.29780  0.08840  0.78750  Biso   1.000  C
  H6       1.0000 0.32460  0.04460  0.81670  Biso   1.000  H
  C7       1.0000 0.33350  0.20620  0.75420  Biso   1.000  C
  H7       1.0000 0.38660  0.24840  0.75810  Biso   1.000  H
  C8       1.0000 0.21220  0.20840  0.70380  Biso   1.000  C
  H8       1.0000 0.18450  0.25230  0.67530  Biso   1.000  H
  N5       1.0000 0.98230  0.05348  0.55336  Biso   1.000  N
  C9       1.0000 0.07420  0.05710  0.51750  Biso   1.000  C
  H9       1.0000 0.13190  0.09740  0.52860  Biso   1.000  H
  C10      1.0000 0.90940  0.99560  0.53620  Biso   1.000  C
  H10      1.0000 0.84220  0.98930  0.56160  Biso   1.000  H
  N6       1.0000 0.83840  0.20841  0.55122  Biso   1.000  N
  N7       1.0000 0.65460  0.29429  0.44902  Biso   1.000  N
  C11      1.0000 0.78470  0.26720  0.57610  Biso   1.000  C
  H11      1.0000 0.80900  0.27990  0.63020  Biso   1.000  H
  C12      1.0000 0.69480  0.31000  0.52540  Biso   1.000  C
  H12      1.0000 0.66070  0.35180  0.54560  Biso   1.000  H
  C13      1.0000 0.70730  0.23460  0.42480  Biso   1.000  C
  H13      1.0000 0.68140  0.22090  0.37100  Biso   1.000  H
  C14      1.0000 0.79780  0.19260  0.47500  Biso   1.000  C
  H14      1.0000 0.83240  0.15100  0.45470  Biso   1.000  H
  N8       1.0000 0.51890  0.05018  0.94356  Biso   1.000  N
  C15      1.0000 0.59090  0.98928  0.96112  Biso   1.000  C
  H15      1.0000 0.65580  0.98010  0.93460  Biso   1.000  H
  C16      1.0000 0.57210  0.93950  0.01740  Biso   1.000  C
  H16      1.0000 0.62500  0.89710  0.02860  Biso   1.000  H
  Cu3      1.0000 0.04442  0.64045  0.87494  Biso   1.000  Cu
  Cu4      1.0000 0.44728  0.63269  0.63003  Biso   1.000  Cu
  N9       1.0000 0.15430  0.61399  0.79718  Biso   1.000  N
  N10      1.0000 0.32180  0.61334  0.69701  Biso   1.000  N
  C17      1.0000 0.27770  0.59640  0.82250  Biso   1.000  C
  H17      1.0000 0.30990  0.58370  0.87620  Biso   1.000  H
  C18      1.0000 0.36030  0.59610  0.77390  Biso   1.000  C
  H18      1.0000 0.44700  0.58320  0.79530  Biso   1.000  H
  C19      1.0000 0.19650  0.62852  0.67090  Biso   1.000  C
  H19      1.0000 0.16340  0.63910  0.61670  Biso   1.000  H
  C20      1.0000 0.11440  0.62924  0.71990  Biso   1.000  C
  H20      1.0000 0.02720  0.64080  0.69840  Biso   1.000  H
  N11      1.0000 0.86610  0.65082  0.80549  Biso   1.000  N
  N12      1.0000 0.62230  0.64672  0.70287  Biso   1.000  N
  C21      1.0000 0.82170  0.59050  0.76340  Biso   1.000  C
  H21      1.0000 0.87420  0.54790  0.76870  Biso   1.000  H
  C22      1.0000 0.70220  0.58840  0.71250  Biso   1.000  C
  H22      1.0000 0.67540  0.54460  0.68330  Biso   1.000  H
  C23      1.0000 0.66650  0.70620  0.74580  Biso   1.000  C
  H23      1.0000 0.61340  0.74840  0.74190  Biso   1.000  H
  C24      1.0000 0.78780  0.70840  0.79620  Biso   1.000  C
  H24      1.0000 0.81550  0.75230  0.82470  Biso   1.000  H
  N13      1.0000 0.01770  0.55348  0.94664  Biso   1.000  N
  C25      1.0000 0.92580  0.55710  0.98250  Biso   1.000  C
  H25      1.0000 0.86810  0.59740  0.97140  Biso   1.000  H
  C26      1.0000 0.09060  0.49560  0.96380  Biso   1.000  C
  H26      1.0000 0.15780  0.48930  0.93840  Biso   1.000  H
  N14      1.0000 0.16160  0.70841  0.94878  Biso   1.000  N
  N15      1.0000 0.34540  0.79429  0.05098  Biso   1.000  N
  C27      1.0000 0.21530  0.76720  0.92390  Biso   1.000  C
  H27      1.0000 0.19100  0.77990  0.86980  Biso   1.000  H
  C28      1.0000 0.30520  0.81000  0.97460  Biso   1.000  C
  H28      1.0000 0.33930  0.85180  0.95440  Biso   1.000  H
  C29      1.0000 0.29270  0.73460  0.07520  Biso   1.000  C
  H29      1.0000 0.31860  0.72090  0.12900  Biso   1.000  H
  C30      1.0000 0.20220  0.69260  0.02500  Biso   1.000  C
  H30      1.0000 0.16760  0.65100  0.04530  Biso   1.000  H
  N16      1.0000 0.48110  0.55018  0.55644  Biso   1.000  N
  C31      1.0000 0.40910  0.48928  0.53888  Biso   1.000  C
  H31      1.0000 0.34420  0.48010  0.56540  Biso   1.000  H
  C32      1.0000 0.42790  0.43950  0.48260  Biso   1.000  C
  H32      1.0000 0.37500  0.39710  0.47140  Biso   1.000  H
  Cu5      1.0000 0.04442  0.85955  0.37494  Biso   1.000  Cu
  Cu6      1.0000 0.44728  0.86731  0.13003  Biso   1.000  Cu
  N17      1.0000 0.15430  0.88601  0.29718  Biso   1.000  N
  N18      1.0000 0.32180  0.88666  0.19701  Biso   1.000  N
  C33      1.0000 0.27770  0.90360  0.32250  Biso   1.000  C
  H33      1.0000 0.30990  0.91630  0.37620  Biso   1.000  H
  C34      1.0000 0.36030  0.90390  0.27390  Biso   1.000  C
  H34      1.0000 0.44700  0.91680  0.29530  Biso   1.000  H
  C35      1.0000 0.19650  0.87148  0.17090  Biso   1.000  C
  H35      1.0000 0.16340  0.86090  0.11670  Biso   1.000  H
  C36      1.0000 0.11440  0.87076  0.21990  Biso   1.000  C
  H36      1.0000 0.02720  0.85920  0.19840  Biso   1.000  H
  N19      1.0000 0.86610  0.84918  0.30549  Biso   1.000  N
  N20      1.0000 0.62230  0.85328  0.20287  Biso   1.000  N
  C37      1.0000 0.82170  0.90950  0.26340  Biso   1.000  C
  H37      1.0000 0.87420  0.95210  0.26870  Biso   1.000  H
  C38      1.0000 0.70220  0.91160  0.21250  Biso   1.000  C
  H38      1.0000 0.67540  0.95540  0.18330  Biso   1.000  H
  C39      1.0000 0.66650  0.79380  0.24580  Biso   1.000  C
  H39      1.0000 0.61340  0.75160  0.24190  Biso   1.000  H
  C40      1.0000 0.78780  0.79160  0.29620  Biso   1.000  C
  H40      1.0000 0.81550  0.74770  0.32470  Biso   1.000  H
  N21      1.0000 0.01770  0.94652  0.44664  Biso   1.000  N
  C41      1.0000 0.92580  0.94290  0.48250  Biso   1.000  C
  H41      1.0000 0.86810  0.90260  0.47140  Biso   1.000  H
  C42      1.0000 0.09060  0.00440  0.46380  Biso   1.000  C
  H42      1.0000 0.15780  0.01070  0.43840  Biso   1.000  H
  N22      1.0000 0.16160  0.79159  0.44878  Biso   1.000  N
  N23      1.0000 0.34540  0.70571  0.55098  Biso   1.000  N
  C43      1.0000 0.21530  0.73280  0.42390  Biso   1.000  C
  H43      1.0000 0.19100  0.72010  0.36980  Biso   1.000  H
  C44      1.0000 0.30520  0.69000  0.47460  Biso   1.000  C
  H44      1.0000 0.33930  0.64820  0.45440  Biso   1.000  H
  C45      1.0000 0.29270  0.76540  0.57520  Biso   1.000  C
  H45      1.0000 0.31860  0.77910  0.62900  Biso   1.000  H
  C46      1.0000 0.20220  0.80740  0.52500  Biso   1.000  C
  H46      1.0000 0.16760  0.84900  0.54530  Biso   1.000  H
  N24      1.0000 0.48110  0.94982  0.05644  Biso   1.000  N
  C47      1.0000 0.40910  0.01072  0.03888  Biso   1.000  C
  H47      1.0000 0.34420  0.01990  0.06540  Biso   1.000  H
  C48      1.0000 0.42790  0.06050  0.98260  Biso   1.000  C
  H48      1.0000 0.37500  0.10290  0.97140  Biso   1.000  H
  Cu7      1.0000 0.95558  0.35955  0.12506  Biso   1.000  Cu
  Cu8      1.0000 0.55272  0.36731  0.36997  Biso   1.000  Cu
  N25      1.0000 0.84570  0.38601  0.20282  Biso   1.000  N
  N26      1.0000 0.67820  0.38666  0.30299  Biso   1.000  N
  C49      1.0000 0.72230  0.40360  0.17750  Biso   1.000  C
  H49      1.0000 0.69010  0.41630  0.12380  Biso   1.000  H
  C50      1.0000 0.63970  0.40390  0.22610  Biso   1.000  C
  H50      1.0000 0.55300  0.41680  0.20470  Biso   1.000  H
  C51      1.0000 0.80350  0.37148  0.32910  Biso   1.000  C
  H51      1.0000 0.83660  0.36090  0.38330  Biso   1.000  H
  C52      1.0000 0.88560  0.37076  0.28010  Biso   1.000  C
  H52      1.0000 0.97280  0.35920  0.30160  Biso   1.000  H
  N27      1.0000 0.13390  0.34918  0.19451  Biso   1.000  N
  N28      1.0000 0.37770  0.35328  0.29713  Biso   1.000  N
  C53      1.0000 0.17830  0.40950  0.23660  Biso   1.000  C
  H53      1.0000 0.12580  0.45210  0.23130  Biso   1.000  H
  C54      1.0000 0.29780  0.41160  0.28750  Biso   1.000  C
  H54      1.0000 0.32460  0.45540  0.31670  Biso   1.000  H
  C55      1.0000 0.33350  0.29380  0.25420  Biso   1.000  C
  H55      1.0000 0.38660  0.25160  0.25810  Biso   1.000  H
  C56      1.0000 0.21220  0.29160  0.20380  Biso   1.000  C
  H56      1.0000 0.18450  0.24770  0.17530  Biso   1.000  H
  N29      1.0000 0.98230  0.44652  0.05336  Biso   1.000  N
  C57      1.0000 0.07420  0.44290  0.01750  Biso   1.000  C
  H57      1.0000 0.13190  0.40260  0.02860  Biso   1.000  H
  C58      1.0000 0.90940  0.50440  0.03620  Biso   1.000  C
  H58      1.0000 0.84220  0.51070  0.06160  Biso   1.000  H
  N30      1.0000 0.83840  0.29159  0.05122  Biso   1.000  N
  N31      1.0000 0.65460  0.20571  0.94902  Biso   1.000  N
  C59      1.0000 0.78470  0.23280  0.07610  Biso   1.000  C
  H59      1.0000 0.80900  0.22010  0.13020  Biso   1.000  H
  C60      1.0000 0.69480  0.19000  0.02540  Biso   1.000  C
  H60      1.0000 0.66070  0.14820  0.04560  Biso   1.000  H
  C61      1.0000 0.70730  0.26540  0.92480  Biso   1.000  C
  H61      1.0000 0.68140  0.27910  0.87100  Biso   1.000  H
  C62      1.0000 0.79780  0.30740  0.97500  Biso   1.000  C
  H62      1.0000 0.83240  0.34900  0.95470  Biso   1.000  H
  N32      1.0000 0.51890  0.44982  0.44356  Biso   1.000  N
  C63      1.0000 0.59090  0.51072  0.46112  Biso   1.000  C
  H63      1.0000 0.65580  0.51990  0.43460  Biso   1.000  H
  C64      1.0000 0.57210  0.56050  0.51740  Biso   1.000  C
  H64      1.0000 0.62500  0.60290  0.52860  Biso   1.000  H
