data_SIKYER_clean
_audit_creation_date              2014-07-02
_audit_creation_method            'Materials Studio'
_symmetry_space_group_name_H-M    'P1'
_symmetry_Int_Tables_number       1
_symmetry_cell_setting            triclinic
loop_
_symmetry_equiv_pos_as_xyz
  x,y,z
_cell_length_a                    11.7160
_cell_length_b                    13.6930
_cell_length_c                    13.8000
_cell_angle_alpha                 90.0000
_cell_angle_beta                  99.4400
_cell_angle_gamma                 90.0000
loop_
_atom_site_label
_atom_site_type_symbol
_atom_site_fract_x
_atom_site_fract_y
_atom_site_fract_z
_atom_site_U_iso_or_equiv
_atom_site_adp_type
_atom_site_occupancy
Eu1    Eu    0.61352   0.04016   0.91342   0.01267  Uiso   1.00
Eu2    Eu    0.88648   0.54016   0.58658   0.01267  Uiso   1.00
Eu3    Eu    0.38648   0.95984   0.08658   0.01267  Uiso   1.00
Eu4    Eu    0.11352   0.45984   0.41342   0.01267  Uiso   1.00
H1     H     0.85550   0.76550   0.05900   0.01267  Uiso   1.00
H2     H     0.94180   0.66330   0.18220   0.01267  Uiso   1.00
H3     H     0.67800   0.70590   0.32870   0.01267  Uiso   1.00
H4     H     0.59130   0.81050   0.20680   0.01267  Uiso   1.00
H5     H     0.42990   0.12340   0.58860   0.01267  Uiso   1.00
H6     H     0.64880   0.90100   0.57370   0.01267  Uiso   1.00
H7     H     0.64450   0.26550   0.44100   0.01267  Uiso   1.00
H8     H     0.55820   0.16330   0.31780   0.01267  Uiso   1.00
H9     H     0.82200   0.20590   0.17130   0.01267  Uiso   1.00
H10    H     0.90870   0.31050   0.29320   0.01267  Uiso   1.00
H11    H     0.07010   0.62340   0.91140   0.01267  Uiso   1.00
H12    H     0.85120   0.40100   0.92630   0.01267  Uiso   1.00
H13    H     0.14450   0.23450   0.94100   0.01267  Uiso   1.00
H14    H     0.05820   0.33670   0.81780   0.01267  Uiso   1.00
H15    H     0.32200   0.29410   0.67130   0.01267  Uiso   1.00
H16    H     0.40870   0.18950   0.79320   0.01267  Uiso   1.00
H17    H     0.57010   0.87660   0.41140   0.01267  Uiso   1.00
H18    H     0.35120   0.09900   0.42630   0.01267  Uiso   1.00
H19    H     0.35550   0.73450   0.55900   0.01267  Uiso   1.00
H20    H     0.44180   0.83670   0.68220   0.01267  Uiso   1.00
H21    H     0.17800   0.79410   0.82870   0.01267  Uiso   1.00
H22    H     0.09130   0.68950   0.70680   0.01267  Uiso   1.00
H23    H     0.92990   0.37660   0.08860   0.01267  Uiso   1.00
H24    H     0.14880   0.59900   0.07370   0.01267  Uiso   1.00
C1     C     0.66480   0.87200   0.04390   0.01267  Uiso   1.00
C2     C     0.71580   0.79990   0.12100   0.01267  Uiso   1.00
C3     C     0.82020   0.75430   0.11360   0.01267  Uiso   1.00
C4     C     0.87140   0.69270   0.18710   0.01267  Uiso   1.00
C5     C     0.81890   0.67420   0.26860   0.01267  Uiso   1.00
C6     C     0.71400   0.71850   0.27470   0.01267  Uiso   1.00
C7     C     0.66170   0.78120   0.20180   0.01267  Uiso   1.00
C8     C     0.87620   0.60780   0.34980   0.01267  Uiso   1.00
C9     C     0.59590   0.03000   0.70510   0.01267  Uiso   1.00
C10    C     0.54790   0.01470   0.59810   0.01267  Uiso   1.00
C11    C     0.45820   0.07380   0.55310   0.01267  Uiso   1.00
C12    C     0.58890   0.94090   0.54410   0.01267  Uiso   1.00
C13    C     0.83520   0.37200   0.45610   0.01267  Uiso   1.00
C14    C     0.78420   0.29990   0.37900   0.01267  Uiso   1.00
C15    C     0.67980   0.25430   0.38640   0.01267  Uiso   1.00
C16    C     0.62860   0.19270   0.31290   0.01267  Uiso   1.00
C17    C     0.68110   0.17420   0.23140   0.01267  Uiso   1.00
C18    C     0.78600   0.21850   0.22530   0.01267  Uiso   1.00
C19    C     0.83830   0.28120   0.29820   0.01267  Uiso   1.00
C20    C     0.62380   0.10780   0.15020   0.01267  Uiso   1.00
C21    C     0.90410   0.53000   0.79490   0.01267  Uiso   1.00
C22    C     0.95210   0.51470   0.90190   0.01267  Uiso   1.00
C23    C     0.04180   0.57380   0.94690   0.01267  Uiso   1.00
C24    C     0.91110   0.44090   0.95590   0.01267  Uiso   1.00
C25    C     0.33520   0.12800   0.95610   0.01267  Uiso   1.00
C26    C     0.28420   0.20010   0.87900   0.01267  Uiso   1.00
C27    C     0.17980   0.24570   0.88640   0.01267  Uiso   1.00
C28    C     0.12860   0.30730   0.81290   0.01267  Uiso   1.00
C29    C     0.18110   0.32580   0.73140   0.01267  Uiso   1.00
C30    C     0.28600   0.28150   0.72530   0.01267  Uiso   1.00
C31    C     0.33830   0.21880   0.79820   0.01267  Uiso   1.00
C32    C     0.12380   0.39220   0.65020   0.01267  Uiso   1.00
C33    C     0.40410   0.97000   0.29490   0.01267  Uiso   1.00
C34    C     0.45210   0.98530   0.40190   0.01267  Uiso   1.00
C35    C     0.54180   0.92620   0.44690   0.01267  Uiso   1.00
C36    C     0.41110   0.05910   0.45590   0.01267  Uiso   1.00
C37    C     0.16480   0.62800   0.54390   0.01267  Uiso   1.00
C38    C     0.21580   0.70010   0.62100   0.01267  Uiso   1.00
C39    C     0.32020   0.74570   0.61360   0.01267  Uiso   1.00
C40    C     0.37140   0.80730   0.68710   0.01267  Uiso   1.00
C41    C     0.31890   0.82580   0.76860   0.01267  Uiso   1.00
C42    C     0.21400   0.78150   0.77470   0.01267  Uiso   1.00
C43    C     0.16170   0.71880   0.70180   0.01267  Uiso   1.00
C44    C     0.37620   0.89220   0.84980   0.01267  Uiso   1.00
C45    C     0.09590   0.47000   0.20510   0.01267  Uiso   1.00
C46    C     0.04790   0.48530   0.09810   0.01267  Uiso   1.00
C47    C     0.95820   0.42620   0.05310   0.01267  Uiso   1.00
C48    C     0.08890   0.55910   0.04410   0.01267  Uiso   1.00
O1     O     0.72207   0.89856   0.97981   0.01267  Uiso   1.00
O2     O     0.56362   0.90632   0.04572   0.01267  Uiso   1.00
O3     O     0.97124   0.57160   0.33863   0.01267  Uiso   1.00
O4     O     0.82501   0.59473   0.42245   0.01267  Uiso   1.00
O5     O     0.55973   0.10221   0.74835   0.01267  Uiso   1.00
O6     O     0.66663   0.97029   0.75120   0.01267  Uiso   1.00
O7     O     0.77793   0.39856   0.52019   0.01267  Uiso   1.00
O8     O     0.93638   0.40632   0.45428   0.01267  Uiso   1.00
O9     O     0.52876   0.07160   0.16137   0.01267  Uiso   1.00
O10    O     0.67499   0.09473   0.07755   0.01267  Uiso   1.00
O11    O     0.94027   0.60221   0.75165   0.01267  Uiso   1.00
O12    O     0.83337   0.47029   0.74880   0.01267  Uiso   1.00
O13    O     0.27793   0.10144   0.02019   0.01267  Uiso   1.00
O14    O     0.43638   0.09368   0.95428   0.01267  Uiso   1.00
O15    O     0.02876   0.42840   0.66137   0.01267  Uiso   1.00
O16    O     0.17499   0.40527   0.57755   0.01267  Uiso   1.00
O17    O     0.44027   0.89779   0.25165   0.01267  Uiso   1.00
O18    O     0.33337   0.02971   0.24880   0.01267  Uiso   1.00
O19    O     0.22207   0.60144   0.47981   0.01267  Uiso   1.00
O20    O     0.06362   0.59368   0.54572   0.01267  Uiso   1.00
O21    O     0.47124   0.92840   0.83863   0.01267  Uiso   1.00
O22    O     0.32501   0.90527   0.92245   0.01267  Uiso   1.00
O23    O     0.05973   0.39779   0.24835   0.01267  Uiso   1.00
O24    O     0.16663   0.52971   0.25120   0.01267  Uiso   1.00
