data_image0
_cell_length_a       10.447
_cell_length_b       12.349
_cell_length_c       10.225
_cell_angle_alpha    90
_cell_angle_beta     90
_cell_angle_gamma    90

_symmetry_space_group_name_H-M    "P 1"
_symmetry_int_tables_number       1

loop_
  _symmetry_equiv_pos_as_xyz
  'x, y, z'

loop_
  _atom_site_label
  _atom_site_occupancy
  _atom_site_fract_x
  _atom_site_fract_y
  _atom_site_fract_z
  _atom_site_thermal_displace_type
  _atom_site_B_iso_or_equiv
  _atom_site_type_symbol
  Zn1      1.0000 0.98122  0.86680  0.81550  Biso   1.000  Zn
  P1       1.0000 0.00220  0.98346  0.55490  Biso   1.000  P
  P2       1.0000 0.73260  0.74451  0.72460  Biso   1.000  P
  O1       1.0000 0.81280  0.80260  0.82700  Biso   1.000  O
  O2       1.0000 0.59080  0.75250  0.76080  Biso   1.000  O
  O3       1.0000 0.97250  0.99230  0.70090  Biso   1.000  O
  O4       1.0000 0.96300  0.08860  0.48790  Biso   1.000  O
  O5       1.0000 0.15220  0.97620  0.53710  Biso   1.000  O
  O6       1.0000 0.94070  0.88390  0.49730  Biso   1.000  O
  O7       1.0000 0.77410  0.62660  0.70860  Biso   1.000  O
  O8       1.0000 0.74510  0.80240  0.58920  Biso   1.000  O
  H1       1.0000 0.20200  0.93700  0.63800  Biso   1.000  H
  Zn2      1.0000 0.01878  0.13320  0.31550  Biso   1.000  Zn
  P3       1.0000 0.99780  0.01654  0.05490  Biso   1.000  P
  P4       1.0000 0.26740  0.25549  0.22460  Biso   1.000  P
  O9       1.0000 0.18720  0.19740  0.32700  Biso   1.000  O
  O10      1.0000 0.40920  0.24750  0.26080  Biso   1.000  O
  O11      1.0000 0.02750  0.00770  0.20090  Biso   1.000  O
  O12      1.0000 0.03700  0.91140  0.98790  Biso   1.000  O
  O13      1.0000 0.84780  0.02380  0.03710  Biso   1.000  O
  O14      1.0000 0.05930  0.11610  0.99730  Biso   1.000  O
  O15      1.0000 0.22590  0.37340  0.20860  Biso   1.000  O
  O16      1.0000 0.25490  0.19760  0.08920  Biso   1.000  O
  H2       1.0000 0.79800  0.06300  0.13800  Biso   1.000  H
  Zn3      1.0000 0.48122  0.63320  0.81550  Biso   1.000  Zn
  P5       1.0000 0.50220  0.51654  0.55490  Biso   1.000  P
  P6       1.0000 0.23260  0.75549  0.72460  Biso   1.000  P
  O17      1.0000 0.31280  0.69740  0.82700  Biso   1.000  O
  O18      1.0000 0.09080  0.74750  0.76080  Biso   1.000  O
  O19      1.0000 0.47250  0.50770  0.70090  Biso   1.000  O
  O20      1.0000 0.46300  0.41140  0.48790  Biso   1.000  O
  O21      1.0000 0.65220  0.52380  0.53710  Biso   1.000  O
  O22      1.0000 0.44070  0.61610  0.49730  Biso   1.000  O
  O23      1.0000 0.27410  0.87340  0.70860  Biso   1.000  O
  O24      1.0000 0.24510  0.69760  0.58920  Biso   1.000  O
  H3       1.0000 0.70200  0.56300  0.63800  Biso   1.000  H
  Zn4      1.0000 0.51878  0.36680  0.31550  Biso   1.000  Zn
  P7       1.0000 0.49780  0.48346  0.05490  Biso   1.000  P
  P8       1.0000 0.76740  0.24451  0.22460  Biso   1.000  P
  O25      1.0000 0.68720  0.30260  0.32700  Biso   1.000  O
  O26      1.0000 0.90920  0.25250  0.26080  Biso   1.000  O
  O27      1.0000 0.52750  0.49230  0.20090  Biso   1.000  O
  O28      1.0000 0.53700  0.58860  0.98790  Biso   1.000  O
  O29      1.0000 0.34780  0.47620  0.03710  Biso   1.000  O
  O30      1.0000 0.55930  0.38390  0.99730  Biso   1.000  O
  O31      1.0000 0.72590  0.12660  0.20860  Biso   1.000  O
  O32      1.0000 0.75490  0.30240  0.08920  Biso   1.000  O
  H4       1.0000 0.29800  0.43700  0.13800  Biso   1.000  H
