data_image0
_cell_length_a       5.1318
_cell_length_b       7.8411
_cell_length_c       16.51
_cell_angle_alpha    90
_cell_angle_beta     90.119
_cell_angle_gamma    90

_symmetry_space_group_name_H-M    "P 1"
_symmetry_int_tables_number       1

loop_
  _symmetry_equiv_pos_as_xyz
  'x, y, z'

loop_
  _atom_site_label
  _atom_site_occupancy
  _atom_site_fract_x
  _atom_site_fract_y
  _atom_site_fract_z
  _atom_site_thermal_displace_type
  _atom_site_B_iso_or_equiv
  _atom_site_type_symbol
  Zn1      1.0000 0.19821  0.14210  0.58625  Biso   1.000  Zn
  Zn2      1.0000 0.19570  0.37060  0.92089  Biso   1.000  Zn
  O1       1.0000 0.85030  0.23920  0.57850  Biso   1.000  O
  O2       1.0000 0.32850  0.12840  0.69500  Biso   1.000  O
  O3       1.0000 0.81150  0.40830  0.44850  Biso   1.000  O
  O4       1.0000 0.41310  0.28960  0.51660  Biso   1.000  O
  O5       1.0000 0.19510  0.61220  0.93690  Biso   1.000  O
  O6       1.0000 0.15630  0.78550  0.06610  Biso   1.000  O
  O7       1.0000 0.59350  0.72630  0.00850  Biso   1.000  O
  O8       1.0000 0.27510  0.34860  0.80790  Biso   1.000  O
  O9       1.0000 0.74500  0.10350  0.44360  Biso   1.000  O
  O10      1.0000 0.27730  0.91600  0.93190  Biso   1.000  O
  O11      1.0000 0.61430  0.38890  0.70670  Biso   1.000  O
  O12      1.0000 0.64600  0.13750  0.80400  Biso   1.000  O
  P1       1.0000 0.70350  0.26560  0.49857  Biso   1.000  P
  P2       1.0000 0.30560  0.75550  0.98746  Biso   1.000  P
  P3       1.0000 0.45390  0.25070  0.75346  Biso   1.000  P
  H1       1.0000 0.66000  0.00300  0.46100  Biso   1.000  H
  H2       1.0000 0.30000  0.02200  0.95800  Biso   1.000  H
  H3       1.0000 0.71300  0.34100  0.66400  Biso   1.000  H
  H4       1.0000 0.72700  0.16900  0.85300  Biso   1.000  H
  Zn3      1.0000 0.80179  0.64210  0.41375  Biso   1.000  Zn
  Zn4      1.0000 0.80430  0.87060  0.07911  Biso   1.000  Zn
  O13      1.0000 0.14970  0.73920  0.42150  Biso   1.000  O
  O14      1.0000 0.67150  0.62840  0.30500  Biso   1.000  O
  O15      1.0000 0.18850  0.90830  0.55150  Biso   1.000  O
  O16      1.0000 0.58690  0.78960  0.48340  Biso   1.000  O
  O17      1.0000 0.80490  0.11220  0.06310  Biso   1.000  O
  O18      1.0000 0.84370  0.28550  0.93390  Biso   1.000  O
  O19      1.0000 0.40650  0.22630  0.99150  Biso   1.000  O
  O20      1.0000 0.72490  0.84860  0.19210  Biso   1.000  O
  O21      1.0000 0.25500  0.60350  0.55640  Biso   1.000  O
  O22      1.0000 0.72270  0.41600  0.06810  Biso   1.000  O
  O23      1.0000 0.38570  0.88890  0.29330  Biso   1.000  O
  O24      1.0000 0.35400  0.63750  0.19600  Biso   1.000  O
  P4       1.0000 0.29650  0.76560  0.50143  Biso   1.000  P
  P5       1.0000 0.69440  0.25550  0.01254  Biso   1.000  P
  P6       1.0000 0.54610  0.75070  0.24654  Biso   1.000  P
  H5       1.0000 0.34000  0.50300  0.53900  Biso   1.000  H
  H6       1.0000 0.70000  0.52200  0.04200  Biso   1.000  H
  H7       1.0000 0.28700  0.84100  0.33600  Biso   1.000  H
  H8       1.0000 0.27300  0.66900  0.14700  Biso   1.000  H
