data_image0
_cell_length_a       10.1383
_cell_length_b       10.1383
_cell_length_c       9.628
_cell_angle_alpha    90
_cell_angle_beta     90
_cell_angle_gamma    90

_symmetry_space_group_name_H-M    "P 1"
_symmetry_int_tables_number       1

loop_
  _symmetry_equiv_pos_as_xyz
  'x, y, z'

loop_
  _atom_site_label
  _atom_site_occupancy
  _atom_site_fract_x
  _atom_site_fract_y
  _atom_site_fract_z
  _atom_site_thermal_displace_type
  _atom_site_B_iso_or_equiv
  _atom_site_type_symbol
  O1       1.0000 0.29900  0.52400  0.22300  Biso   1.000  O
  O2       1.0000 0.79900  0.02400  0.72300  Biso   1.000  O
  O3       1.0000 0.70100  0.47600  0.22300  Biso   1.000  O
  O4       1.0000 0.20100  0.97600  0.72300  Biso   1.000  O
  O5       1.0000 0.52400  0.70100  0.77700  Biso   1.000  O
  O6       1.0000 0.02400  0.20100  0.27700  Biso   1.000  O
  O7       1.0000 0.47600  0.29900  0.77700  Biso   1.000  O
  O8       1.0000 0.97600  0.79900  0.27700  Biso   1.000  O
  O9       1.0000 0.70100  0.52400  0.77700  Biso   1.000  O
  O10      1.0000 0.20100  0.02400  0.27700  Biso   1.000  O
  O11      1.0000 0.29900  0.47600  0.77700  Biso   1.000  O
  O12      1.0000 0.79900  0.97600  0.27700  Biso   1.000  O
  O13      1.0000 0.47600  0.70100  0.22300  Biso   1.000  O
  O14      1.0000 0.97600  0.20100  0.72300  Biso   1.000  O
  O15      1.0000 0.52400  0.29900  0.22300  Biso   1.000  O
  O16      1.0000 0.02400  0.79900  0.72300  Biso   1.000  O
  O17      1.0000 0.50000  0.50000  0.00000  Biso   1.000  O
  O18      1.0000 0.00000  0.00000  0.50000  Biso   1.000  O
  O19      1.0000 0.29600  0.70400  0.05200  Biso   1.000  O
  O20      1.0000 0.24600  0.75400  0.31000  Biso   1.000  O
  P1       1.0000 0.33110  0.66890  0.19610  Biso   1.000  P
  O21      1.0000 0.79600  0.20400  0.55200  Biso   1.000  O
  O22      1.0000 0.74600  0.25400  0.81000  Biso   1.000  O
  P2       1.0000 0.83110  0.16890  0.69610  Biso   1.000  P
  O23      1.0000 0.70400  0.29600  0.05200  Biso   1.000  O
  O24      1.0000 0.75400  0.24600  0.31000  Biso   1.000  O
  P3       1.0000 0.66890  0.33110  0.19610  Biso   1.000  P
  O25      1.0000 0.20400  0.79600  0.55200  Biso   1.000  O
  O26      1.0000 0.25400  0.74600  0.81000  Biso   1.000  O
  P4       1.0000 0.16890  0.83110  0.69610  Biso   1.000  P
  O27      1.0000 0.70400  0.70400  0.94800  Biso   1.000  O
  O28      1.0000 0.75400  0.75400  0.69000  Biso   1.000  O
  P5       1.0000 0.66890  0.66890  0.80390  Biso   1.000  P
  O29      1.0000 0.20400  0.20400  0.44800  Biso   1.000  O
  O30      1.0000 0.25400  0.25400  0.19000  Biso   1.000  O
  P6       1.0000 0.16890  0.16890  0.30390  Biso   1.000  P
  O31      1.0000 0.29600  0.29600  0.94800  Biso   1.000  O
  O32      1.0000 0.24600  0.24600  0.69000  Biso   1.000  O
  P7       1.0000 0.33110  0.33110  0.80390  Biso   1.000  P
  O33      1.0000 0.79600  0.79600  0.44800  Biso   1.000  O
  O34      1.0000 0.74600  0.74600  0.19000  Biso   1.000  O
  P8       1.0000 0.83110  0.83110  0.30390  Biso   1.000  P
  Fe1      1.0000 0.37360  0.37360  0.12120  Biso   1.000  Fe
  Fe2      1.0000 0.87360  0.87360  0.62120  Biso   1.000  Fe
  Fe3      1.0000 0.62640  0.62640  0.12120  Biso   1.000  Fe
  Fe4      1.0000 0.12640  0.12640  0.62120  Biso   1.000  Fe
  Fe5      1.0000 0.37360  0.62640  0.87880  Biso   1.000  Fe
  Fe6      1.0000 0.87360  0.12640  0.37880  Biso   1.000  Fe
  Fe7      1.0000 0.62640  0.37360  0.87880  Biso   1.000  Fe
  Fe8      1.0000 0.12640  0.87360  0.37880  Biso   1.000  Fe
