data_SINXET_charged
_audit_creation_date              2014-07-02
_audit_creation_method            'Materials Studio'
_symmetry_space_group_name_H-M    'P1'
_symmetry_Int_Tables_number       1
_symmetry_cell_setting            triclinic
loop_
_symmetry_equiv_pos_as_xyz
  x,y,z
_cell_length_a                    11.5590
_cell_length_b                    20.7480
_cell_length_c                    23.6840
_cell_angle_alpha                 90.0000
_cell_angle_beta                  90.0000
_cell_angle_gamma                 90.0000
loop_
_atom_site_label
_atom_site_type_symbol
_atom_site_fract_x
_atom_site_fract_y
_atom_site_fract_z
_atom_site_U_iso_or_equiv
_atom_site_adp_type
_atom_site_occupancy
Eu1    Eu    0.91328   0.97691   0.77665   0.01267  Uiso   1.00
Eu2    Eu    0.73952   0.88452   0.66927   0.01267  Uiso   1.00
Eu3    Eu    0.57798   0.99073   0.77368   0.01267  Uiso   1.00
Eu4    Eu    0.76212   0.07190   0.65905   0.01267  Uiso   1.00
Eu5    Eu    0.58672   0.02309   0.27665   0.01267  Uiso   1.00
Eu6    Eu    0.76048   0.11548   0.16927   0.01267  Uiso   1.00
Eu7    Eu    0.92202   0.00927   0.27368   0.01267  Uiso   1.00
Eu8    Eu    0.73788   0.92810   0.15904   0.01267  Uiso   1.00
Eu9    Eu    0.08672   0.47691   0.72335   0.01267  Uiso   1.00
Eu10   Eu    0.26048   0.38452   0.83073   0.01267  Uiso   1.00
Eu11   Eu    0.42202   0.49073   0.72632   0.01267  Uiso   1.00
Eu12   Eu    0.23788   0.57190   0.84095   0.01267  Uiso   1.00
Eu13   Eu    0.41328   0.52309   0.22335   0.01267  Uiso   1.00
Eu14   Eu    0.23952   0.61548   0.33073   0.01267  Uiso   1.00
Eu15   Eu    0.07798   0.50927   0.22632   0.01267  Uiso   1.00
Eu16   Eu    0.26212   0.42810   0.34096   0.01267  Uiso   1.00
H1     H     0.14260   0.77970   0.76120   0.01267  Uiso   1.00
H2     H     0.10410   0.79390   0.81830   0.01267  Uiso   1.00
H3     H     0.13910   0.72880   0.80330   0.01267  Uiso   1.00
H4     H     0.56910   0.98460   0.96630   0.01267  Uiso   1.00
H5     H     0.60440   0.91750   0.96310   0.01267  Uiso   1.00
H6     H     0.62080   0.95340   0.01510   0.01267  Uiso   1.00
H7     H     0.65010   0.69860   0.75230   0.01267  Uiso   1.00
H8     H     0.61080   0.66570   0.70160   0.01267  Uiso   1.00
H9     H     0.63330   0.73460   0.70020   0.01267  Uiso   1.00
H10    H     0.20980   0.17090   0.53620   0.01267  Uiso   1.00
H11    H     0.31610   0.19120   0.56710   0.01267  Uiso   1.00
H12    H     0.94150   0.73480   0.80810   0.01267  Uiso   1.00
H13    H     0.02200   0.71050   0.69760   0.01267  Uiso   1.00
H14    H     0.89960   0.69010   0.71930   0.01267  Uiso   1.00
H15    H     0.79750   0.94390   0.96890   0.01267  Uiso   1.00
H16    H     0.84850   0.05260   0.96980   0.01267  Uiso   1.00
H17    H     0.71760   0.07190   0.97300   0.01267  Uiso   1.00
H18    H     0.52530   0.75840   0.81210   0.01267  Uiso   1.00
H19    H     0.39930   0.77360   0.79190   0.01267  Uiso   1.00
H20    H     0.44410   0.72810   0.70320   0.01267  Uiso   1.00
H21    H     0.15160   0.05590   0.54690   0.01267  Uiso   1.00
H22    H     0.14540   0.03200   0.60950   0.01267  Uiso   1.00
H23    H     0.31540   0.08280   0.59290   0.01267  Uiso   1.00
H24    H     0.35740   0.22030   0.26120   0.01267  Uiso   1.00
H25    H     0.39590   0.20610   0.31830   0.01267  Uiso   1.00
H26    H     0.36090   0.27120   0.30330   0.01267  Uiso   1.00
H27    H     0.93090   0.01540   0.46630   0.01267  Uiso   1.00
H28    H     0.89560   0.08250   0.46310   0.01267  Uiso   1.00
H29    H     0.87920   0.04660   0.51510   0.01267  Uiso   1.00
H30    H     0.84990   0.30140   0.25230   0.01267  Uiso   1.00
H31    H     0.88920   0.33430   0.20160   0.01267  Uiso   1.00
H32    H     0.86670   0.26540   0.20020   0.01267  Uiso   1.00
H33    H     0.29020   0.82910   0.03620   0.01267  Uiso   1.00
H34    H     0.18390   0.80880   0.06710   0.01267  Uiso   1.00
H35    H     0.55850   0.26520   0.30810   0.01267  Uiso   1.00
H36    H     0.47800   0.28950   0.19760   0.01267  Uiso   1.00
H37    H     0.60040   0.30990   0.21930   0.01267  Uiso   1.00
H38    H     0.70250   0.05610   0.46890   0.01267  Uiso   1.00
H39    H     0.65150   0.94740   0.46980   0.01267  Uiso   1.00
H40    H     0.78240   0.92810   0.47300   0.01267  Uiso   1.00
H41    H     0.97470   0.24160   0.31210   0.01267  Uiso   1.00
H42    H     0.10070   0.22640   0.29190   0.01267  Uiso   1.00
H43    H     0.05590   0.27190   0.20320   0.01267  Uiso   1.00
H44    H     0.34840   0.94410   0.04690   0.01267  Uiso   1.00
H45    H     0.35460   0.96800   0.10950   0.01267  Uiso   1.00
H46    H     0.18460   0.91720   0.09290   0.01267  Uiso   1.00
H47    H     0.85740   0.27970   0.73880   0.01267  Uiso   1.00
H48    H     0.89590   0.29390   0.68170   0.01267  Uiso   1.00
H49    H     0.86090   0.22880   0.69670   0.01267  Uiso   1.00
H50    H     0.43090   0.48460   0.53370   0.01267  Uiso   1.00
H51    H     0.39560   0.41750   0.53690   0.01267  Uiso   1.00
H52    H     0.37920   0.45340   0.48490   0.01267  Uiso   1.00
H53    H     0.34990   0.19860   0.74770   0.01267  Uiso   1.00
H54    H     0.38920   0.16570   0.79840   0.01267  Uiso   1.00
H55    H     0.36670   0.23460   0.79980   0.01267  Uiso   1.00
H56    H     0.79020   0.67090   0.96380   0.01267  Uiso   1.00
H57    H     0.68390   0.69120   0.93290   0.01267  Uiso   1.00
H58    H     0.05850   0.23480   0.69190   0.01267  Uiso   1.00
H59    H     0.97800   0.21050   0.80240   0.01267  Uiso   1.00
H60    H     0.10040   0.19010   0.78070   0.01267  Uiso   1.00
H61    H     0.20250   0.44390   0.53110   0.01267  Uiso   1.00
H62    H     0.15150   0.55260   0.53020   0.01267  Uiso   1.00
H63    H     0.28240   0.57190   0.52700   0.01267  Uiso   1.00
H64    H     0.47470   0.25840   0.68790   0.01267  Uiso   1.00
H65    H     0.60070   0.27360   0.70810   0.01267  Uiso   1.00
H66    H     0.55590   0.22810   0.79680   0.01267  Uiso   1.00
H67    H     0.84840   0.55590   0.95310   0.01267  Uiso   1.00
H68    H     0.85460   0.53200   0.89050   0.01267  Uiso   1.00
H69    H     0.68460   0.58280   0.90710   0.01267  Uiso   1.00
H70    H     0.64260   0.72030   0.23880   0.01267  Uiso   1.00
H71    H     0.60410   0.70610   0.18170   0.01267  Uiso   1.00
H72    H     0.63910   0.77120   0.19670   0.01267  Uiso   1.00
H73    H     0.06910   0.51540   0.03370   0.01267  Uiso   1.00
H74    H     0.10440   0.58250   0.03690   0.01267  Uiso   1.00
H75    H     0.12080   0.54660   0.98490   0.01267  Uiso   1.00
H76    H     0.15010   0.80140   0.24770   0.01267  Uiso   1.00
H77    H     0.11080   0.83430   0.29840   0.01267  Uiso   1.00
H78    H     0.13330   0.76540   0.29980   0.01267  Uiso   1.00
H79    H     0.70980   0.32910   0.46380   0.01267  Uiso   1.00
H80    H     0.81610   0.30880   0.43290   0.01267  Uiso   1.00
H81    H     0.44150   0.76520   0.19190   0.01267  Uiso   1.00
H82    H     0.52200   0.78950   0.30240   0.01267  Uiso   1.00
H83    H     0.39960   0.80990   0.28070   0.01267  Uiso   1.00
H84    H     0.29750   0.55610   0.03110   0.01267  Uiso   1.00
H85    H     0.34850   0.44740   0.03020   0.01267  Uiso   1.00
H86    H     0.21760   0.42810   0.02700   0.01267  Uiso   1.00
H87    H     0.02530   0.74160   0.18790   0.01267  Uiso   1.00
H88    H     0.89930   0.72640   0.20810   0.01267  Uiso   1.00
H89    H     0.94410   0.77190   0.29680   0.01267  Uiso   1.00
H90    H     0.65160   0.44410   0.45310   0.01267  Uiso   1.00
H91    H     0.64540   0.46800   0.39050   0.01267  Uiso   1.00
H92    H     0.81540   0.41720   0.40710   0.01267  Uiso   1.00
C1     C     0.92670   0.81180   0.75260   0.01267  Uiso   1.00
C2     C     0.98360   0.74930   0.77450   0.01267  Uiso   1.00
C3     C     0.97950   0.69630   0.73060   0.01267  Uiso   1.00
C4     C     0.02750   0.63260   0.74900   0.01267  Uiso   1.00
C5     C     0.74190   0.98280   0.89310   0.01267  Uiso   1.00
C6     C     0.74100   0.97670   0.95760   0.01267  Uiso   1.00
C7     C     0.77350   0.03940   0.98410   0.01267  Uiso   1.00
C8     C     0.77870   0.03670   0.04710   0.01267  Uiso   1.00
C9     C     0.51840   0.83380   0.75800   0.01267  Uiso   1.00
C10    C     0.47890   0.76960   0.77940   0.01267  Uiso   1.00
C11    C     0.48600   0.71490   0.73730   0.01267  Uiso   1.00
C12    C     0.43010   0.65220   0.75920   0.01267  Uiso   1.00
C13    C     0.03020   0.10300   0.59270   0.01267  Uiso   1.00
C14    C     0.14460   0.07010   0.58580   0.01267  Uiso   1.00
C15    C     0.24770   0.11020   0.59990   0.01267  Uiso   1.00
C16    C     0.25530   0.13090   0.66310   0.01267  Uiso   1.00
C17    C     0.09150   0.82020   0.57700   0.01267  Uiso   1.00
C18    C     0.21340   0.83760   0.66450   0.01267  Uiso   1.00
C19    C     0.97610   0.81270   0.59960   0.01267  Uiso   1.00
C20    C     0.16440   0.86900   0.61060   0.01267  Uiso   1.00
C21    C     0.57330   0.18820   0.25260   0.01267  Uiso   1.00
C22    C     0.51640   0.25070   0.27450   0.01267  Uiso   1.00
C23    C     0.52050   0.30370   0.23060   0.01267  Uiso   1.00
C24    C     0.47250   0.36740   0.24900   0.01267  Uiso   1.00
C25    C     0.75810   0.01720   0.39310   0.01267  Uiso   1.00
C26    C     0.75900   0.02330   0.45760   0.01267  Uiso   1.00
C27    C     0.72650   0.96060   0.48410   0.01267  Uiso   1.00
C28    C     0.72130   0.96330   0.54710   0.01267  Uiso   1.00
C29    C     0.98160   0.16620   0.25800   0.01267  Uiso   1.00
C30    C     0.02110   0.23040   0.27940   0.01267  Uiso   1.00
C31    C     0.01400   0.28510   0.23730   0.01267  Uiso   1.00
C32    C     0.06990   0.34780   0.25920   0.01267  Uiso   1.00
C33    C     0.46980   0.89700   0.09270   0.01267  Uiso   1.00
C34    C     0.35540   0.92990   0.08580   0.01267  Uiso   1.00
C35    C     0.25230   0.88980   0.09990   0.01267  Uiso   1.00
C36    C     0.24470   0.86910   0.16310   0.01267  Uiso   1.00
C37    C     0.40850   0.17980   0.07700   0.01267  Uiso   1.00
C38    C     0.28660   0.16240   0.16450   0.01267  Uiso   1.00
C39    C     0.52390   0.18730   0.09960   0.01267  Uiso   1.00
C40    C     0.33560   0.13100   0.11060   0.01267  Uiso   1.00
C41    C     0.07330   0.31180   0.74740   0.01267  Uiso   1.00
C42    C     0.01640   0.24930   0.72550   0.01267  Uiso   1.00
C43    C     0.02050   0.19630   0.76940   0.01267  Uiso   1.00
C44    C     0.97250   0.13260   0.75100   0.01267  Uiso   1.00
C45    C     0.25810   0.48280   0.60690   0.01267  Uiso   1.00
C46    C     0.25900   0.47670   0.54240   0.01267  Uiso   1.00
C47    C     0.22650   0.53940   0.51590   0.01267  Uiso   1.00
C48    C     0.22130   0.53670   0.45290   0.01267  Uiso   1.00
C49    C     0.48160   0.33380   0.74200   0.01267  Uiso   1.00
C50    C     0.52110   0.26960   0.72060   0.01267  Uiso   1.00
C51    C     0.51400   0.21490   0.76270   0.01267  Uiso   1.00
C52    C     0.56990   0.15220   0.74080   0.01267  Uiso   1.00
C53    C     0.96980   0.60300   0.90730   0.01267  Uiso   1.00
C54    C     0.85540   0.57010   0.91420   0.01267  Uiso   1.00
C55    C     0.75230   0.61020   0.90010   0.01267  Uiso   1.00
C56    C     0.74470   0.63090   0.83690   0.01267  Uiso   1.00
C57    C     0.90850   0.32020   0.92300   0.01267  Uiso   1.00
C58    C     0.78660   0.33760   0.83550   0.01267  Uiso   1.00
C59    C     0.02390   0.31270   0.90040   0.01267  Uiso   1.00
C60    C     0.83560   0.36900   0.88940   0.01267  Uiso   1.00
C61    C     0.42670   0.68820   0.24740   0.01267  Uiso   1.00
C62    C     0.48360   0.75070   0.22550   0.01267  Uiso   1.00
C63    C     0.47950   0.80370   0.26940   0.01267  Uiso   1.00
C64    C     0.52750   0.86740   0.25100   0.01267  Uiso   1.00
C65    C     0.24190   0.51720   0.10690   0.01267  Uiso   1.00
C66    C     0.24100   0.52330   0.04240   0.01267  Uiso   1.00
C67    C     0.27350   0.46060   0.01590   0.01267  Uiso   1.00
C68    C     0.27870   0.46330   0.95290   0.01267  Uiso   1.00
C69    C     0.01840   0.66620   0.24200   0.01267  Uiso   1.00
C70    C     0.97890   0.73040   0.22060   0.01267  Uiso   1.00
C71    C     0.98600   0.78510   0.26270   0.01267  Uiso   1.00
C72    C     0.93010   0.84780   0.24080   0.01267  Uiso   1.00
C73    C     0.53020   0.39700   0.40730   0.01267  Uiso   1.00
C74    C     0.64460   0.42990   0.41420   0.01267  Uiso   1.00
C75    C     0.74770   0.38980   0.40010   0.01267  Uiso   1.00
C76    C     0.75530   0.36910   0.33690   0.01267  Uiso   1.00
C77    C     0.59150   0.67980   0.42300   0.01267  Uiso   1.00
C78    C     0.71340   0.66240   0.33550   0.01267  Uiso   1.00
C79    C     0.47610   0.68730   0.40040   0.01267  Uiso   1.00
C80    C     0.66440   0.63100   0.38940   0.01267  Uiso   1.00
N1     N     0.10450   0.76450   0.79100   0.01267  Uiso   1.00
N2     N     0.62140   0.95590   0.97760   0.01267  Uiso   1.00
N3     N     0.60700   0.70220   0.72130   0.01267  Uiso   1.00
N4     N     0.25950   0.16480   0.56270   0.01267  Uiso   1.00
N5     N     0.14740   0.75860   0.56230   0.01267  Uiso   1.00
N6     N     0.39550   0.23550   0.29100   0.01267  Uiso   1.00
N7     N     0.87860   0.04410   0.47760   0.01267  Uiso   1.00
N8     N     0.89300   0.29780   0.22130   0.01267  Uiso   1.00
N9     N     0.24050   0.83520   0.06270   0.01267  Uiso   1.00
N10    N     0.35260   0.24140   0.06230   0.01267  Uiso   1.00
N11    N     0.89550   0.26450   0.70900   0.01267  Uiso   1.00
N12    N     0.37860   0.45590   0.52240   0.01267  Uiso   1.00
N13    N     0.39300   0.20220   0.77870   0.01267  Uiso   1.00
N14    N     0.74050   0.66480   0.93730   0.01267  Uiso   1.00
N15    N     0.85260   0.25860   0.93770   0.01267  Uiso   1.00
N16    N     0.60450   0.73550   0.20900   0.01267  Uiso   1.00
N17    N     0.12140   0.54410   0.02240   0.01267  Uiso   1.00
N18    N     0.10700   0.79780   0.27870   0.01267  Uiso   1.00
N19    N     0.75950   0.33520   0.43730   0.01267  Uiso   1.00
N20    N     0.64740   0.74140   0.43770   0.01267  Uiso   1.00
O1     O     0.86650   0.97410   0.67910   0.01267  Uiso   1.00
O2     O     0.73850   0.91879   0.76661   0.01267  Uiso   1.00
O3     O     0.75490   0.04676   0.75991   0.01267  Uiso   1.00
O4     O     0.62930   0.98270   0.67840   0.01267  Uiso   1.00
O5     O     0.97330   0.86480   0.76410   0.01267  Uiso   1.00
O6     O     0.83510   0.80320   0.72500   0.01267  Uiso   1.00
O7     O     0.08650   0.62990   0.79340   0.01267  Uiso   1.00
O8     O     0.00650   0.58450   0.71700   0.01267  Uiso   1.00
O9     O     0.83820   0.98390   0.87070   0.01267  Uiso   1.00
O10    O     0.64480   0.98740   0.86910   0.01267  Uiso   1.00
O11    O     0.76260   0.98350   0.07106   0.01267  Uiso   1.00
O12    O     0.79730   0.08840   0.07280   0.01267  Uiso   1.00
O13    O     0.56580   0.83780   0.71060   0.01267  Uiso   1.00
O14    O     0.50160   0.88270   0.78990   0.01267  Uiso   1.00
O15    O     0.47660   0.60140   0.74360   0.01267  Uiso   1.00
O16    O     0.34370   0.65820   0.78970   0.01267  Uiso   1.00
O17    O     0.94360   0.06620   0.59950   0.01267  Uiso   1.00
O18    O     0.02840   0.16350   0.59220   0.01267  Uiso   1.00
O19    O     0.23460   0.08680   0.69770   0.01267  Uiso   1.00
O20    O     0.28120   0.18710   0.67340   0.01267  Uiso   1.00
O21    O     0.91600   0.85550   0.61940   0.01267  Uiso   1.00
O22    O     0.19800   0.78420   0.68270   0.01267  Uiso   1.00
O23    O     0.24970   0.88120   0.69420   0.01267  Uiso   1.00
O24    O     0.06710   0.96100   0.84640   0.01267  Uiso   1.00
O25    O     0.09820   0.97870   0.72220   0.01267  Uiso   1.00
O26    O     0.69930   0.77670   0.62440   0.01267  Uiso   1.00
O27    O     0.41730   0.00480   0.84120   0.01267  Uiso   1.00
O28    O     0.39310   0.98660   0.71930   0.01267  Uiso   1.00
O29    O     0.57460   0.10250   0.61140   0.01267  Uiso   1.00
O30    O     0.79730   0.17740   0.60710   0.01267  Uiso   1.00
O31    O     0.92980   0.75540   0.59840   0.01267  Uiso   1.00
O32    O     0.63350   0.02590   0.17910   0.01267  Uiso   1.00
O33    O     0.76150   0.08121   0.26661   0.01267  Uiso   1.00
O34    O     0.74510   0.95324   0.25991   0.01267  Uiso   1.00
O35    O     0.87070   0.01730   0.17840   0.01267  Uiso   1.00
O36    O     0.52670   0.13520   0.26410   0.01267  Uiso   1.00
O37    O     0.66490   0.19680   0.22500   0.01267  Uiso   1.00
O38    O     0.41350   0.37010   0.29340   0.01267  Uiso   1.00
O39    O     0.49350   0.41550   0.21700   0.01267  Uiso   1.00
O40    O     0.66180   0.01610   0.37070   0.01267  Uiso   1.00
O41    O     0.85520   0.01260   0.36910   0.01267  Uiso   1.00
O42    O     0.73740   0.01650   0.57106   0.01267  Uiso   1.00
O43    O     0.70270   0.91160   0.57280   0.01267  Uiso   1.00
O44    O     0.93420   0.16220   0.21060   0.01267  Uiso   1.00
O45    O     0.99840   0.11730   0.28990   0.01267  Uiso   1.00
O46    O     0.02340   0.39860   0.24360   0.01267  Uiso   1.00
O47    O     0.15630   0.34180   0.28970   0.01267  Uiso   1.00
O48    O     0.55640   0.93380   0.09950   0.01267  Uiso   1.00
O49    O     0.47160   0.83650   0.09220   0.01267  Uiso   1.00
O50    O     0.26540   0.91320   0.19770   0.01267  Uiso   1.00
O51    O     0.21880   0.81290   0.17340   0.01267  Uiso   1.00
O52    O     0.58400   0.14450   0.11940   0.01267  Uiso   1.00
O53    O     0.30200   0.21580   0.18270   0.01267  Uiso   1.00
O54    O     0.25030   0.11880   0.19420   0.01267  Uiso   1.00
O55    O     0.43290   0.03900   0.34640   0.01267  Uiso   1.00
O56    O     0.40180   0.02130   0.22220   0.01267  Uiso   1.00
O57    O     0.80070   0.22330   0.12440   0.01267  Uiso   1.00
O58    O     0.08270   0.99520   0.34120   0.01267  Uiso   1.00
O59    O     0.10690   0.01340   0.21930   0.01267  Uiso   1.00
O60    O     0.92540   0.89750   0.11140   0.01267  Uiso   1.00
O61    O     0.70270   0.82260   0.10710   0.01267  Uiso   1.00
O62    O     0.57020   0.24460   0.09840   0.01267  Uiso   1.00
O63    O     0.13350   0.47410   0.82090   0.01267  Uiso   1.00
O64    O     0.26150   0.41879   0.73339   0.01267  Uiso   1.00
O65    O     0.24510   0.54676   0.74009   0.01267  Uiso   1.00
O66    O     0.37070   0.48270   0.82160   0.01267  Uiso   1.00
O67    O     0.02670   0.36480   0.73590   0.01267  Uiso   1.00
O68    O     0.16490   0.30320   0.77500   0.01267  Uiso   1.00
O69    O     0.91350   0.12990   0.70660   0.01267  Uiso   1.00
O70    O     0.99350   0.08450   0.78300   0.01267  Uiso   1.00
O71    O     0.16180   0.48390   0.62930   0.01267  Uiso   1.00
O72    O     0.35520   0.48740   0.63090   0.01267  Uiso   1.00
O73    O     0.23740   0.48350   0.42894   0.01267  Uiso   1.00
O74    O     0.20270   0.58840   0.42720   0.01267  Uiso   1.00
O75    O     0.43420   0.33780   0.78940   0.01267  Uiso   1.00
O76    O     0.49840   0.38270   0.71010   0.01267  Uiso   1.00
O77    O     0.52340   0.10140   0.75640   0.01267  Uiso   1.00
O78    O     0.65630   0.15820   0.71030   0.01267  Uiso   1.00
O79    O     0.05640   0.56620   0.90050   0.01267  Uiso   1.00
O80    O     0.97160   0.66350   0.90780   0.01267  Uiso   1.00
O81    O     0.76540   0.58680   0.80230   0.01267  Uiso   1.00
O82    O     0.71880   0.68710   0.82660   0.01267  Uiso   1.00
O83    O     0.08400   0.35550   0.88060   0.01267  Uiso   1.00
O84    O     0.80200   0.28420   0.81730   0.01267  Uiso   1.00
O85    O     0.75030   0.38120   0.80580   0.01267  Uiso   1.00
O86    O     0.93290   0.46100   0.65360   0.01267  Uiso   1.00
O87    O     0.90180   0.47870   0.77780   0.01267  Uiso   1.00
O88    O     0.30070   0.27670   0.87560   0.01267  Uiso   1.00
O89    O     0.58270   0.50480   0.65880   0.01267  Uiso   1.00
O90    O     0.60690   0.48660   0.78070   0.01267  Uiso   1.00
O91    O     0.42540   0.60250   0.88860   0.01267  Uiso   1.00
O92    O     0.20270   0.67740   0.89290   0.01267  Uiso   1.00
O93    O     0.07020   0.25540   0.90160   0.01267  Uiso   1.00
O94    O     0.36650   0.52590   0.32090   0.01267  Uiso   1.00
O95    O     0.23850   0.58121   0.23339   0.01267  Uiso   1.00
O96    O     0.25490   0.45324   0.24009   0.01267  Uiso   1.00
O97    O     0.12930   0.51730   0.32160   0.01267  Uiso   1.00
O98    O     0.47330   0.63520   0.23590   0.01267  Uiso   1.00
O99    O     0.33510   0.69680   0.27500   0.01267  Uiso   1.00
O100   O     0.58650   0.87010   0.20660   0.01267  Uiso   1.00
O101   O     0.50650   0.91550   0.28300   0.01267  Uiso   1.00
O102   O     0.33820   0.51610   0.12930   0.01267  Uiso   1.00
O103   O     0.14480   0.51260   0.13090   0.01267  Uiso   1.00
O104   O     0.26260   0.51650   0.92894   0.01267  Uiso   1.00
O105   O     0.29730   0.41160   0.92720   0.01267  Uiso   1.00
O106   O     0.06580   0.66220   0.28940   0.01267  Uiso   1.00
O107   O     0.00160   0.61730   0.21010   0.01267  Uiso   1.00
O108   O     0.97660   0.89860   0.25640   0.01267  Uiso   1.00
O109   O     0.84370   0.84180   0.21030   0.01267  Uiso   1.00
O110   O     0.44360   0.43380   0.40050   0.01267  Uiso   1.00
O111   O     0.52840   0.33650   0.40780   0.01267  Uiso   1.00
O112   O     0.73460   0.41320   0.30230   0.01267  Uiso   1.00
O113   O     0.78120   0.31290   0.32660   0.01267  Uiso   1.00
O114   O     0.41600   0.64450   0.38060   0.01267  Uiso   1.00
O115   O     0.69800   0.71580   0.31730   0.01267  Uiso   1.00
O116   O     0.74970   0.61880   0.30580   0.01267  Uiso   1.00
O117   O     0.56710   0.53900   0.15360   0.01267  Uiso   1.00
O118   O     0.59820   0.52130   0.27780   0.01267  Uiso   1.00
O119   O     0.19930   0.72330   0.37560   0.01267  Uiso   1.00
O120   O     0.91730   0.49520   0.15880   0.01267  Uiso   1.00
O121   O     0.89310   0.51340   0.28070   0.01267  Uiso   1.00
O122   O     0.07460   0.39750   0.38860   0.01267  Uiso   1.00
O123   O     0.29730   0.32260   0.39290   0.01267  Uiso   1.00
O124   O     0.42980   0.74460   0.40160   0.01267  Uiso   1.00
Cl1    Cl    0.31670   0.69168   0.01776   0.01267  Uiso   1.00
Cl2    Cl    0.18330   0.30832   0.51776   0.01267  Uiso   1.00
Cl3    Cl    0.68330   0.19168   0.48224   0.01267  Uiso   1.00
Cl4    Cl    0.81670   0.80832   0.98224   0.01267  Uiso   1.00
