data_image0
_cell_length_a       14.909
_cell_length_b       7.1963
_cell_length_c       24.592
_cell_angle_alpha    90
_cell_angle_beta     104.312
_cell_angle_gamma    90

_symmetry_space_group_name_H-M    "P 1"
_symmetry_int_tables_number       1

loop_
  _symmetry_equiv_pos_as_xyz
  'x, y, z'

loop_
  _atom_site_label
  _atom_site_occupancy
  _atom_site_fract_x
  _atom_site_fract_y
  _atom_site_fract_z
  _atom_site_thermal_displace_type
  _atom_site_B_iso_or_equiv
  _atom_site_type_symbol
  C1       1.0000 0.41460  0.28790  0.41660  Biso   1.000  C
  C2       1.0000 0.35660  0.19850  0.36471  Biso   1.000  C
  C3       1.0000 0.37900  0.02420  0.34713  Biso   1.000  C
  H1       1.0000 0.42910  0.95920  0.36890  Biso   1.000  H
  C4       1.0000 0.32890  0.94850  0.29880  Biso   1.000  C
  H2       1.0000 0.34600  0.83330  0.28750  Biso   1.000  H
  C5       1.0000 0.25300  0.03810  0.26605  Biso   1.000  C
  C6       1.0000 0.22840  0.21070  0.28350  Biso   1.000  C
  H3       1.0000 0.17620  0.27190  0.26260  Biso   1.000  H
  C7       1.0000 0.28070  0.28960  0.33100  Biso   1.000  C
  H4       1.0000 0.26540  0.40750  0.34120  Biso   1.000  H
  C8       1.0000 0.13590  0.79010  0.23961  Biso   1.000  C
  H5       1.0000 0.11010  0.84830  0.26740  Biso   1.000  H
  H6       1.0000 0.17630  0.69100  0.25660  Biso   1.000  H
  H7       1.0000 0.08690  0.74090  0.21020  Biso   1.000  H
  C9       1.0000 0.19120  0.93440  0.21498  Biso   1.000  C
  C10      1.0000 0.12150  0.05870  0.17580  Biso   1.000  C
  H8       1.0000 0.15370  0.15060  0.15970  Biso   1.000  H
  H9       1.0000 0.08310  0.11910  0.19660  Biso   1.000  H
  H10      1.0000 0.08350  0.98480  0.14650  Biso   1.000  H
  C11      1.0000 0.25080  0.84560  0.17897  Biso   1.000  C
  C12      1.0000 0.31840  0.95340  0.16528  Biso   1.000  C
  H11      1.0000 0.33010  0.07200  0.18040  Biso   1.000  H
  C13      1.0000 0.36900  0.88630  0.12900  Biso   1.000  C
  H12      1.0000 0.41210  0.96390  0.11890  Biso   1.000  H
  C14      1.0000 0.35750  0.70750  0.10736  Biso   1.000  C
  C15      1.0000 0.28820  0.59730  0.12100  Biso   1.000  C
  H13      1.0000 0.27680  0.47810  0.10630  Biso   1.000  H
  C16      1.0000 0.23600  0.66750  0.15710  Biso   1.000  C
  H14      1.0000 0.19100  0.59320  0.16640  Biso   1.000  H
  C17      1.0000 0.41210  0.63580  0.06815  Biso   1.000  C
  C18      1.0000 0.70700  0.03460  0.51840  Biso   1.000  C
  H15      1.0000 0.67060  0.97020  0.48810  Biso   1.000  H
  C19      1.0000 0.75090  0.22530  0.58650  Biso   1.000  C
  H16      1.0000 0.75150  0.32050  0.61210  Biso   1.000  H
  C20      1.0000 0.81920  0.10190  0.58830  Biso   1.000  C
  H17      1.0000 0.87550  0.09870  0.61500  Biso   1.000  H
  C21      1.0000 0.85160  0.84240  0.53228  Biso   1.000  C
  C22      1.0000 0.89680  0.71880  0.57330  Biso   1.000  C
  H18      1.0000 0.88980  0.72840  0.60970  Biso   1.000  H
  C23      1.0000 0.95260  0.58010  0.55960  Biso   1.000  C
  H19      1.0000 0.98130  0.49960  0.58820  Biso   1.000  H
  C24      1.0000 0.96460  0.56740  0.50580  Biso   1.000  C
  C25      1.0000 0.91930  0.69110  0.46490  Biso   1.000  C
  H20      1.0000 0.92470  0.68750  0.42800  Biso   1.000  H
  C26      1.0000 0.86300  0.82950  0.47840  Biso   1.000  C
  H21      1.0000 0.83310  0.91320  0.45100  Biso   1.000  H
  Co1      1.0000 0.56078  0.33794  0.51174  Biso   1.000  Co
  N1       1.0000 0.67950  0.18700  0.54005  Biso   1.000  N
  N2       1.0000 0.79260  0.98410  0.54501  Biso   1.000  N
  O1       1.0000 0.48400  0.20350  0.44455  Biso   1.000  O
  O2       1.0000 0.38840  0.44520  0.42984  Biso   1.000  O
  O3       1.0000 0.47579  0.73120  0.06100  Biso   1.000  O
  O4       1.0000 0.38350  0.48240  0.04411  Biso   1.000  O
  C27      1.0000 0.58540  0.28790  0.08340  Biso   1.000  C
  C28      1.0000 0.64340  0.19850  0.13529  Biso   1.000  C
  C29      1.0000 0.62100  0.02420  0.15287  Biso   1.000  C
  H22      1.0000 0.57090  0.95920  0.13110  Biso   1.000  H
  C30      1.0000 0.67110  0.94850  0.20120  Biso   1.000  C
  H23      1.0000 0.65400  0.83330  0.21250  Biso   1.000  H
  C31      1.0000 0.74700  0.03810  0.23395  Biso   1.000  C
  C32      1.0000 0.77160  0.21070  0.21650  Biso   1.000  C
  H24      1.0000 0.82380  0.27190  0.23740  Biso   1.000  H
  C33      1.0000 0.71930  0.28960  0.16900  Biso   1.000  C
  H25      1.0000 0.73460  0.40750  0.15880  Biso   1.000  H
  C34      1.0000 0.86410  0.79010  0.26039  Biso   1.000  C
  H26      1.0000 0.88990  0.84830  0.23260  Biso   1.000  H
  H27      1.0000 0.82370  0.69100  0.24340  Biso   1.000  H
  H28      1.0000 0.91310  0.74090  0.28980  Biso   1.000  H
  C35      1.0000 0.80880  0.93440  0.28502  Biso   1.000  C
  C36      1.0000 0.87850  0.05870  0.32420  Biso   1.000  C
  H29      1.0000 0.84630  0.15060  0.34030  Biso   1.000  H
  H30      1.0000 0.91690  0.11910  0.30340  Biso   1.000  H
  H31      1.0000 0.91650  0.98480  0.35350  Biso   1.000  H
  C37      1.0000 0.74920  0.84560  0.32103  Biso   1.000  C
  C38      1.0000 0.68160  0.95340  0.33472  Biso   1.000  C
  H32      1.0000 0.66990  0.07200  0.31960  Biso   1.000  H
  C39      1.0000 0.63100  0.88630  0.37100  Biso   1.000  C
  H33      1.0000 0.58790  0.96390  0.38110  Biso   1.000  H
  C40      1.0000 0.64250  0.70750  0.39264  Biso   1.000  C
  C41      1.0000 0.71180  0.59730  0.37900  Biso   1.000  C
  H34      1.0000 0.72320  0.47810  0.39370  Biso   1.000  H
  C42      1.0000 0.76400  0.66750  0.34290  Biso   1.000  C
  H35      1.0000 0.80900  0.59320  0.33360  Biso   1.000  H
  C43      1.0000 0.58790  0.63580  0.43185  Biso   1.000  C
  C44      1.0000 0.29300  0.03460  0.98160  Biso   1.000  C
  H36      1.0000 0.32940  0.97020  0.01190  Biso   1.000  H
  C45      1.0000 0.24910  0.22530  0.91350  Biso   1.000  C
  H37      1.0000 0.24850  0.32050  0.88790  Biso   1.000  H
  C46      1.0000 0.18080  0.10190  0.91170  Biso   1.000  C
  H38      1.0000 0.12450  0.09870  0.88500  Biso   1.000  H
  C47      1.0000 0.14840  0.84240  0.96772  Biso   1.000  C
  C48      1.0000 0.10320  0.71880  0.92670  Biso   1.000  C
  H39      1.0000 0.11020  0.72840  0.89030  Biso   1.000  H
  C49      1.0000 0.04740  0.58010  0.94040  Biso   1.000  C
  H40      1.0000 0.01870  0.49960  0.91180  Biso   1.000  H
  C50      1.0000 0.03540  0.56740  0.99420  Biso   1.000  C
  C51      1.0000 0.08070  0.69110  0.03510  Biso   1.000  C
  H41      1.0000 0.07530  0.68750  0.07200  Biso   1.000  H
  C52      1.0000 0.13700  0.82950  0.02160  Biso   1.000  C
  H42      1.0000 0.16690  0.91320  0.04900  Biso   1.000  H
  Co2      1.0000 0.43922  0.33794  0.98826  Biso   1.000  Co
  N3       1.0000 0.32050  0.18700  0.95995  Biso   1.000  N
  N4       1.0000 0.20740  0.98410  0.95499  Biso   1.000  N
  O5       1.0000 0.51600  0.20350  0.05545  Biso   1.000  O
  O6       1.0000 0.61160  0.44520  0.07016  Biso   1.000  O
  O7       1.0000 0.52421  0.73120  0.43900  Biso   1.000  O
  O8       1.0000 0.61650  0.48240  0.45589  Biso   1.000  O
  C53      1.0000 0.58540  0.71210  0.58340  Biso   1.000  C
  C54      1.0000 0.64340  0.80150  0.63529  Biso   1.000  C
  C55      1.0000 0.62100  0.97580  0.65287  Biso   1.000  C
  H43      1.0000 0.57090  0.04080  0.63110  Biso   1.000  H
  C56      1.0000 0.67110  0.05150  0.70120  Biso   1.000  C
  H44      1.0000 0.65400  0.16670  0.71250  Biso   1.000  H
  C57      1.0000 0.74700  0.96190  0.73395  Biso   1.000  C
  C58      1.0000 0.77160  0.78930  0.71650  Biso   1.000  C
  H45      1.0000 0.82380  0.72810  0.73740  Biso   1.000  H
  C59      1.0000 0.71930  0.71040  0.66900  Biso   1.000  C
  H46      1.0000 0.73460  0.59250  0.65880  Biso   1.000  H
  C60      1.0000 0.86410  0.20990  0.76039  Biso   1.000  C
  H47      1.0000 0.88990  0.15170  0.73260  Biso   1.000  H
  H48      1.0000 0.82370  0.30900  0.74340  Biso   1.000  H
  H49      1.0000 0.91310  0.25910  0.78980  Biso   1.000  H
  C61      1.0000 0.80880  0.06560  0.78502  Biso   1.000  C
  C62      1.0000 0.87850  0.94130  0.82420  Biso   1.000  C
  H50      1.0000 0.84630  0.84940  0.84030  Biso   1.000  H
  H51      1.0000 0.91690  0.88090  0.80340  Biso   1.000  H
  H52      1.0000 0.91650  0.01520  0.85350  Biso   1.000  H
  C63      1.0000 0.74920  0.15440  0.82103  Biso   1.000  C
  C64      1.0000 0.68160  0.04660  0.83472  Biso   1.000  C
  H53      1.0000 0.66990  0.92800  0.81960  Biso   1.000  H
  C65      1.0000 0.63100  0.11370  0.87100  Biso   1.000  C
  H54      1.0000 0.58790  0.03610  0.88110  Biso   1.000  H
  C66      1.0000 0.64250  0.29250  0.89264  Biso   1.000  C
  C67      1.0000 0.71180  0.40270  0.87900  Biso   1.000  C
  H55      1.0000 0.72320  0.52190  0.89370  Biso   1.000  H
  C68      1.0000 0.76400  0.33250  0.84290  Biso   1.000  C
  H56      1.0000 0.80900  0.40680  0.83360  Biso   1.000  H
  C69      1.0000 0.58790  0.36420  0.93185  Biso   1.000  C
  C70      1.0000 0.29300  0.96540  0.48160  Biso   1.000  C
  H57      1.0000 0.32940  0.02980  0.51190  Biso   1.000  H
  C71      1.0000 0.24910  0.77470  0.41350  Biso   1.000  C
  H58      1.0000 0.24850  0.67950  0.38790  Biso   1.000  H
  C72      1.0000 0.18080  0.89810  0.41170  Biso   1.000  C
  H59      1.0000 0.12450  0.90130  0.38500  Biso   1.000  H
  C73      1.0000 0.14840  0.15760  0.46772  Biso   1.000  C
  C74      1.0000 0.10320  0.28120  0.42670  Biso   1.000  C
  H60      1.0000 0.11020  0.27160  0.39030  Biso   1.000  H
  C75      1.0000 0.04740  0.41990  0.44040  Biso   1.000  C
  H61      1.0000 0.01870  0.50040  0.41180  Biso   1.000  H
  C76      1.0000 0.03540  0.43260  0.49420  Biso   1.000  C
  C77      1.0000 0.08070  0.30890  0.53510  Biso   1.000  C
  H62      1.0000 0.07530  0.31250  0.57200  Biso   1.000  H
  C78      1.0000 0.13700  0.17050  0.52160  Biso   1.000  C
  H63      1.0000 0.16690  0.08680  0.54900  Biso   1.000  H
  Co3      1.0000 0.43922  0.66206  0.48826  Biso   1.000  Co
  N5       1.0000 0.32050  0.81300  0.45995  Biso   1.000  N
  N6       1.0000 0.20740  0.01590  0.45499  Biso   1.000  N
  O9       1.0000 0.51600  0.79650  0.55545  Biso   1.000  O
  O10      1.0000 0.61160  0.55480  0.57016  Biso   1.000  O
  O11      1.0000 0.52421  0.26880  0.93900  Biso   1.000  O
  O12      1.0000 0.61650  0.51760  0.95589  Biso   1.000  O
  C79      1.0000 0.41460  0.71210  0.91660  Biso   1.000  C
  C80      1.0000 0.35660  0.80150  0.86471  Biso   1.000  C
  C81      1.0000 0.37900  0.97580  0.84713  Biso   1.000  C
  H64      1.0000 0.42910  0.04080  0.86890  Biso   1.000  H
  C82      1.0000 0.32890  0.05150  0.79880  Biso   1.000  C
  H65      1.0000 0.34600  0.16670  0.78750  Biso   1.000  H
  C83      1.0000 0.25300  0.96190  0.76605  Biso   1.000  C
  C84      1.0000 0.22840  0.78930  0.78350  Biso   1.000  C
  H66      1.0000 0.17620  0.72810  0.76260  Biso   1.000  H
  C85      1.0000 0.28070  0.71040  0.83100  Biso   1.000  C
  H67      1.0000 0.26540  0.59250  0.84120  Biso   1.000  H
  C86      1.0000 0.13590  0.20990  0.73961  Biso   1.000  C
  H68      1.0000 0.11010  0.15170  0.76740  Biso   1.000  H
  H69      1.0000 0.17630  0.30900  0.75660  Biso   1.000  H
  H70      1.0000 0.08690  0.25910  0.71020  Biso   1.000  H
  C87      1.0000 0.19120  0.06560  0.71498  Biso   1.000  C
  C88      1.0000 0.12150  0.94130  0.67580  Biso   1.000  C
  H71      1.0000 0.15370  0.84940  0.65970  Biso   1.000  H
  H72      1.0000 0.08310  0.88090  0.69660  Biso   1.000  H
  H73      1.0000 0.08350  0.01520  0.64650  Biso   1.000  H
  C89      1.0000 0.25080  0.15440  0.67897  Biso   1.000  C
  C90      1.0000 0.31840  0.04660  0.66528  Biso   1.000  C
  H74      1.0000 0.33010  0.92800  0.68040  Biso   1.000  H
  C91      1.0000 0.36900  0.11370  0.62900  Biso   1.000  C
  H75      1.0000 0.41210  0.03610  0.61890  Biso   1.000  H
  C92      1.0000 0.35750  0.29250  0.60736  Biso   1.000  C
  C93      1.0000 0.28820  0.40270  0.62100  Biso   1.000  C
  H76      1.0000 0.27680  0.52190  0.60630  Biso   1.000  H
  C94      1.0000 0.23600  0.33250  0.65710  Biso   1.000  C
  H77      1.0000 0.19100  0.40680  0.66640  Biso   1.000  H
  C95      1.0000 0.41210  0.36420  0.56815  Biso   1.000  C
  C96      1.0000 0.70700  0.96540  0.01840  Biso   1.000  C
  H78      1.0000 0.67060  0.02980  0.98810  Biso   1.000  H
  C97      1.0000 0.75090  0.77470  0.08650  Biso   1.000  C
  H79      1.0000 0.75150  0.67950  0.11210  Biso   1.000  H
  C98      1.0000 0.81920  0.89810  0.08830  Biso   1.000  C
  H80      1.0000 0.87550  0.90130  0.11500  Biso   1.000  H
  C99      1.0000 0.85160  0.15760  0.03228  Biso   1.000  C
  C100     1.0000 0.89680  0.28120  0.07330  Biso   1.000  C
  H81      1.0000 0.88980  0.27160  0.10970  Biso   1.000  H
  C101     1.0000 0.95260  0.41990  0.05960  Biso   1.000  C
  H82      1.0000 0.98130  0.50040  0.08820  Biso   1.000  H
  C102     1.0000 0.96460  0.43260  0.00580  Biso   1.000  C
  C103     1.0000 0.91930  0.30890  0.96490  Biso   1.000  C
  H83      1.0000 0.92470  0.31250  0.92800  Biso   1.000  H
  C104     1.0000 0.86300  0.17050  0.97840  Biso   1.000  C
  H84      1.0000 0.83310  0.08680  0.95100  Biso   1.000  H
  Co4      1.0000 0.56078  0.66206  0.01174  Biso   1.000  Co
  N7       1.0000 0.67950  0.81300  0.04005  Biso   1.000  N
  N8       1.0000 0.79260  0.01590  0.04501  Biso   1.000  N
  O13      1.0000 0.48400  0.79650  0.94455  Biso   1.000  O
  O14      1.0000 0.38840  0.55480  0.92984  Biso   1.000  O
  O15      1.0000 0.47579  0.26880  0.56100  Biso   1.000  O
  O16      1.0000 0.38350  0.51760  0.54411  Biso   1.000  O
