data_image0
_cell_length_a       16.21
_cell_length_b       16.21
_cell_length_c       16.21
_cell_angle_alpha    90
_cell_angle_beta     90
_cell_angle_gamma    90

_symmetry_space_group_name_H-M    "P 1"
_symmetry_int_tables_number       1

loop_
  _symmetry_equiv_pos_as_xyz
  'x, y, z'

loop_
  _atom_site_label
  _atom_site_occupancy
  _atom_site_fract_x
  _atom_site_fract_y
  _atom_site_fract_z
  _atom_site_thermal_displace_type
  _atom_site_B_iso_or_equiv
  _atom_site_type_symbol
  S1       1.0000 0.91162  0.10896  0.84046  Biso   1.000  S
  C1       1.0000 0.83660  0.17210  0.89500  Biso   1.000  C
  O1       1.0000 0.90590  0.03020  0.87470  Biso   1.000  O
  O2       1.0000 0.99120  0.15140  0.86590  Biso   1.000  O
  O3       1.0000 0.89810  0.87790  0.74340  Biso   1.000  O
  F1       1.0000 0.83900  0.24710  0.86730  Biso   1.000  F
  F2       1.0000 0.85010  0.17310  0.97100  Biso   1.000  F
  F3       1.0000 0.76310  0.14200  0.88140  Biso   1.000  F
  H1       1.0000 0.00900  0.14130  0.92040  Biso   1.000  H
  S2       1.0000 0.41162  0.60896  0.34046  Biso   1.000  S
  C2       1.0000 0.33660  0.67210  0.39500  Biso   1.000  C
  O4       1.0000 0.40590  0.53020  0.37470  Biso   1.000  O
  O5       1.0000 0.49120  0.65140  0.36590  Biso   1.000  O
  O6       1.0000 0.39810  0.37790  0.24340  Biso   1.000  O
  F4       1.0000 0.33900  0.74710  0.36730  Biso   1.000  F
  F5       1.0000 0.35010  0.67310  0.47100  Biso   1.000  F
  F6       1.0000 0.26310  0.64200  0.38140  Biso   1.000  F
  H2       1.0000 0.50900  0.64130  0.42040  Biso   1.000  H
  S3       1.0000 0.58838  0.89104  0.34046  Biso   1.000  S
  C3       1.0000 0.66340  0.82790  0.39500  Biso   1.000  C
  O7       1.0000 0.59410  0.96980  0.37470  Biso   1.000  O
  O8       1.0000 0.50880  0.84860  0.36590  Biso   1.000  O
  O9       1.0000 0.60190  0.12210  0.24340  Biso   1.000  O
  F7       1.0000 0.66100  0.75290  0.36730  Biso   1.000  F
  F8       1.0000 0.64990  0.82690  0.47100  Biso   1.000  F
  F9       1.0000 0.73690  0.85800  0.38140  Biso   1.000  F
  H3       1.0000 0.49100  0.85870  0.42040  Biso   1.000  H
  S4       1.0000 0.08838  0.39104  0.84046  Biso   1.000  S
  C4       1.0000 0.16340  0.32790  0.89500  Biso   1.000  C
  O10      1.0000 0.09410  0.46980  0.87470  Biso   1.000  O
  O11      1.0000 0.00880  0.34860  0.86590  Biso   1.000  O
  O12      1.0000 0.10190  0.62210  0.74340  Biso   1.000  O
  F10      1.0000 0.16100  0.25290  0.86730  Biso   1.000  F
  F11      1.0000 0.14990  0.32690  0.97100  Biso   1.000  F
  F12      1.0000 0.23690  0.35800  0.88140  Biso   1.000  F
  H4       1.0000 0.99100  0.35870  0.92040  Biso   1.000  H
  S5       1.0000 0.08838  0.60896  0.65954  Biso   1.000  S
  C5       1.0000 0.16340  0.67210  0.60500  Biso   1.000  C
  O13      1.0000 0.09410  0.53020  0.62530  Biso   1.000  O
  O14      1.0000 0.00880  0.65140  0.63410  Biso   1.000  O
  O15      1.0000 0.10190  0.37790  0.75660  Biso   1.000  O
  F13      1.0000 0.16100  0.74710  0.63270  Biso   1.000  F
  F14      1.0000 0.14990  0.67310  0.52900  Biso   1.000  F
  F15      1.0000 0.23690  0.64200  0.61860  Biso   1.000  F
  H5       1.0000 0.99100  0.64130  0.57960  Biso   1.000  H
  S6       1.0000 0.58838  0.10896  0.15954  Biso   1.000  S
  C6       1.0000 0.66340  0.17210  0.10500  Biso   1.000  C
  O16      1.0000 0.59410  0.03020  0.12530  Biso   1.000  O
  O17      1.0000 0.50880  0.15140  0.13410  Biso   1.000  O
  O18      1.0000 0.60190  0.87790  0.25660  Biso   1.000  O
  F16      1.0000 0.66100  0.24710  0.13270  Biso   1.000  F
  F17      1.0000 0.64990  0.17310  0.02900  Biso   1.000  F
  F18      1.0000 0.73690  0.14200  0.11860  Biso   1.000  F
  H6       1.0000 0.49100  0.14130  0.07960  Biso   1.000  H
  S7       1.0000 0.41162  0.39104  0.15954  Biso   1.000  S
  C7       1.0000 0.33660  0.32790  0.10500  Biso   1.000  C
  O19      1.0000 0.40590  0.46980  0.12530  Biso   1.000  O
  O20      1.0000 0.49120  0.34860  0.13410  Biso   1.000  O
  O21      1.0000 0.39810  0.62210  0.25660  Biso   1.000  O
  F19      1.0000 0.33900  0.25290  0.13270  Biso   1.000  F
  F20      1.0000 0.35010  0.32690  0.02900  Biso   1.000  F
  F21      1.0000 0.26310  0.35800  0.11860  Biso   1.000  F
  H7       1.0000 0.50900  0.35870  0.07960  Biso   1.000  H
  S8       1.0000 0.91162  0.89104  0.65954  Biso   1.000  S
  C8       1.0000 0.83660  0.82790  0.60500  Biso   1.000  C
  O22      1.0000 0.90590  0.96980  0.62530  Biso   1.000  O
  O23      1.0000 0.99120  0.84860  0.63410  Biso   1.000  O
  O24      1.0000 0.89810  0.12210  0.75660  Biso   1.000  O
  F22      1.0000 0.83900  0.75290  0.63270  Biso   1.000  F
  F23      1.0000 0.85010  0.82690  0.52900  Biso   1.000  F
  F24      1.0000 0.76310  0.85800  0.61860  Biso   1.000  F
  H8       1.0000 0.00900  0.85870  0.57960  Biso   1.000  H
  S9       1.0000 0.84046  0.91162  0.10896  Biso   1.000  S
  C9       1.0000 0.89500  0.83660  0.17210  Biso   1.000  C
  O25      1.0000 0.87470  0.90590  0.03020  Biso   1.000  O
  O26      1.0000 0.86590  0.99120  0.15140  Biso   1.000  O
  O27      1.0000 0.74340  0.89810  0.87790  Biso   1.000  O
  F25      1.0000 0.86730  0.83900  0.24710  Biso   1.000  F
  F26      1.0000 0.97100  0.85010  0.17310  Biso   1.000  F
  F27      1.0000 0.88140  0.76310  0.14200  Biso   1.000  F
  H9       1.0000 0.92040  0.00900  0.14130  Biso   1.000  H
  S10      1.0000 0.34046  0.41162  0.60896  Biso   1.000  S
  C10      1.0000 0.39500  0.33660  0.67210  Biso   1.000  C
  O28      1.0000 0.37470  0.40590  0.53020  Biso   1.000  O
  O29      1.0000 0.36590  0.49120  0.65140  Biso   1.000  O
  O30      1.0000 0.24340  0.39810  0.37790  Biso   1.000  O
  F28      1.0000 0.36730  0.33900  0.74710  Biso   1.000  F
  F29      1.0000 0.47100  0.35010  0.67310  Biso   1.000  F
  F30      1.0000 0.38140  0.26310  0.64200  Biso   1.000  F
  H10      1.0000 0.42040  0.50900  0.64130  Biso   1.000  H
  S11      1.0000 0.34046  0.58838  0.89104  Biso   1.000  S
  C11      1.0000 0.39500  0.66340  0.82790  Biso   1.000  C
  O31      1.0000 0.37470  0.59410  0.96980  Biso   1.000  O
  O32      1.0000 0.36590  0.50880  0.84860  Biso   1.000  O
  O33      1.0000 0.24340  0.60190  0.12210  Biso   1.000  O
  F31      1.0000 0.36730  0.66100  0.75290  Biso   1.000  F
  F32      1.0000 0.47100  0.64990  0.82690  Biso   1.000  F
  F33      1.0000 0.38140  0.73690  0.85800  Biso   1.000  F
  H11      1.0000 0.42040  0.49100  0.85870  Biso   1.000  H
  S12      1.0000 0.84046  0.08838  0.39104  Biso   1.000  S
  C12      1.0000 0.89500  0.16340  0.32790  Biso   1.000  C
  O34      1.0000 0.87470  0.09410  0.46980  Biso   1.000  O
  O35      1.0000 0.86590  0.00880  0.34860  Biso   1.000  O
  O36      1.0000 0.74340  0.10190  0.62210  Biso   1.000  O
  F34      1.0000 0.86730  0.16100  0.25290  Biso   1.000  F
  F35      1.0000 0.97100  0.14990  0.32690  Biso   1.000  F
  F36      1.0000 0.88140  0.23690  0.35800  Biso   1.000  F
  H12      1.0000 0.92040  0.99100  0.35870  Biso   1.000  H
  S13      1.0000 0.65954  0.08838  0.60896  Biso   1.000  S
  C13      1.0000 0.60500  0.16340  0.67210  Biso   1.000  C
  O37      1.0000 0.62530  0.09410  0.53020  Biso   1.000  O
  O38      1.0000 0.63410  0.00880  0.65140  Biso   1.000  O
  O39      1.0000 0.75660  0.10190  0.37790  Biso   1.000  O
  F37      1.0000 0.63270  0.16100  0.74710  Biso   1.000  F
  F38      1.0000 0.52900  0.14990  0.67310  Biso   1.000  F
  F39      1.0000 0.61860  0.23690  0.64200  Biso   1.000  F
  H13      1.0000 0.57960  0.99100  0.64130  Biso   1.000  H
  S14      1.0000 0.15954  0.58838  0.10896  Biso   1.000  S
  C14      1.0000 0.10500  0.66340  0.17210  Biso   1.000  C
  O40      1.0000 0.12530  0.59410  0.03020  Biso   1.000  O
  O41      1.0000 0.13410  0.50880  0.15140  Biso   1.000  O
  O42      1.0000 0.25660  0.60190  0.87790  Biso   1.000  O
  F40      1.0000 0.13270  0.66100  0.24710  Biso   1.000  F
  F41      1.0000 0.02900  0.64990  0.17310  Biso   1.000  F
  F42      1.0000 0.11860  0.73690  0.14200  Biso   1.000  F
  H14      1.0000 0.07960  0.49100  0.14130  Biso   1.000  H
  S15      1.0000 0.15954  0.41162  0.39104  Biso   1.000  S
  C15      1.0000 0.10500  0.33660  0.32790  Biso   1.000  C
  O43      1.0000 0.12530  0.40590  0.46980  Biso   1.000  O
  O44      1.0000 0.13410  0.49120  0.34860  Biso   1.000  O
  O45      1.0000 0.25660  0.39810  0.62210  Biso   1.000  O
  F43      1.0000 0.13270  0.33900  0.25290  Biso   1.000  F
  F44      1.0000 0.02900  0.35010  0.32690  Biso   1.000  F
  F45      1.0000 0.11860  0.26310  0.35800  Biso   1.000  F
  H15      1.0000 0.07960  0.50900  0.35870  Biso   1.000  H
  S16      1.0000 0.65954  0.91162  0.89104  Biso   1.000  S
  C16      1.0000 0.60500  0.83660  0.82790  Biso   1.000  C
  O46      1.0000 0.62530  0.90590  0.96980  Biso   1.000  O
  O47      1.0000 0.63410  0.99120  0.84860  Biso   1.000  O
  O48      1.0000 0.75660  0.89810  0.12210  Biso   1.000  O
  F46      1.0000 0.63270  0.83900  0.75290  Biso   1.000  F
  F47      1.0000 0.52900  0.85010  0.82690  Biso   1.000  F
  F48      1.0000 0.61860  0.76310  0.85800  Biso   1.000  F
  H16      1.0000 0.57960  0.00900  0.85870  Biso   1.000  H
  S17      1.0000 0.10896  0.84046  0.91162  Biso   1.000  S
  C17      1.0000 0.17210  0.89500  0.83660  Biso   1.000  C
  O49      1.0000 0.03020  0.87470  0.90590  Biso   1.000  O
  O50      1.0000 0.15140  0.86590  0.99120  Biso   1.000  O
  O51      1.0000 0.87790  0.74340  0.89810  Biso   1.000  O
  F49      1.0000 0.24710  0.86730  0.83900  Biso   1.000  F
  F50      1.0000 0.17310  0.97100  0.85010  Biso   1.000  F
  F51      1.0000 0.14200  0.88140  0.76310  Biso   1.000  F
  H17      1.0000 0.14130  0.92040  0.00900  Biso   1.000  H
  S18      1.0000 0.60896  0.34046  0.41162  Biso   1.000  S
  C18      1.0000 0.67210  0.39500  0.33660  Biso   1.000  C
  O52      1.0000 0.53020  0.37470  0.40590  Biso   1.000  O
  O53      1.0000 0.65140  0.36590  0.49120  Biso   1.000  O
  O54      1.0000 0.37790  0.24340  0.39810  Biso   1.000  O
  F52      1.0000 0.74710  0.36730  0.33900  Biso   1.000  F
  F53      1.0000 0.67310  0.47100  0.35010  Biso   1.000  F
  F54      1.0000 0.64200  0.38140  0.26310  Biso   1.000  F
  H18      1.0000 0.64130  0.42040  0.50900  Biso   1.000  H
  S19      1.0000 0.89104  0.34046  0.58838  Biso   1.000  S
  C19      1.0000 0.82790  0.39500  0.66340  Biso   1.000  C
  O55      1.0000 0.96980  0.37470  0.59410  Biso   1.000  O
  O56      1.0000 0.84860  0.36590  0.50880  Biso   1.000  O
  O57      1.0000 0.12210  0.24340  0.60190  Biso   1.000  O
  F55      1.0000 0.75290  0.36730  0.66100  Biso   1.000  F
  F56      1.0000 0.82690  0.47100  0.64990  Biso   1.000  F
  F57      1.0000 0.85800  0.38140  0.73690  Biso   1.000  F
  H19      1.0000 0.85870  0.42040  0.49100  Biso   1.000  H
  S20      1.0000 0.39104  0.84046  0.08838  Biso   1.000  S
  C20      1.0000 0.32790  0.89500  0.16340  Biso   1.000  C
  O58      1.0000 0.46980  0.87470  0.09410  Biso   1.000  O
  O59      1.0000 0.34860  0.86590  0.00880  Biso   1.000  O
  O60      1.0000 0.62210  0.74340  0.10190  Biso   1.000  O
  F58      1.0000 0.25290  0.86730  0.16100  Biso   1.000  F
  F59      1.0000 0.32690  0.97100  0.14990  Biso   1.000  F
  F60      1.0000 0.35800  0.88140  0.23690  Biso   1.000  F
  H20      1.0000 0.35870  0.92040  0.99100  Biso   1.000  H
  S21      1.0000 0.60896  0.65954  0.08838  Biso   1.000  S
  C21      1.0000 0.67210  0.60500  0.16340  Biso   1.000  C
  O61      1.0000 0.53020  0.62530  0.09410  Biso   1.000  O
  O62      1.0000 0.65140  0.63410  0.00880  Biso   1.000  O
  O63      1.0000 0.37790  0.75660  0.10190  Biso   1.000  O
  F61      1.0000 0.74710  0.63270  0.16100  Biso   1.000  F
  F62      1.0000 0.67310  0.52900  0.14990  Biso   1.000  F
  F63      1.0000 0.64200  0.61860  0.23690  Biso   1.000  F
  H21      1.0000 0.64130  0.57960  0.99100  Biso   1.000  H
  S22      1.0000 0.10896  0.15954  0.58838  Biso   1.000  S
  C22      1.0000 0.17210  0.10500  0.66340  Biso   1.000  C
  O64      1.0000 0.03020  0.12530  0.59410  Biso   1.000  O
  O65      1.0000 0.15140  0.13410  0.50880  Biso   1.000  O
  O66      1.0000 0.87790  0.25660  0.60190  Biso   1.000  O
  F64      1.0000 0.24710  0.13270  0.66100  Biso   1.000  F
  F65      1.0000 0.17310  0.02900  0.64990  Biso   1.000  F
  F66      1.0000 0.14200  0.11860  0.73690  Biso   1.000  F
  H22      1.0000 0.14130  0.07960  0.49100  Biso   1.000  H
  S23      1.0000 0.39104  0.15954  0.41162  Biso   1.000  S
  C23      1.0000 0.32790  0.10500  0.33660  Biso   1.000  C
  O67      1.0000 0.46980  0.12530  0.40590  Biso   1.000  O
  O68      1.0000 0.34860  0.13410  0.49120  Biso   1.000  O
  O69      1.0000 0.62210  0.25660  0.39810  Biso   1.000  O
  F67      1.0000 0.25290  0.13270  0.33900  Biso   1.000  F
  F68      1.0000 0.32690  0.02900  0.35010  Biso   1.000  F
  F69      1.0000 0.35800  0.11860  0.26310  Biso   1.000  F
  H23      1.0000 0.35870  0.07960  0.50900  Biso   1.000  H
  S24      1.0000 0.89104  0.65954  0.91162  Biso   1.000  S
  C24      1.0000 0.82790  0.60500  0.83660  Biso   1.000  C
  O70      1.0000 0.96980  0.62530  0.90590  Biso   1.000  O
  O71      1.0000 0.84860  0.63410  0.99120  Biso   1.000  O
  O72      1.0000 0.12210  0.75660  0.89810  Biso   1.000  O
  F70      1.0000 0.75290  0.63270  0.83900  Biso   1.000  F
  F71      1.0000 0.82690  0.52900  0.85010  Biso   1.000  F
  F72      1.0000 0.85800  0.61860  0.76310  Biso   1.000  F
  H24      1.0000 0.85870  0.57960  0.00900  Biso   1.000  H
  Na1      1.0000 0.88665  0.88665  0.88665  Biso   1.000  Na
  Na2      1.0000 0.38665  0.38665  0.38665  Biso   1.000  Na
  Na3      1.0000 0.61335  0.11335  0.38665  Biso   1.000  Na
  Na4      1.0000 0.11335  0.61335  0.88665  Biso   1.000  Na
  Na5      1.0000 0.11335  0.38665  0.61335  Biso   1.000  Na
  Na6      1.0000 0.61335  0.88665  0.11335  Biso   1.000  Na
  Na7      1.0000 0.38665  0.61335  0.11335  Biso   1.000  Na
  Na8      1.0000 0.88665  0.11335  0.61335  Biso   1.000  Na
