data_SIPVOD_clean
_audit_creation_date              2014-07-02
_audit_creation_method            'Materials Studio'
_symmetry_space_group_name_H-M    'P1'
_symmetry_Int_Tables_number       1
_symmetry_cell_setting            triclinic
loop_
_symmetry_equiv_pos_as_xyz
  x,y,z
_cell_length_a                    5.4590
_cell_length_b                    26.5981
_cell_length_c                    36.7601
_cell_angle_alpha                 90.0000
_cell_angle_beta                  90.0000
_cell_angle_gamma                 91.4060
loop_
_atom_site_label
_atom_site_type_symbol
_atom_site_fract_x
_atom_site_fract_y
_atom_site_fract_z
_atom_site_U_iso_or_equiv
_atom_site_adp_type
_atom_site_occupancy
U1     U     0.89873   0.53673   0.06285   0.01267  Uiso   1.00
U2     U     0.68471   0.61862   0.19080   0.01267  Uiso   1.00
U3     U     0.44725   0.03806   0.09971   0.01267  Uiso   1.00
U4     U     0.10127   0.96327   0.56285   0.01267  Uiso   1.00
U5     U     0.31529   0.88138   0.69080   0.01267  Uiso   1.00
U6     U     0.55275   0.46194   0.59971   0.01267  Uiso   1.00
U7     U     0.10127   0.46327   0.93715   0.01267  Uiso   1.00
U8     U     0.31529   0.38138   0.80920   0.01267  Uiso   1.00
U9     U     0.55275   0.96194   0.90029   0.01267  Uiso   1.00
U10    U     0.89873   0.03673   0.43715   0.01267  Uiso   1.00
U11    U     0.68471   0.11862   0.30920   0.01267  Uiso   1.00
U12    U     0.44725   0.53806   0.40029   0.01267  Uiso   1.00
H1     H     0.91830   0.31030   0.17130   0.01267  Uiso   1.00
H2     H     0.60050   0.57680   0.94140   0.01267  Uiso   1.00
H3     H     0.19700   0.66610   0.00460   0.01267  Uiso   1.00
H4     H     0.43740   0.65500   0.07360   0.01267  Uiso   1.00
H5     H     0.65170   0.41000   0.13410   0.01267  Uiso   1.00
H6     H     0.93320   0.75460   0.98610   0.01267  Uiso   1.00
H7     H     0.41270   0.73540   0.98350   0.01267  Uiso   1.00
H8     H     0.20140   0.50320   0.18490   0.01267  Uiso   1.00
H9     H     0.75910   0.23930   0.19930   0.01267  Uiso   1.00
H10    H     0.90290   0.82640   0.87170   0.01267  Uiso   1.00
H11    H     0.27170   0.79860   0.13920   0.01267  Uiso   1.00
H12    H     0.01660   0.72950   0.14370   0.01267  Uiso   1.00
H13    H     0.17290   0.82470   0.97300   0.01267  Uiso   1.00
H14    H     0.74500   0.81350   0.15430   0.01267  Uiso   1.00
H15    H     0.46720   0.34260   0.16360   0.01267  Uiso   1.00
H16    H     0.98390   0.88630   0.15790   0.01267  Uiso   1.00
H17    H     0.16790   0.27010   0.28770   0.01267  Uiso   1.00
H18    H     0.86210   0.91330   0.05260   0.01267  Uiso   1.00
H19    H     0.29260   0.09620   0.05260   0.01267  Uiso   1.00
H20    H     0.06630   0.06910   0.07100   0.01267  Uiso   1.00
H21    H     0.81140   0.03380   0.14000   0.01267  Uiso   1.00
H22    H     0.73320   0.97900   0.12840   0.01267  Uiso   1.00
H23    H     0.36120   0.10120   0.14600   0.01267  Uiso   1.00
H24    H     0.30930   0.04800   0.16300   0.01267  Uiso   1.00
H25    H     0.75170   0.02550   0.05300   0.01267  Uiso   1.00
H26    H     0.50900   0.99640   0.04240   0.01267  Uiso   1.00
H27    H     0.08170   0.18970   0.67130   0.01267  Uiso   1.00
H28    H     0.39950   0.92320   0.44140   0.01267  Uiso   1.00
H29    H     0.80300   0.83390   0.50460   0.01267  Uiso   1.00
H30    H     0.56260   0.84500   0.57360   0.01267  Uiso   1.00
H31    H     0.34830   0.09000   0.63410   0.01267  Uiso   1.00
H32    H     0.06680   0.74540   0.48610   0.01267  Uiso   1.00
H33    H     0.58730   0.76460   0.48350   0.01267  Uiso   1.00
H34    H     0.79860   0.99680   0.68490   0.01267  Uiso   1.00
H35    H     0.24090   0.26070   0.69930   0.01267  Uiso   1.00
H36    H     0.09710   0.67360   0.37170   0.01267  Uiso   1.00
H37    H     0.72830   0.70140   0.63920   0.01267  Uiso   1.00
H38    H     0.98340   0.77050   0.64370   0.01267  Uiso   1.00
H39    H     0.82710   0.67530   0.47300   0.01267  Uiso   1.00
H40    H     0.25500   0.68650   0.65430   0.01267  Uiso   1.00
H41    H     0.53280   0.15740   0.66360   0.01267  Uiso   1.00
H42    H     0.01610   0.61370   0.65790   0.01267  Uiso   1.00
H43    H     0.83210   0.22990   0.78770   0.01267  Uiso   1.00
H44    H     0.13790   0.58670   0.55260   0.01267  Uiso   1.00
H45    H     0.70740   0.40380   0.55260   0.01267  Uiso   1.00
H46    H     0.93370   0.43090   0.57100   0.01267  Uiso   1.00
H47    H     0.18860   0.46620   0.64000   0.01267  Uiso   1.00
H48    H     0.26680   0.52100   0.62840   0.01267  Uiso   1.00
H49    H     0.63880   0.39880   0.64600   0.01267  Uiso   1.00
H50    H     0.69070   0.45200   0.66300   0.01267  Uiso   1.00
H51    H     0.24830   0.47450   0.55300   0.01267  Uiso   1.00
H52    H     0.49100   0.50360   0.54240   0.01267  Uiso   1.00
H53    H     0.08170   0.68970   0.82870   0.01267  Uiso   1.00
H54    H     0.39950   0.42320   0.05860   0.01267  Uiso   1.00
H55    H     0.80300   0.33390   0.99540   0.01267  Uiso   1.00
H56    H     0.56260   0.34500   0.92640   0.01267  Uiso   1.00
H57    H     0.34830   0.59000   0.86590   0.01267  Uiso   1.00
H58    H     0.06680   0.24540   0.01390   0.01267  Uiso   1.00
H59    H     0.58730   0.26460   0.01650   0.01267  Uiso   1.00
H60    H     0.79860   0.49680   0.81510   0.01267  Uiso   1.00
H61    H     0.24090   0.76070   0.80070   0.01267  Uiso   1.00
H62    H     0.09710   0.17360   0.12830   0.01267  Uiso   1.00
H63    H     0.72830   0.20140   0.86080   0.01267  Uiso   1.00
H64    H     0.98340   0.27050   0.85630   0.01267  Uiso   1.00
H65    H     0.82710   0.17530   0.02700   0.01267  Uiso   1.00
H66    H     0.25500   0.18650   0.84570   0.01267  Uiso   1.00
H67    H     0.53280   0.65740   0.83640   0.01267  Uiso   1.00
H68    H     0.01610   0.11370   0.84210   0.01267  Uiso   1.00
H69    H     0.83210   0.72990   0.71230   0.01267  Uiso   1.00
H70    H     0.13790   0.08670   0.94740   0.01267  Uiso   1.00
H71    H     0.70740   0.90380   0.94740   0.01267  Uiso   1.00
H72    H     0.93370   0.93090   0.92900   0.01267  Uiso   1.00
H73    H     0.18860   0.96620   0.86000   0.01267  Uiso   1.00
H74    H     0.26680   0.02100   0.87160   0.01267  Uiso   1.00
H75    H     0.63880   0.89880   0.85400   0.01267  Uiso   1.00
H76    H     0.69070   0.95200   0.83700   0.01267  Uiso   1.00
H77    H     0.24830   0.97450   0.94700   0.01267  Uiso   1.00
H78    H     0.49100   0.00360   0.95760   0.01267  Uiso   1.00
H79    H     0.91830   0.81030   0.32870   0.01267  Uiso   1.00
H80    H     0.60050   0.07680   0.55860   0.01267  Uiso   1.00
H81    H     0.19700   0.16610   0.49540   0.01267  Uiso   1.00
H82    H     0.43740   0.15500   0.42640   0.01267  Uiso   1.00
H83    H     0.65170   0.91000   0.36590   0.01267  Uiso   1.00
H84    H     0.93320   0.25460   0.51390   0.01267  Uiso   1.00
H85    H     0.41270   0.23540   0.51650   0.01267  Uiso   1.00
H86    H     0.20140   0.00320   0.31510   0.01267  Uiso   1.00
H87    H     0.75910   0.73930   0.30070   0.01267  Uiso   1.00
H88    H     0.90290   0.32640   0.62830   0.01267  Uiso   1.00
H89    H     0.27170   0.29860   0.36080   0.01267  Uiso   1.00
H90    H     0.01660   0.22950   0.35630   0.01267  Uiso   1.00
H91    H     0.17290   0.32470   0.52700   0.01267  Uiso   1.00
H92    H     0.74500   0.31350   0.34570   0.01267  Uiso   1.00
H93    H     0.46720   0.84260   0.33640   0.01267  Uiso   1.00
H94    H     0.98390   0.38630   0.34210   0.01267  Uiso   1.00
H95    H     0.16790   0.77010   0.21230   0.01267  Uiso   1.00
H96    H     0.86210   0.41330   0.44740   0.01267  Uiso   1.00
H97    H     0.29260   0.59620   0.44740   0.01267  Uiso   1.00
H98    H     0.06630   0.56910   0.42900   0.01267  Uiso   1.00
H99    H     0.81140   0.53380   0.36000   0.01267  Uiso   1.00
H100   H     0.73320   0.47900   0.37160   0.01267  Uiso   1.00
H101   H     0.36120   0.60120   0.35400   0.01267  Uiso   1.00
H102   H     0.30930   0.54800   0.33700   0.01267  Uiso   1.00
H103   H     0.75170   0.52550   0.44700   0.01267  Uiso   1.00
H104   H     0.50900   0.49640   0.45760   0.01267  Uiso   1.00
C1     C     0.96490   0.30290   0.19500   0.01267  Uiso   1.00
C2     C     0.23010   0.56940   0.98700   0.01267  Uiso   1.00
C3     C     0.03720   0.63970   0.11420   0.01267  Uiso   1.00
C4     C     0.69010   0.65140   0.93770   0.01267  Uiso   1.00
C5     C     0.63190   0.69990   0.94810   0.01267  Uiso   1.00
C6     C     0.37440   0.61420   0.97480   0.01267  Uiso   1.00
C7     C     0.45010   0.46360   0.15760   0.01267  Uiso   1.00
C8     C     0.56110   0.60860   0.94990   0.01267  Uiso   1.00
C9     C     0.12530   0.95110   0.10640   0.01267  Uiso   1.00
C10    C     0.58220   0.50860   0.14150   0.01267  Uiso   1.00
C11    C     0.54880   0.72720   0.08230   0.01267  Uiso   1.00
C12    C     0.76110   0.77110   0.90330   0.01267  Uiso   1.00
C13    C     0.32020   0.66220   0.98740   0.01267  Uiso   1.00
C14    C     0.65350   0.81930   0.10160   0.01267  Uiso   1.00
C15    C     0.20020   0.68490   0.10920   0.01267  Uiso   1.00
C16    C     0.94800   0.24740   0.24580   0.01267  Uiso   1.00
C17    C     0.40120   0.68410   0.08630   0.01267  Uiso   1.00
C18    C     0.77140   0.74690   0.93720   0.01267  Uiso   1.00
C19    C     0.23100   0.38130   0.19420   0.01267  Uiso   1.00
C20    C     0.52670   0.41530   0.15080   0.01267  Uiso   1.00
C21    C     0.50260   0.77140   0.10160   0.01267  Uiso   1.00
C22    C     0.92690   0.76860   0.96290   0.01267  Uiso   1.00
C23    C     0.95540   0.90600   0.10550   0.01267  Uiso   1.00
C24    C     0.12750   0.33570   0.21320   0.01267  Uiso   1.00
C25    C     0.44890   0.70380   0.97450   0.01267  Uiso   1.00
C26    C     0.14990   0.43060   0.19890   0.01267  Uiso   1.00
C27    C     0.19770   0.32190   0.24760   0.01267  Uiso   1.00
C28    C     0.25830   0.47100   0.18110   0.01267  Uiso   1.00
C29    C     0.87240   0.25980   0.21140   0.01267  Uiso   1.00
C30    C     0.91010   0.81190   0.89470   0.01267  Uiso   1.00
C31    C     0.30330   0.77030   0.12520   0.01267  Uiso   1.00
C32    C     0.15250   0.72860   0.12840   0.01267  Uiso   1.00
C33    C     0.07260   0.83140   0.92080   0.01267  Uiso   1.00
C34    C     0.24190   0.87490   0.91280   0.01267  Uiso   1.00
C35    C     0.07350   0.81060   0.95500   0.01267  Uiso   1.00
C36    C     0.76690   0.83340   0.13370   0.01267  Uiso   1.00
C37    C     0.41600   0.37500   0.16880   0.01267  Uiso   1.00
C38    C     0.68650   0.85110   0.07200   0.01267  Uiso   1.00
C39    C     0.91400   0.87690   0.13580   0.01267  Uiso   1.00
C40    C     0.11500   0.27840   0.26450   0.01267  Uiso   1.00
C41    C     0.83900   0.89350   0.07320   0.01267  Uiso   1.00
C42    C     0.84500   0.20280   0.26620   0.01267  Uiso   1.00
C43    C     0.03510   0.19710   0.69500   0.01267  Uiso   1.00
C44    C     0.76990   0.93060   0.48700   0.01267  Uiso   1.00
C45    C     0.96280   0.86030   0.61420   0.01267  Uiso   1.00
C46    C     0.30990   0.84860   0.43770   0.01267  Uiso   1.00
C47    C     0.36810   0.80010   0.44810   0.01267  Uiso   1.00
C48    C     0.62560   0.88580   0.47480   0.01267  Uiso   1.00
C49    C     0.54990   0.03640   0.65760   0.01267  Uiso   1.00
C50    C     0.43890   0.89140   0.44990   0.01267  Uiso   1.00
C51    C     0.87470   0.54890   0.60640   0.01267  Uiso   1.00
C52    C     0.41780   0.99140   0.64150   0.01267  Uiso   1.00
C53    C     0.45120   0.77280   0.58230   0.01267  Uiso   1.00
C54    C     0.23890   0.72890   0.40330   0.01267  Uiso   1.00
C55    C     0.67980   0.83780   0.48740   0.01267  Uiso   1.00
C56    C     0.34650   0.68070   0.60160   0.01267  Uiso   1.00
C57    C     0.79980   0.81510   0.60920   0.01267  Uiso   1.00
C58    C     0.05200   0.25260   0.74580   0.01267  Uiso   1.00
C59    C     0.59880   0.81590   0.58630   0.01267  Uiso   1.00
C60    C     0.22860   0.75310   0.43720   0.01267  Uiso   1.00
C61    C     0.76900   0.11870   0.69420   0.01267  Uiso   1.00
C62    C     0.47330   0.08470   0.65080   0.01267  Uiso   1.00
C63    C     0.49740   0.72860   0.60160   0.01267  Uiso   1.00
C64    C     0.07310   0.73140   0.46290   0.01267  Uiso   1.00
C65    C     0.04460   0.59400   0.60550   0.01267  Uiso   1.00
C66    C     0.87250   0.16430   0.71320   0.01267  Uiso   1.00
C67    C     0.55110   0.79620   0.47450   0.01267  Uiso   1.00
C68    C     0.85010   0.06940   0.69890   0.01267  Uiso   1.00
C69    C     0.80230   0.17810   0.74760   0.01267  Uiso   1.00
C70    C     0.74170   0.02900   0.68110   0.01267  Uiso   1.00
C71    C     0.12760   0.24020   0.71140   0.01267  Uiso   1.00
C72    C     0.08990   0.68810   0.39470   0.01267  Uiso   1.00
C73    C     0.69670   0.72970   0.62520   0.01267  Uiso   1.00
C74    C     0.84750   0.77140   0.62840   0.01267  Uiso   1.00
C75    C     0.92740   0.66860   0.42080   0.01267  Uiso   1.00
C76    C     0.75810   0.62510   0.41280   0.01267  Uiso   1.00
C77    C     0.92650   0.68940   0.45500   0.01267  Uiso   1.00
C78    C     0.23310   0.66660   0.63370   0.01267  Uiso   1.00
C79    C     0.58400   0.12500   0.66880   0.01267  Uiso   1.00
C80    C     0.31350   0.64890   0.57200   0.01267  Uiso   1.00
C81    C     0.08600   0.62310   0.63580   0.01267  Uiso   1.00
C82    C     0.88500   0.22160   0.76450   0.01267  Uiso   1.00
C83    C     0.16100   0.60650   0.57320   0.01267  Uiso   1.00
C84    C     0.15500   0.29720   0.76620   0.01267  Uiso   1.00
C85    C     0.03510   0.69710   0.80500   0.01267  Uiso   1.00
C86    C     0.76990   0.43060   0.01300   0.01267  Uiso   1.00
C87    C     0.96280   0.36030   0.88580   0.01267  Uiso   1.00
C88    C     0.30990   0.34860   0.06230   0.01267  Uiso   1.00
C89    C     0.36810   0.30010   0.05190   0.01267  Uiso   1.00
C90    C     0.62560   0.38580   0.02520   0.01267  Uiso   1.00
C91    C     0.54990   0.53640   0.84240   0.01267  Uiso   1.00
C92    C     0.43890   0.39140   0.05010   0.01267  Uiso   1.00
C93    C     0.87470   0.04890   0.89360   0.01267  Uiso   1.00
C94    C     0.41780   0.49140   0.85850   0.01267  Uiso   1.00
C95    C     0.45120   0.27280   0.91770   0.01267  Uiso   1.00
C96    C     0.23890   0.22890   0.09670   0.01267  Uiso   1.00
C97    C     0.67980   0.33780   0.01260   0.01267  Uiso   1.00
C98    C     0.34650   0.18070   0.89840   0.01267  Uiso   1.00
C99    C     0.79980   0.31510   0.89080   0.01267  Uiso   1.00
C100   C     0.05200   0.75260   0.75420   0.01267  Uiso   1.00
C101   C     0.59880   0.31590   0.91370   0.01267  Uiso   1.00
C102   C     0.22860   0.25310   0.06280   0.01267  Uiso   1.00
C103   C     0.76900   0.61870   0.80580   0.01267  Uiso   1.00
C104   C     0.47330   0.58470   0.84920   0.01267  Uiso   1.00
C105   C     0.49740   0.22860   0.89840   0.01267  Uiso   1.00
C106   C     0.07310   0.23140   0.03710   0.01267  Uiso   1.00
C107   C     0.04460   0.09400   0.89450   0.01267  Uiso   1.00
C108   C     0.87250   0.66430   0.78680   0.01267  Uiso   1.00
C109   C     0.55110   0.29620   0.02550   0.01267  Uiso   1.00
C110   C     0.85010   0.56940   0.80110   0.01267  Uiso   1.00
C111   C     0.80230   0.67810   0.75240   0.01267  Uiso   1.00
C112   C     0.74170   0.52900   0.81890   0.01267  Uiso   1.00
C113   C     0.12760   0.74020   0.78860   0.01267  Uiso   1.00
C114   C     0.08990   0.18810   0.10530   0.01267  Uiso   1.00
C115   C     0.69670   0.22970   0.87480   0.01267  Uiso   1.00
C116   C     0.84750   0.27140   0.87160   0.01267  Uiso   1.00
C117   C     0.92740   0.16860   0.07920   0.01267  Uiso   1.00
C118   C     0.75810   0.12510   0.08720   0.01267  Uiso   1.00
C119   C     0.92650   0.18940   0.04500   0.01267  Uiso   1.00
C120   C     0.23310   0.16660   0.86630   0.01267  Uiso   1.00
C121   C     0.58400   0.62500   0.83120   0.01267  Uiso   1.00
C122   C     0.31350   0.14890   0.92800   0.01267  Uiso   1.00
C123   C     0.08600   0.12310   0.86420   0.01267  Uiso   1.00
C124   C     0.88500   0.72160   0.73550   0.01267  Uiso   1.00
C125   C     0.16100   0.10650   0.92680   0.01267  Uiso   1.00
C126   C     0.15500   0.79720   0.73380   0.01267  Uiso   1.00
C127   C     0.96490   0.80290   0.30500   0.01267  Uiso   1.00
C128   C     0.23010   0.06940   0.51300   0.01267  Uiso   1.00
C129   C     0.03720   0.13970   0.38580   0.01267  Uiso   1.00
C130   C     0.69010   0.15140   0.56230   0.01267  Uiso   1.00
C131   C     0.63190   0.19990   0.55190   0.01267  Uiso   1.00
C132   C     0.37440   0.11420   0.52520   0.01267  Uiso   1.00
C133   C     0.45010   0.96360   0.34240   0.01267  Uiso   1.00
C134   C     0.56110   0.10860   0.55010   0.01267  Uiso   1.00
C135   C     0.12530   0.45110   0.39360   0.01267  Uiso   1.00
C136   C     0.58220   0.00860   0.35850   0.01267  Uiso   1.00
C137   C     0.54880   0.22720   0.41770   0.01267  Uiso   1.00
C138   C     0.76110   0.27110   0.59670   0.01267  Uiso   1.00
C139   C     0.32020   0.16220   0.51260   0.01267  Uiso   1.00
C140   C     0.65350   0.31930   0.39840   0.01267  Uiso   1.00
C141   C     0.20020   0.18490   0.39080   0.01267  Uiso   1.00
C142   C     0.94800   0.74740   0.25420   0.01267  Uiso   1.00
C143   C     0.40120   0.18410   0.41370   0.01267  Uiso   1.00
C144   C     0.77140   0.24690   0.56280   0.01267  Uiso   1.00
C145   C     0.23100   0.88130   0.30580   0.01267  Uiso   1.00
C146   C     0.52670   0.91530   0.34920   0.01267  Uiso   1.00
C147   C     0.50260   0.27140   0.39840   0.01267  Uiso   1.00
C148   C     0.92690   0.26860   0.53710   0.01267  Uiso   1.00
C149   C     0.95540   0.40600   0.39450   0.01267  Uiso   1.00
C150   C     0.12750   0.83570   0.28680   0.01267  Uiso   1.00
C151   C     0.44890   0.20380   0.52550   0.01267  Uiso   1.00
C152   C     0.14990   0.93060   0.30110   0.01267  Uiso   1.00
C153   C     0.19770   0.82190   0.25240   0.01267  Uiso   1.00
C154   C     0.25830   0.97100   0.31890   0.01267  Uiso   1.00
C155   C     0.87240   0.75980   0.28860   0.01267  Uiso   1.00
C156   C     0.91010   0.31190   0.60530   0.01267  Uiso   1.00
C157   C     0.30330   0.27030   0.37480   0.01267  Uiso   1.00
C158   C     0.15250   0.22860   0.37160   0.01267  Uiso   1.00
C159   C     0.07260   0.33140   0.57920   0.01267  Uiso   1.00
C160   C     0.24190   0.37490   0.58720   0.01267  Uiso   1.00
C161   C     0.07350   0.31060   0.54500   0.01267  Uiso   1.00
C162   C     0.76690   0.33340   0.36630   0.01267  Uiso   1.00
C163   C     0.41600   0.87500   0.33120   0.01267  Uiso   1.00
C164   C     0.68650   0.35110   0.42800   0.01267  Uiso   1.00
C165   C     0.91400   0.37690   0.36420   0.01267  Uiso   1.00
C166   C     0.11500   0.77840   0.23550   0.01267  Uiso   1.00
C167   C     0.83900   0.39350   0.42680   0.01267  Uiso   1.00
C168   C     0.84500   0.70280   0.23380   0.01267  Uiso   1.00
N1     N     0.88920   0.64230   0.91140   0.01267  Uiso   1.00
N2     N     0.75950   0.72270   0.05780   0.01267  Uiso   1.00
N3     N     0.58780   0.75400   0.87530   0.01267  Uiso   1.00
N4     N     0.95100   0.44090   0.22400   0.01267  Uiso   1.00
N5     N     0.55900   0.84190   0.03730   0.01267  Uiso   1.00
N6     N     0.36500   0.35360   0.26920   0.01267  Uiso   1.00
N7     N     0.11080   0.85770   0.41140   0.01267  Uiso   1.00
N8     N     0.24050   0.77730   0.55780   0.01267  Uiso   1.00
N9     N     0.41220   0.74600   0.37530   0.01267  Uiso   1.00
N10    N     0.04900   0.05910   0.72400   0.01267  Uiso   1.00
N11    N     0.44100   0.65810   0.53730   0.01267  Uiso   1.00
N12    N     0.63500   0.14640   0.76920   0.01267  Uiso   1.00
N13    N     0.11080   0.35770   0.08860   0.01267  Uiso   1.00
N14    N     0.24050   0.27730   0.94220   0.01267  Uiso   1.00
N15    N     0.41220   0.24600   0.12470   0.01267  Uiso   1.00
N16    N     0.04900   0.55910   0.77600   0.01267  Uiso   1.00
N17    N     0.44100   0.15810   0.96270   0.01267  Uiso   1.00
N18    N     0.63500   0.64640   0.73080   0.01267  Uiso   1.00
N19    N     0.88920   0.14230   0.58860   0.01267  Uiso   1.00
N20    N     0.75950   0.22270   0.44220   0.01267  Uiso   1.00
N21    N     0.58780   0.25400   0.62470   0.01267  Uiso   1.00
N22    N     0.95100   0.94090   0.27600   0.01267  Uiso   1.00
N23    N     0.55900   0.34190   0.46270   0.01267  Uiso   1.00
N24    N     0.36500   0.85360   0.23080   0.01267  Uiso   1.00
O1     O     0.07400   0.57480   0.01190   0.01267  Uiso   1.00
O2     O     0.08390   0.60110   0.09555   0.01267  Uiso   1.00
O3     O     0.72250   0.50160   0.11495   0.01267  Uiso   1.00
O4     O     0.55080   0.55020   0.15577   0.01267  Uiso   1.00
O5     O     0.20200   0.96740   0.07750   0.01267  Uiso   1.00
O6     O     0.86050   0.64190   0.13607   0.01267  Uiso   1.00
O7     O     0.98380   0.60160   0.91200   0.01267  Uiso   1.00
O8     O     0.89030   0.75980   0.05250   0.01267  Uiso   1.00
O9     O     0.79900   0.68240   0.04410   0.01267  Uiso   1.00
O10    O     0.94650   0.67510   0.89020   0.01267  Uiso   1.00
O11    O     0.41710   0.72670   0.88410   0.01267  Uiso   1.00
O12    O     0.62610   0.76750   0.84410   0.01267  Uiso   1.00
O13    O     0.32600   0.90040   0.93760   0.01267  Uiso   1.00
O14    O     0.38700   0.81370   0.03690   0.01267  Uiso   1.00
O15    O     0.19600   0.97120   0.13350   0.01267  Uiso   1.00
O16    O     0.83800   0.40940   0.23700   0.01267  Uiso   1.00
O17    O     0.34700   0.39740   0.26770   0.01267  Uiso   1.00
O18    O     0.88490   0.19910   0.29987   0.01267  Uiso   1.00
O19    O     0.72490   0.16830   0.25049   0.01267  Uiso   1.00
O20    O     0.63500   0.86250   0.01050   0.01267  Uiso   1.00
O21    O     0.87400   0.48040   0.22630   0.01267  Uiso   1.00
O22    O     0.48400   0.33850   0.29050   0.01267  Uiso   1.00
O23    O     0.29920   0.88600   0.88160   0.01267  Uiso   1.00
O24    O     0.26850   0.52770   0.97171   0.01267  Uiso   1.00
O25    O     0.22800   0.06460   0.06130   0.01267  Uiso   1.00
O26    O     0.67500   0.01080   0.13670   0.01267  Uiso   1.00
O27    O     0.29000   0.06830   0.14170   0.01267  Uiso   1.00
O28    O     0.62100   0.00410   0.06190   0.01267  Uiso   1.00
O29    O     0.92600   0.92520   0.51190   0.01267  Uiso   1.00
O30    O     0.91610   0.89890   0.59555   0.01267  Uiso   1.00
O31    O     0.27750   0.99840   0.61495   0.01267  Uiso   1.00
O32    O     0.44920   0.94980   0.65577   0.01267  Uiso   1.00
O33    O     0.79800   0.53260   0.57750   0.01267  Uiso   1.00
O34    O     0.13950   0.85810   0.63607   0.01267  Uiso   1.00
O35    O     0.01620   0.89840   0.41200   0.01267  Uiso   1.00
O36    O     0.10970   0.74020   0.55250   0.01267  Uiso   1.00
O37    O     0.20100   0.81760   0.54410   0.01267  Uiso   1.00
O38    O     0.05350   0.82490   0.39020   0.01267  Uiso   1.00
O39    O     0.58290   0.77330   0.38410   0.01267  Uiso   1.00
O40    O     0.37390   0.73250   0.34410   0.01267  Uiso   1.00
O41    O     0.67400   0.59960   0.43760   0.01267  Uiso   1.00
O42    O     0.61300   0.68630   0.53690   0.01267  Uiso   1.00
O43    O     0.80400   0.52880   0.63350   0.01267  Uiso   1.00
O44    O     0.16200   0.09060   0.73700   0.01267  Uiso   1.00
O45    O     0.65300   0.10260   0.76770   0.01267  Uiso   1.00
O46    O     0.11510   0.30090   0.79987   0.01267  Uiso   1.00
O47    O     0.27510   0.33170   0.75049   0.01267  Uiso   1.00
O48    O     0.36500   0.63750   0.51050   0.01267  Uiso   1.00
O49    O     0.12600   0.01960   0.72630   0.01267  Uiso   1.00
O50    O     0.51600   0.16150   0.79050   0.01267  Uiso   1.00
O51    O     0.70080   0.61400   0.38160   0.01267  Uiso   1.00
O52    O     0.73150   0.97230   0.47171   0.01267  Uiso   1.00
O53    O     0.77200   0.43540   0.56130   0.01267  Uiso   1.00
O54    O     0.32500   0.48920   0.63670   0.01267  Uiso   1.00
O55    O     0.71000   0.43170   0.64170   0.01267  Uiso   1.00
O56    O     0.37900   0.49590   0.56190   0.01267  Uiso   1.00
O57    O     0.92600   0.42520   0.98810   0.01267  Uiso   1.00
O58    O     0.91610   0.39890   0.90445   0.01267  Uiso   1.00
O59    O     0.27750   0.49840   0.88505   0.01267  Uiso   1.00
O60    O     0.44920   0.44980   0.84423   0.01267  Uiso   1.00
O61    O     0.79800   0.03260   0.92250   0.01267  Uiso   1.00
O62    O     0.13950   0.35810   0.86393   0.01267  Uiso   1.00
O63    O     0.01620   0.39840   0.08800   0.01267  Uiso   1.00
O64    O     0.10970   0.24020   0.94750   0.01267  Uiso   1.00
O65    O     0.20100   0.31760   0.95590   0.01267  Uiso   1.00
O66    O     0.05350   0.32490   0.10980   0.01267  Uiso   1.00
O67    O     0.58290   0.27330   0.11590   0.01267  Uiso   1.00
O68    O     0.37390   0.23250   0.15590   0.01267  Uiso   1.00
O69    O     0.67400   0.09960   0.06240   0.01267  Uiso   1.00
O70    O     0.61300   0.18630   0.96310   0.01267  Uiso   1.00
O71    O     0.80400   0.02880   0.86650   0.01267  Uiso   1.00
O72    O     0.16200   0.59060   0.76300   0.01267  Uiso   1.00
O73    O     0.65300   0.60260   0.73230   0.01267  Uiso   1.00
O74    O     0.11510   0.80090   0.70013   0.01267  Uiso   1.00
O75    O     0.27510   0.83170   0.74951   0.01267  Uiso   1.00
O76    O     0.36500   0.13750   0.98950   0.01267  Uiso   1.00
O77    O     0.12600   0.51960   0.77370   0.01267  Uiso   1.00
O78    O     0.51600   0.66150   0.70950   0.01267  Uiso   1.00
O79    O     0.70080   0.11400   0.11840   0.01267  Uiso   1.00
O80    O     0.73150   0.47230   0.02829   0.01267  Uiso   1.00
O81    O     0.77200   0.93540   0.93870   0.01267  Uiso   1.00
O82    O     0.32500   0.98920   0.86330   0.01267  Uiso   1.00
O83    O     0.71000   0.93170   0.85830   0.01267  Uiso   1.00
O84    O     0.37900   0.99590   0.93810   0.01267  Uiso   1.00
O85    O     0.07400   0.07480   0.48810   0.01267  Uiso   1.00
O86    O     0.08390   0.10110   0.40445   0.01267  Uiso   1.00
O87    O     0.72250   0.00160   0.38505   0.01267  Uiso   1.00
O88    O     0.55080   0.05020   0.34423   0.01267  Uiso   1.00
O89    O     0.20200   0.46740   0.42250   0.01267  Uiso   1.00
O90    O     0.86050   0.14190   0.36393   0.01267  Uiso   1.00
O91    O     0.98380   0.10160   0.58800   0.01267  Uiso   1.00
O92    O     0.89030   0.25980   0.44750   0.01267  Uiso   1.00
O93    O     0.79900   0.18240   0.45590   0.01267  Uiso   1.00
O94    O     0.94650   0.17510   0.60980   0.01267  Uiso   1.00
O95    O     0.41710   0.22670   0.61590   0.01267  Uiso   1.00
O96    O     0.62610   0.26750   0.65590   0.01267  Uiso   1.00
O97    O     0.32600   0.40040   0.56240   0.01267  Uiso   1.00
O98    O     0.38700   0.31370   0.46310   0.01267  Uiso   1.00
O99    O     0.19600   0.47120   0.36650   0.01267  Uiso   1.00
O100   O     0.83800   0.90940   0.26300   0.01267  Uiso   1.00
O101   O     0.34700   0.89740   0.23230   0.01267  Uiso   1.00
O102   O     0.88490   0.69910   0.20013   0.01267  Uiso   1.00
O103   O     0.72490   0.66830   0.24951   0.01267  Uiso   1.00
O104   O     0.63500   0.36250   0.48950   0.01267  Uiso   1.00
O105   O     0.87400   0.98040   0.27370   0.01267  Uiso   1.00
O106   O     0.48400   0.83850   0.20950   0.01267  Uiso   1.00
O107   O     0.29920   0.38600   0.61840   0.01267  Uiso   1.00
O108   O     0.26850   0.02770   0.52829   0.01267  Uiso   1.00
O109   O     0.22800   0.56460   0.43870   0.01267  Uiso   1.00
O110   O     0.67500   0.51080   0.36330   0.01267  Uiso   1.00
O111   O     0.29000   0.56830   0.35830   0.01267  Uiso   1.00
O112   O     0.62100   0.50410   0.43810   0.01267  Uiso   1.00
