data_SIPWUK_clean
_audit_creation_date              2014-07-02
_audit_creation_method            'Materials Studio'
_symmetry_space_group_name_H-M    'P1'
_symmetry_Int_Tables_number       1
_symmetry_cell_setting            triclinic
loop_
_symmetry_equiv_pos_as_xyz
  x,y,z
_cell_length_a                    6.6921
_cell_length_b                    13.2239
_cell_length_c                    13.7023
_cell_angle_alpha                 90.0000
_cell_angle_beta                  90.0000
_cell_angle_gamma                 90.0000
loop_
_atom_site_label
_atom_site_type_symbol
_atom_site_fract_x
_atom_site_fract_y
_atom_site_fract_z
_atom_site_U_iso_or_equiv
_atom_site_adp_type
_atom_site_occupancy
Ca1    Ca    0.00000   0.75000   0.78471   0.01267  Uiso   1.00
Ca2    Ca    0.50000   0.25000   0.71529   0.01267  Uiso   1.00
Ca3    Ca    0.00000   0.25000   0.21529   0.01267  Uiso   1.00
Ca4    Ca    0.50000   0.75000   0.28471   0.01267  Uiso   1.00
Cu1    Cu    0.50000   0.00000   0.50000   0.01267  Uiso   1.00
Cu2    Cu    0.00000   0.50000   0.00000   0.01267  Uiso   1.00
Cu3    Cu    0.50000   0.50000   0.50000   0.01267  Uiso   1.00
Cu4    Cu    0.00000   0.00000   0.00000   0.01267  Uiso   1.00
H1     H     0.37260   0.89930   0.77990   0.01267  Uiso   1.00
H2     H     0.57770   0.88680   0.72700   0.01267  Uiso   1.00
H3     H     0.12740   0.39930   0.72010   0.01267  Uiso   1.00
H4     H     0.92230   0.38680   0.77300   0.01267  Uiso   1.00
H5     H     0.62740   0.60070   0.77990   0.01267  Uiso   1.00
H6     H     0.42230   0.61320   0.72700   0.01267  Uiso   1.00
H7     H     0.87260   0.10070   0.72010   0.01267  Uiso   1.00
H8     H     0.07770   0.11320   0.77300   0.01267  Uiso   1.00
H9     H     0.62740   0.10070   0.22010   0.01267  Uiso   1.00
H10    H     0.42230   0.11320   0.27300   0.01267  Uiso   1.00
H11    H     0.87260   0.60070   0.27990   0.01267  Uiso   1.00
H12    H     0.07770   0.61320   0.22700   0.01267  Uiso   1.00
H13    H     0.37260   0.39930   0.22010   0.01267  Uiso   1.00
H14    H     0.57770   0.38680   0.27300   0.01267  Uiso   1.00
H15    H     0.12740   0.89930   0.27990   0.01267  Uiso   1.00
H16    H     0.92230   0.88680   0.22700   0.01267  Uiso   1.00
C1     C     0.34150   0.85270   0.63870   0.01267  Uiso   1.00
C2     C     0.44310   0.91290   0.71940   0.01267  Uiso   1.00
C3     C     0.45710   0.02560   0.70750   0.01267  Uiso   1.00
C4     C     0.15850   0.35270   0.86130   0.01267  Uiso   1.00
C5     C     0.05690   0.41290   0.78060   0.01267  Uiso   1.00
C6     C     0.04290   0.52560   0.79250   0.01267  Uiso   1.00
C7     C     0.65850   0.64730   0.63870   0.01267  Uiso   1.00
C8     C     0.55690   0.58710   0.71940   0.01267  Uiso   1.00
C9     C     0.54290   0.47440   0.70750   0.01267  Uiso   1.00
C10    C     0.84150   0.14730   0.86130   0.01267  Uiso   1.00
C11    C     0.94310   0.08710   0.78060   0.01267  Uiso   1.00
C12    C     0.95710   0.97440   0.79250   0.01267  Uiso   1.00
C13    C     0.65850   0.14730   0.36130   0.01267  Uiso   1.00
C14    C     0.55690   0.08710   0.28060   0.01267  Uiso   1.00
C15    C     0.54290   0.97440   0.29250   0.01267  Uiso   1.00
C16    C     0.84150   0.64730   0.13870   0.01267  Uiso   1.00
C17    C     0.94310   0.58710   0.21940   0.01267  Uiso   1.00
C18    C     0.95710   0.47440   0.20750   0.01267  Uiso   1.00
C19    C     0.34150   0.35270   0.36130   0.01267  Uiso   1.00
C20    C     0.44310   0.41290   0.28060   0.01267  Uiso   1.00
C21    C     0.45710   0.52560   0.29250   0.01267  Uiso   1.00
C22    C     0.15850   0.85270   0.13870   0.01267  Uiso   1.00
C23    C     0.05690   0.91290   0.21940   0.01267  Uiso   1.00
C24    C     0.04290   0.02560   0.20750   0.01267  Uiso   1.00
O1     O     0.36720   0.87910   0.55100   0.01267  Uiso   1.00
O2     O     0.24480   0.77650   0.66320   0.01267  Uiso   1.00
O3     O     0.50180   0.06620   0.62640   0.01267  Uiso   1.00
O4     O     0.43350   0.08070   0.77980   0.01267  Uiso   1.00
O5     O     0.13280   0.37910   0.94900   0.01267  Uiso   1.00
O6     O     0.25520   0.27650   0.83680   0.01267  Uiso   1.00
O7     O     0.99820   0.56620   0.87360   0.01267  Uiso   1.00
O8     O     0.06650   0.58070   0.72020   0.01267  Uiso   1.00
O9     O     0.63280   0.62090   0.55100   0.01267  Uiso   1.00
O10    O     0.75520   0.72350   0.66320   0.01267  Uiso   1.00
O11    O     0.49820   0.43380   0.62640   0.01267  Uiso   1.00
O12    O     0.56650   0.41930   0.77980   0.01267  Uiso   1.00
O13    O     0.86720   0.12090   0.94900   0.01267  Uiso   1.00
O14    O     0.74480   0.22350   0.83680   0.01267  Uiso   1.00
O15    O     0.00180   0.93380   0.87360   0.01267  Uiso   1.00
O16    O     0.93350   0.91930   0.72020   0.01267  Uiso   1.00
O17    O     0.63280   0.12090   0.44900   0.01267  Uiso   1.00
O18    O     0.75520   0.22350   0.33680   0.01267  Uiso   1.00
O19    O     0.49820   0.93380   0.37360   0.01267  Uiso   1.00
O20    O     0.56650   0.91930   0.22020   0.01267  Uiso   1.00
O21    O     0.86720   0.62090   0.05100   0.01267  Uiso   1.00
O22    O     0.74480   0.72350   0.16320   0.01267  Uiso   1.00
O23    O     0.00180   0.43380   0.12640   0.01267  Uiso   1.00
O24    O     0.93350   0.41930   0.27980   0.01267  Uiso   1.00
O25    O     0.36720   0.37910   0.44900   0.01267  Uiso   1.00
O26    O     0.24480   0.27650   0.33680   0.01267  Uiso   1.00
O27    O     0.50180   0.56620   0.37360   0.01267  Uiso   1.00
O28    O     0.43350   0.58070   0.22020   0.01267  Uiso   1.00
O29    O     0.13280   0.87910   0.05100   0.01267  Uiso   1.00
O30    O     0.25520   0.77650   0.16320   0.01267  Uiso   1.00
O31    O     0.99820   0.06620   0.12640   0.01267  Uiso   1.00
O32    O     0.06650   0.08070   0.27980   0.01267  Uiso   1.00
