data_image0
_cell_length_a       13.075
_cell_length_b       13.86
_cell_length_c       14.256
_cell_angle_alpha    90
_cell_angle_beta     108.001
_cell_angle_gamma    90

_symmetry_space_group_name_H-M    "P 1"
_symmetry_int_tables_number       1

loop_
  _symmetry_equiv_pos_as_xyz
  'x, y, z'

loop_
  _atom_site_label
  _atom_site_occupancy
  _atom_site_fract_x
  _atom_site_fract_y
  _atom_site_fract_z
  _atom_site_thermal_displace_type
  _atom_site_B_iso_or_equiv
  _atom_site_type_symbol
  Cs1      1.0000 0.24495  0.86458  0.23917  Biso   1.000  Cs
  Cd1      1.0000 0.00238  0.69142  0.25687  Biso   1.000  Cd
  Cd2      1.0000 0.51167  0.03390  0.23727  Biso   1.000  Cd
  C1       1.0000 0.89880  0.40240  0.42760  Biso   1.000  C
  H1       1.0000 0.97350  0.40430  0.45070  Biso   1.000  H
  C2       1.0000 0.84340  0.34000  0.47150  Biso   1.000  C
  C3       1.0000 0.73200  0.33390  0.43240  Biso   1.000  C
  H2       1.0000 0.69400  0.29170  0.46000  Biso   1.000  H
  C4       1.0000 0.67810  0.39010  0.35330  Biso   1.000  C
  H3       1.0000 0.60380  0.38450  0.32650  Biso   1.000  H
  C5       1.0000 0.73360  0.45500  0.31300  Biso   1.000  C
  H4       1.0000 0.69580  0.49410  0.26080  Biso   1.000  H
  C6       1.0000 0.84370  0.46220  0.34940  Biso   1.000  C
  C7       1.0000 0.90390  0.28580  0.56260  Biso   1.000  C
  C8       1.0000 0.90380  0.53750  0.31240  Biso   1.000  C
  C9       1.0000 0.90670  0.98090  0.99940  Biso   1.000  C
  H5       1.0000 0.97640  0.96680  0.99980  Biso   1.000  H
  C10      1.0000 0.86230  0.93130  0.06170  Biso   1.000  C
  C11      1.0000 0.75890  0.95330  0.06290  Biso   1.000  C
  H6       1.0000 0.72870  0.91990  0.10440  Biso   1.000  H
  C12      1.0000 0.70140  0.02540  0.00190  Biso   1.000  C
  H7       1.0000 0.63340  0.04240  0.00420  Biso   1.000  H
  C13      1.0000 0.74500  0.07210  0.93750  Biso   1.000  C
  H8       1.0000 0.70440  0.11800  0.89430  Biso   1.000  H
  C14      1.0000 0.84810  0.05160  0.93640  Biso   1.000  C
  C15      1.0000 0.92600  0.85310  0.12730  Biso   1.000  C
  C16      1.0000 0.89470  0.10130  0.86500  Biso   1.000  C
  C17      1.0000 0.61650  0.32210  0.06460  Biso   1.000  C
  H9       1.0000 0.54170  0.32210  0.04440  Biso   1.000  H
  C18      1.0000 0.67090  0.38550  0.02140  Biso   1.000  C
  C19      1.0000 0.77990  0.38770  0.05310  Biso   1.000  C
  H10      1.0000 0.81630  0.43000  0.02400  Biso   1.000  H
  C20      1.0000 0.83840  0.32680  0.12930  Biso   1.000  C
  H11      1.0000 0.91310  0.32990  0.15200  Biso   1.000  H
  C21      1.0000 0.78420  0.26240  0.17040  Biso   1.000  C
  H12      1.0000 0.82270  0.22110  0.22030  Biso   1.000  H
  C22      1.0000 0.67320  0.25860  0.13790  Biso   1.000  C
  C23      1.0000 0.61340  0.18470  0.17670  Biso   1.000  C
  C24      1.0000 0.60660  0.44670  0.93590  Biso   1.000  C
  C25      1.0000 0.56270  0.73820  0.46660  Biso   1.000  C
  H13      1.0000 0.49450  0.76180  0.46130  Biso   1.000  H
  C26      1.0000 0.62030  0.77750  0.40930  Biso   1.000  C
  C27      1.0000 0.71930  0.73800  0.41440  Biso   1.000  C
  H14      1.0000 0.75760  0.76270  0.37460  Biso   1.000  H
  C28      1.0000 0.76200  0.66250  0.47770  Biso   1.000  C
  H15      1.0000 0.82780  0.63570  0.47960  Biso   1.000  H
  C29      1.0000 0.70600  0.62730  0.53810  Biso   1.000  C
  H16      1.0000 0.73610  0.57860  0.58310  Biso   1.000  H
  C30      1.0000 0.60600  0.66350  0.53250  Biso   1.000  C
  C31      1.0000 0.54240  0.62590  0.59960  Biso   1.000  C
  C32      1.0000 0.57510  0.86320  0.34450  Biso   1.000  C
  O1       1.0000 0.00500  0.27710  0.58280  Biso   1.000  O
  O2       1.0000 0.85370  0.25240  0.61730  Biso   1.000  O
  O3       1.0000 0.85100  0.60240  0.25620  Biso   1.000  O
  O4       1.0000 0.00560  0.53790  0.34176  Biso   1.000  O
  O5       1.0000 0.01690  0.83020  0.12330  Biso   1.000  O
  O6       1.0000 0.88430  0.81030  0.18550  Biso   1.000  O
  O7       1.0000 0.83280  0.14460  0.79234  Biso   1.000  O
  O8       1.0000 0.99550  0.09800  0.88150  Biso   1.000  O
  O9       1.0000 0.66540  0.12700  0.24280  Biso   1.000  O
  O10      1.0000 0.51370  0.17870  0.14290  Biso   1.000  O
  O11      1.0000 0.50620  0.44680  0.91040  Biso   1.000  O
  O12      1.0000 0.65840  0.49410  0.88820  Biso   1.000  O
  O13      1.0000 0.59970  0.59210  0.68260  Biso   1.000  O
  O14      1.0000 0.44520  0.62940  0.57160  Biso   1.000  O
  O15      1.0000 0.47820  0.87900  0.32020  Biso   1.000  O
  O16      1.0000 0.63860  0.91670  0.31820  Biso   1.000  O
  Cs2      1.0000 0.75505  0.36458  0.76083  Biso   1.000  Cs
  Cd3      1.0000 0.99762  0.19142  0.74313  Biso   1.000  Cd
  Cd4      1.0000 0.48833  0.53390  0.76273  Biso   1.000  Cd
  C33      1.0000 0.10120  0.90240  0.57240  Biso   1.000  C
  H17      1.0000 0.02650  0.90430  0.54930  Biso   1.000  H
  C34      1.0000 0.15660  0.84000  0.52850  Biso   1.000  C
  C35      1.0000 0.26800  0.83390  0.56760  Biso   1.000  C
  H18      1.0000 0.30600  0.79170  0.54000  Biso   1.000  H
  C36      1.0000 0.32190  0.89010  0.64670  Biso   1.000  C
  H19      1.0000 0.39620  0.88450  0.67350  Biso   1.000  H
  C37      1.0000 0.26640  0.95500  0.68700  Biso   1.000  C
  H20      1.0000 0.30420  0.99410  0.73920  Biso   1.000  H
  C38      1.0000 0.15630  0.96220  0.65060  Biso   1.000  C
  C39      1.0000 0.09610  0.78580  0.43740  Biso   1.000  C
  C40      1.0000 0.09620  0.03750  0.68760  Biso   1.000  C
  C41      1.0000 0.09330  0.48090  0.00060  Biso   1.000  C
  H21      1.0000 0.02360  0.46680  0.00020  Biso   1.000  H
  C42      1.0000 0.13770  0.43130  0.93830  Biso   1.000  C
  C43      1.0000 0.24110  0.45330  0.93710  Biso   1.000  C
  H22      1.0000 0.27130  0.41990  0.89560  Biso   1.000  H
  C44      1.0000 0.29860  0.52540  0.99810  Biso   1.000  C
  H23      1.0000 0.36660  0.54240  0.99580  Biso   1.000  H
  C45      1.0000 0.25500  0.57210  0.06250  Biso   1.000  C
  H24      1.0000 0.29560  0.61800  0.10570  Biso   1.000  H
  C46      1.0000 0.15190  0.55160  0.06360  Biso   1.000  C
  C47      1.0000 0.07400  0.35310  0.87270  Biso   1.000  C
  C48      1.0000 0.10530  0.60130  0.13500  Biso   1.000  C
  C49      1.0000 0.38350  0.82210  0.93540  Biso   1.000  C
  H25      1.0000 0.45830  0.82210  0.95560  Biso   1.000  H
  C50      1.0000 0.32910  0.88550  0.97860  Biso   1.000  C
  C51      1.0000 0.22010  0.88770  0.94690  Biso   1.000  C
  H26      1.0000 0.18370  0.93000  0.97600  Biso   1.000  H
  C52      1.0000 0.16160  0.82680  0.87070  Biso   1.000  C
  H27      1.0000 0.08690  0.82990  0.84800  Biso   1.000  H
  C53      1.0000 0.21580  0.76240  0.82960  Biso   1.000  C
  H28      1.0000 0.17730  0.72110  0.77970  Biso   1.000  H
  C54      1.0000 0.32680  0.75860  0.86210  Biso   1.000  C
  C55      1.0000 0.38660  0.68470  0.82330  Biso   1.000  C
  C56      1.0000 0.39340  0.94670  0.06410  Biso   1.000  C
  C57      1.0000 0.43730  0.23820  0.53340  Biso   1.000  C
  H29      1.0000 0.50550  0.26180  0.53870  Biso   1.000  H
  C58      1.0000 0.37970  0.27750  0.59070  Biso   1.000  C
  C59      1.0000 0.28070  0.23800  0.58560  Biso   1.000  C
  H30      1.0000 0.24240  0.26270  0.62540  Biso   1.000  H
  C60      1.0000 0.23800  0.16250  0.52230  Biso   1.000  C
  H31      1.0000 0.17220  0.13570  0.52040  Biso   1.000  H
  C61      1.0000 0.29400  0.12730  0.46190  Biso   1.000  C
  H32      1.0000 0.26390  0.07860  0.41690  Biso   1.000  H
  C62      1.0000 0.39400  0.16350  0.46750  Biso   1.000  C
  C63      1.0000 0.45760  0.12590  0.40040  Biso   1.000  C
  C64      1.0000 0.42490  0.36320  0.65550  Biso   1.000  C
  O17      1.0000 0.99500  0.77710  0.41720  Biso   1.000  O
  O18      1.0000 0.14630  0.75240  0.38270  Biso   1.000  O
  O19      1.0000 0.14900  0.10240  0.74380  Biso   1.000  O
  O20      1.0000 0.99440  0.03790  0.65824  Biso   1.000  O
  O21      1.0000 0.98310  0.33020  0.87670  Biso   1.000  O
  O22      1.0000 0.11570  0.31030  0.81450  Biso   1.000  O
  O23      1.0000 0.16720  0.64460  0.20766  Biso   1.000  O
  O24      1.0000 0.00450  0.59800  0.11850  Biso   1.000  O
  O25      1.0000 0.33460  0.62700  0.75720  Biso   1.000  O
  O26      1.0000 0.48630  0.67870  0.85710  Biso   1.000  O
  O27      1.0000 0.49380  0.94680  0.08960  Biso   1.000  O
  O28      1.0000 0.34160  0.99410  0.11180  Biso   1.000  O
  O29      1.0000 0.40030  0.09210  0.31740  Biso   1.000  O
  O30      1.0000 0.55480  0.12940  0.42840  Biso   1.000  O
  O31      1.0000 0.52180  0.37900  0.67980  Biso   1.000  O
  O32      1.0000 0.36140  0.41670  0.68180  Biso   1.000  O
