data_image0
_cell_length_a       13.079
_cell_length_b       13.853
_cell_length_c       14.263
_cell_angle_alpha    90
_cell_angle_beta     107.983
_cell_angle_gamma    90

_symmetry_space_group_name_H-M    "P 1"
_symmetry_int_tables_number       1

loop_
  _symmetry_equiv_pos_as_xyz
  'x, y, z'

loop_
  _atom_site_label
  _atom_site_occupancy
  _atom_site_fract_x
  _atom_site_fract_y
  _atom_site_fract_z
  _atom_site_thermal_displace_type
  _atom_site_B_iso_or_equiv
  _atom_site_type_symbol
  Cs1      1.0000 0.25516  0.89849  0.26106  Biso   1.000  Cs
  Cd1      1.0000 0.49763  0.07175  0.24330  Biso   1.000  Cd
  Cd2      1.0000 0.98834  0.72915  0.26294  Biso   1.000  Cd
  C1       1.0000 0.60250  0.36110  0.07200  Biso   1.000  C
  H1       1.0000 0.52780  0.35790  0.04880  Biso   1.000  H
  C2       1.0000 0.65510  0.42470  0.02760  Biso   1.000  C
  C3       1.0000 0.76700  0.43100  0.06680  Biso   1.000  C
  H2       1.0000 0.80500  0.47370  0.03980  Biso   1.000  H
  C4       1.0000 0.82180  0.37260  0.14730  Biso   1.000  C
  H3       1.0000 0.89600  0.37800  0.17400  Biso   1.000  H
  C5       1.0000 0.76700  0.30730  0.18730  Biso   1.000  C
  H4       1.0000 0.80440  0.26750  0.23890  Biso   1.000  H
  C6       1.0000 0.65780  0.30160  0.15060  Biso   1.000  C
  C7       1.0000 0.59380  0.47760  0.93720  Biso   1.000  C
  C8       1.0000 0.59620  0.22650  0.18690  Biso   1.000  C
  C9       1.0000 0.59350  0.78210  0.50110  Biso   1.000  C
  H5       1.0000 0.52390  0.79590  0.50100  Biso   1.000  H
  C10      1.0000 0.63800  0.83270  0.43750  Biso   1.000  C
  C11      1.0000 0.74040  0.80940  0.43630  Biso   1.000  C
  H6       1.0000 0.76970  0.84040  0.39270  Biso   1.000  H
  C12      1.0000 0.79840  0.74100  0.49920  Biso   1.000  C
  H7       1.0000 0.86850  0.72730  0.50050  Biso   1.000  H
  C13      1.0000 0.75260  0.69150  0.56170  Biso   1.000  C
  H8       1.0000 0.79230  0.64350  0.60250  Biso   1.000  H
  C14      1.0000 0.65340  0.71090  0.56470  Biso   1.000  C
  C15      1.0000 0.57490  0.90910  0.37390  Biso   1.000  C
  C16      1.0000 0.60390  0.66030  0.63550  Biso   1.000  C
  C17      1.0000 0.88460  0.43990  0.43580  Biso   1.000  C
  H9       1.0000 0.95930  0.43940  0.45590  Biso   1.000  H
  C18      1.0000 0.82920  0.37810  0.47910  Biso   1.000  C
  C19      1.0000 0.71930  0.37370  0.44680  Biso   1.000  C
  H10      1.0000 0.68310  0.32950  0.47400  Biso   1.000  H
  C20      1.0000 0.66150  0.43740  0.37130  Biso   1.000  C
  H11      1.0000 0.58680  0.43540  0.34960  Biso   1.000  H
  C21      1.0000 0.71430  0.50190  0.32990  Biso   1.000  C
  H12      1.0000 0.67610  0.54450  0.28130  Biso   1.000  H
  C22      1.0000 0.82800  0.50260  0.36220  Biso   1.000  C
  C23      1.0000 0.88720  0.57990  0.32340  Biso   1.000  C
  C24      1.0000 0.89030  0.31720  0.56320  Biso   1.000  C
  C25      1.0000 0.93520  0.02350  0.03300  Biso   1.000  C
  H13      1.0000 0.00210  0.99780  0.03690  Biso   1.000  H
  C26      1.0000 0.88090  0.98600  0.09210  Biso   1.000  C
  C27      1.0000 0.77980  0.02410  0.08660  Biso   1.000  C
  H14      1.0000 0.74210  0.99880  0.12650  Biso   1.000  H
  C28      1.0000 0.73520  0.09910  0.02210  Biso   1.000  C
  H15      1.0000 0.66810  0.12440  0.01800  Biso   1.000  H
  C29      1.0000 0.79450  0.13500  0.96380  Biso   1.000  C
  H16      1.0000 0.76540  0.18550  0.92090  Biso   1.000  H
  C30      1.0000 0.89450  0.09980  0.96590  Biso   1.000  C
  C31      1.0000 0.95680  0.13520  0.90070  Biso   1.000  C
  C32      1.0000 0.92460  0.90020  0.15460  Biso   1.000  C
  O1       1.0000 0.49530  0.48650  0.91630  Biso   1.000  O
  O2       1.0000 0.64630  0.51000  0.88250  Biso   1.000  O
  O3       1.0000 0.64850  0.16040  0.24250  Biso   1.000  O
  O4       1.0000 0.49280  0.22610  0.15790  Biso   1.000  O
  O5       1.0000 0.48300  0.93320  0.37700  Biso   1.000  O
  O6       1.0000 0.61450  0.95270  0.31390  Biso   1.000  O
  O7       1.0000 0.66700  0.61810  0.70810  Biso   1.000  O
  O8       1.0000 0.50580  0.66430  0.61900  Biso   1.000  O
  O9       1.0000 0.83200  0.63790  0.25720  Biso   1.000  O
  O10      1.0000 0.98430  0.58510  0.35590  Biso   1.000  O
  O11      1.0000 0.99430  0.31640  0.59030  Biso   1.000  O
  O12      1.0000 0.84210  0.27220  0.61300  Biso   1.000  O
  O13      1.0000 0.89850  0.17030  0.81710  Biso   1.000  O
  O14      1.0000 0.05270  0.13280  0.92850  Biso   1.000  O
  O15      1.0000 0.02310  0.88350  0.17900  Biso   1.000  O
  O16      1.0000 0.86100  0.84580  0.18120  Biso   1.000  O
  Cs2      1.0000 0.74484  0.39849  0.73894  Biso   1.000  Cs
  Cd3      1.0000 0.50237  0.57175  0.75670  Biso   1.000  Cd
  Cd4      1.0000 0.01166  0.22915  0.73706  Biso   1.000  Cd
  C33      1.0000 0.39750  0.86110  0.92800  Biso   1.000  C
  H17      1.0000 0.47220  0.85790  0.95120  Biso   1.000  H
  C34      1.0000 0.34490  0.92470  0.97240  Biso   1.000  C
  C35      1.0000 0.23300  0.93100  0.93320  Biso   1.000  C
  H18      1.0000 0.19500  0.97370  0.96020  Biso   1.000  H
  C36      1.0000 0.17820  0.87260  0.85270  Biso   1.000  C
  H19      1.0000 0.10400  0.87800  0.82600  Biso   1.000  H
  C37      1.0000 0.23300  0.80730  0.81270  Biso   1.000  C
  H20      1.0000 0.19560  0.76750  0.76110  Biso   1.000  H
  C38      1.0000 0.34220  0.80160  0.84940  Biso   1.000  C
  C39      1.0000 0.40620  0.97760  0.06280  Biso   1.000  C
  C40      1.0000 0.40380  0.72650  0.81310  Biso   1.000  C
  C41      1.0000 0.40650  0.28210  0.49890  Biso   1.000  C
  H21      1.0000 0.47610  0.29590  0.49900  Biso   1.000  H
  C42      1.0000 0.36200  0.33270  0.56250  Biso   1.000  C
  C43      1.0000 0.25960  0.30940  0.56370  Biso   1.000  C
  H22      1.0000 0.23030  0.34040  0.60730  Biso   1.000  H
  C44      1.0000 0.20160  0.24100  0.50080  Biso   1.000  C
  H23      1.0000 0.13150  0.22730  0.49950  Biso   1.000  H
  C45      1.0000 0.24740  0.19150  0.43830  Biso   1.000  C
  H24      1.0000 0.20770  0.14350  0.39750  Biso   1.000  H
  C46      1.0000 0.34660  0.21090  0.43530  Biso   1.000  C
  C47      1.0000 0.42510  0.40910  0.62610  Biso   1.000  C
  C48      1.0000 0.39610  0.16030  0.36450  Biso   1.000  C
  C49      1.0000 0.11540  0.93990  0.56420  Biso   1.000  C
  H25      1.0000 0.04070  0.93940  0.54410  Biso   1.000  H
  C50      1.0000 0.17080  0.87810  0.52090  Biso   1.000  C
  C51      1.0000 0.28070  0.87370  0.55320  Biso   1.000  C
  H26      1.0000 0.31690  0.82950  0.52600  Biso   1.000  H
  C52      1.0000 0.33850  0.93740  0.62870  Biso   1.000  C
  H27      1.0000 0.41320  0.93540  0.65040  Biso   1.000  H
  C53      1.0000 0.28570  0.00190  0.67010  Biso   1.000  C
  H28      1.0000 0.32390  0.04450  0.71870  Biso   1.000  H
  C54      1.0000 0.17200  0.00260  0.63780  Biso   1.000  C
  C55      1.0000 0.11280  0.07990  0.67660  Biso   1.000  C
  C56      1.0000 0.10970  0.81720  0.43680  Biso   1.000  C
  C57      1.0000 0.06480  0.52350  0.96700  Biso   1.000  C
  H29      1.0000 0.99790  0.49780  0.96310  Biso   1.000  H
  C58      1.0000 0.11910  0.48600  0.90790  Biso   1.000  C
  C59      1.0000 0.22020  0.52410  0.91340  Biso   1.000  C
  H30      1.0000 0.25790  0.49880  0.87350  Biso   1.000  H
  C60      1.0000 0.26480  0.59910  0.97790  Biso   1.000  C
  H31      1.0000 0.33190  0.62440  0.98200  Biso   1.000  H
  C61      1.0000 0.20550  0.63500  0.03620  Biso   1.000  C
  H32      1.0000 0.23460  0.68550  0.07910  Biso   1.000  H
  C62      1.0000 0.10550  0.59980  0.03410  Biso   1.000  C
  C63      1.0000 0.04320  0.63520  0.09930  Biso   1.000  C
  C64      1.0000 0.07540  0.40020  0.84540  Biso   1.000  C
  O17      1.0000 0.50470  0.98650  0.08370  Biso   1.000  O
  O18      1.0000 0.35370  0.01000  0.11750  Biso   1.000  O
  O19      1.0000 0.35150  0.66040  0.75750  Biso   1.000  O
  O20      1.0000 0.50720  0.72610  0.84210  Biso   1.000  O
  O21      1.0000 0.51700  0.43320  0.62300  Biso   1.000  O
  O22      1.0000 0.38550  0.45270  0.68610  Biso   1.000  O
  O23      1.0000 0.33300  0.11810  0.29190  Biso   1.000  O
  O24      1.0000 0.49420  0.16430  0.38100  Biso   1.000  O
  O25      1.0000 0.16800  0.13790  0.74280  Biso   1.000  O
  O26      1.0000 0.01570  0.08510  0.64410  Biso   1.000  O
  O27      1.0000 0.00570  0.81640  0.40970  Biso   1.000  O
  O28      1.0000 0.15790  0.77220  0.38700  Biso   1.000  O
  O29      1.0000 0.10150  0.67030  0.18290  Biso   1.000  O
  O30      1.0000 0.94730  0.63280  0.07150  Biso   1.000  O
  O31      1.0000 0.97690  0.38350  0.82100  Biso   1.000  O
  O32      1.0000 0.13900  0.34580  0.81880  Biso   1.000  O
