data_image0
_cell_length_a       17.224
_cell_length_b       6.63
_cell_length_c       23.181
_cell_angle_alpha    90
_cell_angle_beta     94.53
_cell_angle_gamma    90

_symmetry_space_group_name_H-M    "P 1"
_symmetry_int_tables_number       1

loop_
  _symmetry_equiv_pos_as_xyz
  'x, y, z'

loop_
  _atom_site_label
  _atom_site_occupancy
  _atom_site_fract_x
  _atom_site_fract_y
  _atom_site_fract_z
  _atom_site_thermal_displace_type
  _atom_site_B_iso_or_equiv
  _atom_site_type_symbol
  Zr1      1.0000 0.35917  0.99850  0.29975  Biso   1.000  Zr
  Zr2      1.0000 0.22013  0.49450  0.42539  Biso   1.000  Zr
  P1       1.0000 0.30802  0.49860  0.29312  Biso   1.000  P
  P2       1.0000 0.26907  0.99730  0.43044  Biso   1.000  P
  P3       1.0000 0.44220  0.07250  0.16599  Biso   1.000  P
  F1       1.0000 0.33030  0.48540  0.45850  Biso   1.000  F
  O1       1.0000 0.36250  0.68240  0.29320  Biso   1.000  O
  O2       1.0000 0.25310  0.49540  0.23730  Biso   1.000  O
  O3       1.0000 0.25990  0.50980  0.34520  Biso   1.000  O
  O4       1.0000 0.35910  0.30940  0.29650  Biso   1.000  O
  O5       1.0000 0.31620  0.00960  0.48980  Biso   1.000  O
  O6       1.0000 0.21850  0.80890  0.42800  Biso   1.000  O
  O7       1.0000 0.32600  0.99140  0.38290  Biso   1.000  O
  O8       1.0000 0.21560  0.18140  0.42230  Biso   1.000  O
  O9       1.0000 0.40750  0.99780  0.22020  Biso   1.000  O
  O10      1.0000 0.39520  0.00500  0.11070  Biso   1.000  O
  O11      1.0000 0.52600  0.99880  0.16410  Biso   1.000  O
  O12      1.0000 0.44010  0.30800  0.16380  Biso   1.000  O
  H1       1.0000 0.45520  0.38600  0.19460  Biso   1.000  H
  Zr3      1.0000 0.85917  0.49850  0.29975  Biso   1.000  Zr
  Zr4      1.0000 0.72013  0.99450  0.42539  Biso   1.000  Zr
  P4       1.0000 0.80802  0.99860  0.29312  Biso   1.000  P
  P5       1.0000 0.76907  0.49730  0.43044  Biso   1.000  P
  P6       1.0000 0.94220  0.57250  0.16599  Biso   1.000  P
  F2       1.0000 0.83030  0.98540  0.45850  Biso   1.000  F
  O13      1.0000 0.86250  0.18240  0.29320  Biso   1.000  O
  O14      1.0000 0.75310  0.99540  0.23730  Biso   1.000  O
  O15      1.0000 0.75990  0.00980  0.34520  Biso   1.000  O
  O16      1.0000 0.85910  0.80940  0.29650  Biso   1.000  O
  O17      1.0000 0.81620  0.50960  0.48980  Biso   1.000  O
  O18      1.0000 0.71850  0.30890  0.42800  Biso   1.000  O
  O19      1.0000 0.82600  0.49140  0.38290  Biso   1.000  O
  O20      1.0000 0.71560  0.68140  0.42230  Biso   1.000  O
  O21      1.0000 0.90750  0.49780  0.22020  Biso   1.000  O
  O22      1.0000 0.89520  0.50500  0.11070  Biso   1.000  O
  O23      1.0000 0.02600  0.49880  0.16410  Biso   1.000  O
  O24      1.0000 0.94010  0.80800  0.16380  Biso   1.000  O
  H2       1.0000 0.95520  0.88600  0.19460  Biso   1.000  H
  Zr5      1.0000 0.64083  0.99850  0.20025  Biso   1.000  Zr
  Zr6      1.0000 0.77987  0.49450  0.07461  Biso   1.000  Zr
  P7       1.0000 0.69198  0.49860  0.20688  Biso   1.000  P
  P8       1.0000 0.73093  0.99730  0.06956  Biso   1.000  P
  P9       1.0000 0.55780  0.07250  0.33401  Biso   1.000  P
  F3       1.0000 0.66970  0.48540  0.04150  Biso   1.000  F
  O25      1.0000 0.63750  0.68240  0.20680  Biso   1.000  O
  O26      1.0000 0.74690  0.49540  0.26270  Biso   1.000  O
  O27      1.0000 0.74010  0.50980  0.15480  Biso   1.000  O
  O28      1.0000 0.64090  0.30940  0.20350  Biso   1.000  O
  O29      1.0000 0.68380  0.00960  0.01020  Biso   1.000  O
  O30      1.0000 0.78150  0.80890  0.07200  Biso   1.000  O
  O31      1.0000 0.67400  0.99140  0.11710  Biso   1.000  O
  O32      1.0000 0.78440  0.18140  0.07770  Biso   1.000  O
  O33      1.0000 0.59250  0.99780  0.27980  Biso   1.000  O
  O34      1.0000 0.60480  0.00500  0.38930  Biso   1.000  O
  O35      1.0000 0.47400  0.99880  0.33590  Biso   1.000  O
  O36      1.0000 0.55990  0.30800  0.33620  Biso   1.000  O
  H3       1.0000 0.54480  0.38600  0.30540  Biso   1.000  H
  Zr7      1.0000 0.14083  0.49850  0.20025  Biso   1.000  Zr
  Zr8      1.0000 0.27987  0.99450  0.07461  Biso   1.000  Zr
  P10      1.0000 0.19198  0.99860  0.20688  Biso   1.000  P
  P11      1.0000 0.23093  0.49730  0.06956  Biso   1.000  P
  P12      1.0000 0.05780  0.57250  0.33401  Biso   1.000  P
  F4       1.0000 0.16970  0.98540  0.04150  Biso   1.000  F
  O37      1.0000 0.13750  0.18240  0.20680  Biso   1.000  O
  O38      1.0000 0.24690  0.99540  0.26270  Biso   1.000  O
  O39      1.0000 0.24010  0.00980  0.15480  Biso   1.000  O
  O40      1.0000 0.14090  0.80940  0.20350  Biso   1.000  O
  O41      1.0000 0.18380  0.50960  0.01020  Biso   1.000  O
  O42      1.0000 0.28150  0.30890  0.07200  Biso   1.000  O
  O43      1.0000 0.17400  0.49140  0.11710  Biso   1.000  O
  O44      1.0000 0.28440  0.68140  0.07770  Biso   1.000  O
  O45      1.0000 0.09250  0.49780  0.27980  Biso   1.000  O
  O46      1.0000 0.10480  0.50500  0.38930  Biso   1.000  O
  O47      1.0000 0.97400  0.49880  0.33590  Biso   1.000  O
  O48      1.0000 0.05990  0.80800  0.33620  Biso   1.000  O
  H4       1.0000 0.04480  0.88600  0.30540  Biso   1.000  H
  Zr9      1.0000 0.64083  0.00150  0.70025  Biso   1.000  Zr
  Zr10     1.0000 0.77987  0.50550  0.57461  Biso   1.000  Zr
  P13      1.0000 0.69198  0.50140  0.70688  Biso   1.000  P
  P14      1.0000 0.73093  0.00270  0.56956  Biso   1.000  P
  P15      1.0000 0.55780  0.92750  0.83401  Biso   1.000  P
  F5       1.0000 0.66970  0.51460  0.54150  Biso   1.000  F
  O49      1.0000 0.63750  0.31760  0.70680  Biso   1.000  O
  O50      1.0000 0.74690  0.50460  0.76270  Biso   1.000  O
  O51      1.0000 0.74010  0.49020  0.65480  Biso   1.000  O
  O52      1.0000 0.64090  0.69060  0.70350  Biso   1.000  O
  O53      1.0000 0.68380  0.99040  0.51020  Biso   1.000  O
  O54      1.0000 0.78150  0.19110  0.57200  Biso   1.000  O
  O55      1.0000 0.67400  0.00860  0.61710  Biso   1.000  O
  O56      1.0000 0.78440  0.81860  0.57770  Biso   1.000  O
  O57      1.0000 0.59250  0.00220  0.77980  Biso   1.000  O
  O58      1.0000 0.60480  0.99500  0.88930  Biso   1.000  O
  O59      1.0000 0.47400  0.00120  0.83590  Biso   1.000  O
  O60      1.0000 0.55990  0.69200  0.83620  Biso   1.000  O
  H5       1.0000 0.54480  0.61400  0.80540  Biso   1.000  H
  Zr11     1.0000 0.14083  0.50150  0.70025  Biso   1.000  Zr
  Zr12     1.0000 0.27987  0.00550  0.57461  Biso   1.000  Zr
  P16      1.0000 0.19198  0.00140  0.70688  Biso   1.000  P
  P17      1.0000 0.23093  0.50270  0.56956  Biso   1.000  P
  P18      1.0000 0.05780  0.42750  0.83401  Biso   1.000  P
  F6       1.0000 0.16970  0.01460  0.54150  Biso   1.000  F
  O61      1.0000 0.13750  0.81760  0.70680  Biso   1.000  O
  O62      1.0000 0.24690  0.00460  0.76270  Biso   1.000  O
  O63      1.0000 0.24010  0.99020  0.65480  Biso   1.000  O
  O64      1.0000 0.14090  0.19060  0.70350  Biso   1.000  O
  O65      1.0000 0.18380  0.49040  0.51020  Biso   1.000  O
  O66      1.0000 0.28150  0.69110  0.57200  Biso   1.000  O
  O67      1.0000 0.17400  0.50860  0.61710  Biso   1.000  O
  O68      1.0000 0.28440  0.31860  0.57770  Biso   1.000  O
  O69      1.0000 0.09250  0.50220  0.77980  Biso   1.000  O
  O70      1.0000 0.10480  0.49500  0.88930  Biso   1.000  O
  O71      1.0000 0.97400  0.50120  0.83590  Biso   1.000  O
  O72      1.0000 0.05990  0.19200  0.83620  Biso   1.000  O
  H6       1.0000 0.04480  0.11400  0.80540  Biso   1.000  H
  Zr13     1.0000 0.35917  0.00150  0.79975  Biso   1.000  Zr
  Zr14     1.0000 0.22013  0.50550  0.92539  Biso   1.000  Zr
  P19      1.0000 0.30802  0.50140  0.79312  Biso   1.000  P
  P20      1.0000 0.26907  0.00270  0.93044  Biso   1.000  P
  P21      1.0000 0.44220  0.92750  0.66599  Biso   1.000  P
  F7       1.0000 0.33030  0.51460  0.95850  Biso   1.000  F
  O73      1.0000 0.36250  0.31760  0.79320  Biso   1.000  O
  O74      1.0000 0.25310  0.50460  0.73730  Biso   1.000  O
  O75      1.0000 0.25990  0.49020  0.84520  Biso   1.000  O
  O76      1.0000 0.35910  0.69060  0.79650  Biso   1.000  O
  O77      1.0000 0.31620  0.99040  0.98980  Biso   1.000  O
  O78      1.0000 0.21850  0.19110  0.92800  Biso   1.000  O
  O79      1.0000 0.32600  0.00860  0.88290  Biso   1.000  O
  O80      1.0000 0.21560  0.81860  0.92230  Biso   1.000  O
  O81      1.0000 0.40750  0.00220  0.72020  Biso   1.000  O
  O82      1.0000 0.39520  0.99500  0.61070  Biso   1.000  O
  O83      1.0000 0.52600  0.00120  0.66410  Biso   1.000  O
  O84      1.0000 0.44010  0.69200  0.66380  Biso   1.000  O
  H7       1.0000 0.45520  0.61400  0.69460  Biso   1.000  H
  Zr15     1.0000 0.85917  0.50150  0.79975  Biso   1.000  Zr
  Zr16     1.0000 0.72013  0.00550  0.92539  Biso   1.000  Zr
  P22      1.0000 0.80802  0.00140  0.79312  Biso   1.000  P
  P23      1.0000 0.76907  0.50270  0.93044  Biso   1.000  P
  P24      1.0000 0.94220  0.42750  0.66599  Biso   1.000  P
  F8       1.0000 0.83030  0.01460  0.95850  Biso   1.000  F
  O85      1.0000 0.86250  0.81760  0.79320  Biso   1.000  O
  O86      1.0000 0.75310  0.00460  0.73730  Biso   1.000  O
  O87      1.0000 0.75990  0.99020  0.84520  Biso   1.000  O
  O88      1.0000 0.85910  0.19060  0.79650  Biso   1.000  O
  O89      1.0000 0.81620  0.49040  0.98980  Biso   1.000  O
  O90      1.0000 0.71850  0.69110  0.92800  Biso   1.000  O
  O91      1.0000 0.82600  0.50860  0.88290  Biso   1.000  O
  O92      1.0000 0.71560  0.31860  0.92230  Biso   1.000  O
  O93      1.0000 0.90750  0.50220  0.72020  Biso   1.000  O
  O94      1.0000 0.89520  0.49500  0.61070  Biso   1.000  O
  O95      1.0000 0.02600  0.50120  0.66410  Biso   1.000  O
  O96      1.0000 0.94010  0.19200  0.66380  Biso   1.000  O
  H8       1.0000 0.95520  0.11400  0.69460  Biso   1.000  H
