data_image0
_cell_length_a       17.34
_cell_length_b       6.6053
_cell_length_c       11.54
_cell_angle_alpha    90
_cell_angle_beta     95.41
_cell_angle_gamma    90

_symmetry_space_group_name_H-M    "P 1"
_symmetry_int_tables_number       1

loop_
  _symmetry_equiv_pos_as_xyz
  'x, y, z'

loop_
  _atom_site_label
  _atom_site_occupancy
  _atom_site_fract_x
  _atom_site_fract_y
  _atom_site_fract_z
  _atom_site_thermal_displace_type
  _atom_site_B_iso_or_equiv
  _atom_site_type_symbol
  Zr1      1.0000 0.85979  0.85487  0.10017  Biso   1.000  Zr
  Zr2      1.0000 0.22146  0.84751  0.35054  Biso   1.000  Zr
  P1       1.0000 0.22812  0.85260  0.63908  Biso   1.000  P
  P2       1.0000 0.69236  0.85510  0.91438  Biso   1.000  P
  P3       1.0000 0.05782  0.78530  0.16692  Biso   1.000  P
  F1       1.0000 0.32900  0.83870  0.42220  Biso   1.000  F
  O1       1.0000 0.10610  0.84940  0.27720  Biso   1.000  O
  O2       1.0000 0.74780  0.85430  0.02530  Biso   1.000  O
  O3       1.0000 0.18320  0.85040  0.51800  Biso   1.000  O
  O4       1.0000 0.97520  0.85920  0.17150  Biso   1.000  O
  O5       1.0000 0.05910  0.55040  0.17130  Biso   1.000  O
  O6       1.0000 0.64210  0.04270  0.90760  Biso   1.000  O
  O7       1.0000 0.17140  0.85870  0.73290  Biso   1.000  O
  O8       1.0000 0.28200  0.03400  0.65110  Biso   1.000  O
  O9       1.0000 0.63810  0.66900  0.91450  Biso   1.000  O
  O10      1.0000 0.27750  0.65950  0.65330  Biso   1.000  O
  O11      1.0000 0.09140  0.85570  0.05860  Biso   1.000  O
  O12      1.0000 0.73920  0.84190  0.80960  Biso   1.000  O
  Zr3      1.0000 0.35979  0.35487  0.10017  Biso   1.000  Zr
  Zr4      1.0000 0.72146  0.34751  0.35054  Biso   1.000  Zr
  P4       1.0000 0.72812  0.35260  0.63908  Biso   1.000  P
  P5       1.0000 0.19236  0.35510  0.91438  Biso   1.000  P
  P6       1.0000 0.55782  0.28530  0.16692  Biso   1.000  P
  F2       1.0000 0.82900  0.33870  0.42220  Biso   1.000  F
  O13      1.0000 0.60610  0.34940  0.27720  Biso   1.000  O
  O14      1.0000 0.24780  0.35430  0.02530  Biso   1.000  O
  O15      1.0000 0.68320  0.35040  0.51800  Biso   1.000  O
  O16      1.0000 0.47520  0.35920  0.17150  Biso   1.000  O
  O17      1.0000 0.55910  0.05040  0.17130  Biso   1.000  O
  O18      1.0000 0.14210  0.54270  0.90760  Biso   1.000  O
  O19      1.0000 0.67140  0.35870  0.73290  Biso   1.000  O
  O20      1.0000 0.78200  0.53400  0.65110  Biso   1.000  O
  O21      1.0000 0.13810  0.16900  0.91450  Biso   1.000  O
  O22      1.0000 0.77750  0.15950  0.65330  Biso   1.000  O
  O23      1.0000 0.59140  0.35570  0.05860  Biso   1.000  O
  O24      1.0000 0.23920  0.34190  0.80960  Biso   1.000  O
  Zr5      1.0000 0.14021  0.85487  0.89983  Biso   1.000  Zr
  Zr6      1.0000 0.77854  0.84751  0.64946  Biso   1.000  Zr
  P7       1.0000 0.77188  0.85260  0.36092  Biso   1.000  P
  P8       1.0000 0.30764  0.85510  0.08562  Biso   1.000  P
  P9       1.0000 0.94218  0.78530  0.83308  Biso   1.000  P
  F3       1.0000 0.67100  0.83870  0.57780  Biso   1.000  F
  O25      1.0000 0.89390  0.84940  0.72280  Biso   1.000  O
  O26      1.0000 0.25220  0.85430  0.97470  Biso   1.000  O
  O27      1.0000 0.81680  0.85040  0.48200  Biso   1.000  O
  O28      1.0000 0.02480  0.85920  0.82850  Biso   1.000  O
  O29      1.0000 0.94090  0.55040  0.82870  Biso   1.000  O
  O30      1.0000 0.35790  0.04270  0.09240  Biso   1.000  O
  O31      1.0000 0.82860  0.85870  0.26710  Biso   1.000  O
  O32      1.0000 0.71800  0.03400  0.34890  Biso   1.000  O
  O33      1.0000 0.36190  0.66900  0.08550  Biso   1.000  O
  O34      1.0000 0.72250  0.65950  0.34670  Biso   1.000  O
  O35      1.0000 0.90860  0.85570  0.94140  Biso   1.000  O
  O36      1.0000 0.26080  0.84190  0.19040  Biso   1.000  O
  Zr7      1.0000 0.64021  0.35487  0.89983  Biso   1.000  Zr
  Zr8      1.0000 0.27854  0.34751  0.64946  Biso   1.000  Zr
  P10      1.0000 0.27188  0.35260  0.36092  Biso   1.000  P
  P11      1.0000 0.80764  0.35510  0.08562  Biso   1.000  P
  P12      1.0000 0.44218  0.28530  0.83308  Biso   1.000  P
  F4       1.0000 0.17100  0.33870  0.57780  Biso   1.000  F
  O37      1.0000 0.39390  0.34940  0.72280  Biso   1.000  O
  O38      1.0000 0.75220  0.35430  0.97470  Biso   1.000  O
  O39      1.0000 0.31680  0.35040  0.48200  Biso   1.000  O
  O40      1.0000 0.52480  0.35920  0.82850  Biso   1.000  O
  O41      1.0000 0.44090  0.05040  0.82870  Biso   1.000  O
  O42      1.0000 0.85790  0.54270  0.09240  Biso   1.000  O
  O43      1.0000 0.32860  0.35870  0.26710  Biso   1.000  O
  O44      1.0000 0.21800  0.53400  0.34890  Biso   1.000  O
  O45      1.0000 0.86190  0.16900  0.08550  Biso   1.000  O
  O46      1.0000 0.22250  0.15950  0.34670  Biso   1.000  O
  O47      1.0000 0.40860  0.35570  0.94140  Biso   1.000  O
  O48      1.0000 0.76080  0.34190  0.19040  Biso   1.000  O
