data_image0
_cell_length_a       8.99
_cell_length_b       12.14
_cell_length_c       8.511
_cell_angle_alpha    90
_cell_angle_beta     90
_cell_angle_gamma    90

_symmetry_space_group_name_H-M    "P 1"
_symmetry_int_tables_number       1

loop_
  _symmetry_equiv_pos_as_xyz
  'x, y, z'

loop_
  _atom_site_label
  _atom_site_occupancy
  _atom_site_fract_x
  _atom_site_fract_y
  _atom_site_fract_z
  _atom_site_thermal_displace_type
  _atom_site_B_iso_or_equiv
  _atom_site_type_symbol
  O1       1.0000 0.16150  0.54670  0.16340  Biso   1.000  O
  O2       1.0000 0.66150  0.04670  0.66340  Biso   1.000  O
  O3       1.0000 0.83850  0.95330  0.16340  Biso   1.000  O
  O4       1.0000 0.33850  0.45330  0.66340  Biso   1.000  O
  O5       1.0000 0.83850  0.04670  0.83660  Biso   1.000  O
  O6       1.0000 0.33850  0.54670  0.33660  Biso   1.000  O
  O7       1.0000 0.16150  0.45330  0.83660  Biso   1.000  O
  O8       1.0000 0.66150  0.95330  0.33660  Biso   1.000  O
  O9       1.0000 0.83850  0.45330  0.83660  Biso   1.000  O
  O10      1.0000 0.33850  0.95330  0.33660  Biso   1.000  O
  O11      1.0000 0.16150  0.04670  0.83660  Biso   1.000  O
  O12      1.0000 0.66150  0.54670  0.33660  Biso   1.000  O
  O13      1.0000 0.16150  0.95330  0.16340  Biso   1.000  O
  O14      1.0000 0.66150  0.45330  0.66340  Biso   1.000  O
  O15      1.0000 0.83850  0.54670  0.16340  Biso   1.000  O
  O16      1.0000 0.33850  0.04670  0.66340  Biso   1.000  O
  Mg1      1.0000 0.00000  0.50000  0.00000  Biso   1.000  Mg
  Mg2      1.0000 0.50000  0.00000  0.50000  Biso   1.000  Mg
  Mg3      1.0000 0.00000  0.00000  0.00000  Biso   1.000  Mg
  Mg4      1.0000 0.50000  0.50000  0.50000  Biso   1.000  Mg
  O17      1.0000 0.00000  0.33990  0.08100  Biso   1.000  O
  O18      1.0000 0.50000  0.83990  0.58100  Biso   1.000  O
  O19      1.0000 0.00000  0.16010  0.08100  Biso   1.000  O
  O20      1.0000 0.50000  0.66010  0.58100  Biso   1.000  O
  O21      1.0000 0.00000  0.83990  0.91900  Biso   1.000  O
  O22      1.0000 0.50000  0.33990  0.41900  Biso   1.000  O
  O23      1.0000 0.00000  0.66010  0.91900  Biso   1.000  O
  O24      1.0000 0.50000  0.16010  0.41900  Biso   1.000  O
  C1       1.0000 0.00000  0.25000  0.05440  Biso   1.000  C
  C2       1.0000 0.50000  0.75000  0.55440  Biso   1.000  C
  C3       1.0000 0.00000  0.75000  0.94560  Biso   1.000  C
  C4       1.0000 0.50000  0.25000  0.44560  Biso   1.000  C
  C5       1.0000 0.25000  0.50150  0.25000  Biso   1.000  C
  C6       1.0000 0.75000  0.99850  0.25000  Biso   1.000  C
  C7       1.0000 0.75000  0.00150  0.75000  Biso   1.000  C
  C8       1.0000 0.25000  0.49850  0.75000  Biso   1.000  C
  C9       1.0000 0.75000  0.49850  0.75000  Biso   1.000  C
  C10      1.0000 0.25000  0.99850  0.25000  Biso   1.000  C
  C11      1.0000 0.25000  0.00150  0.75000  Biso   1.000  C
  C12      1.0000 0.75000  0.50150  0.25000  Biso   1.000  C
