data_image0
_cell_length_a       8.3957
_cell_length_b       8.3957
_cell_length_c       21.7332
_cell_angle_alpha    90
_cell_angle_beta     90
_cell_angle_gamma    120

_symmetry_space_group_name_H-M    "P 1"
_symmetry_int_tables_number       1

loop_
  _symmetry_equiv_pos_as_xyz
  'x, y, z'

loop_
  _atom_site_label
  _atom_site_occupancy
  _atom_site_fract_x
  _atom_site_fract_y
  _atom_site_fract_z
  _atom_site_thermal_displace_type
  _atom_site_B_iso_or_equiv
  _atom_site_type_symbol
  O1       1.0000 0.20060  0.21200  0.05282  Biso   1.000  O
  O2       1.0000 0.32500  0.46220  0.11004  Biso   1.000  O
  C1       1.0000 0.19770  0.32440  0.08850  Biso   1.000  C
  H1       1.0000 0.08130  0.29990  0.10060  Biso   1.000  H
  O3       1.0000 0.86727  0.54533  0.38615  Biso   1.000  O
  O4       1.0000 0.99167  0.79553  0.44337  Biso   1.000  O
  C2       1.0000 0.86437  0.65773  0.42183  Biso   1.000  C
  H2       1.0000 0.74797  0.63323  0.43393  Biso   1.000  H
  O5       1.0000 0.53393  0.87867  0.71949  Biso   1.000  O
  O6       1.0000 0.65833  0.12887  0.77671  Biso   1.000  O
  C3       1.0000 0.53103  0.99107  0.75517  Biso   1.000  C
  H3       1.0000 0.41463  0.96657  0.76727  Biso   1.000  H
  O7       1.0000 0.78800  0.98860  0.05282  Biso   1.000  O
  O8       1.0000 0.53780  0.86280  0.11004  Biso   1.000  O
  C4       1.0000 0.67560  0.87330  0.08850  Biso   1.000  C
  H4       1.0000 0.70010  0.78140  0.10060  Biso   1.000  H
  O9       1.0000 0.45467  0.32193  0.38615  Biso   1.000  O
  O10      1.0000 0.20447  0.19613  0.44337  Biso   1.000  O
  C5       1.0000 0.34227  0.20663  0.42183  Biso   1.000  C
  H5       1.0000 0.36677  0.11473  0.43393  Biso   1.000  H
  O11      1.0000 0.12133  0.65527  0.71949  Biso   1.000  O
  O12      1.0000 0.87113  0.52947  0.77671  Biso   1.000  O
  C6       1.0000 0.00893  0.53997  0.75517  Biso   1.000  C
  H6       1.0000 0.03343  0.44807  0.76727  Biso   1.000  H
  O13      1.0000 0.01140  0.79940  0.05282  Biso   1.000  O
  O14      1.0000 0.13720  0.67500  0.11004  Biso   1.000  O
  C7       1.0000 0.12670  0.80230  0.08850  Biso   1.000  C
  H7       1.0000 0.21860  0.91870  0.10060  Biso   1.000  H
  O15      1.0000 0.67807  0.13273  0.38615  Biso   1.000  O
  O16      1.0000 0.80387  0.00833  0.44337  Biso   1.000  O
  C8       1.0000 0.79337  0.13563  0.42183  Biso   1.000  C
  H8       1.0000 0.88527  0.25203  0.43393  Biso   1.000  H
  O17      1.0000 0.34473  0.46607  0.71949  Biso   1.000  O
  O18      1.0000 0.47053  0.34167  0.77671  Biso   1.000  O
  C9       1.0000 0.46003  0.46897  0.75517  Biso   1.000  C
  H9       1.0000 0.55193  0.58537  0.76727  Biso   1.000  H
  O19      1.0000 0.79940  0.78800  0.94718  Biso   1.000  O
  O20      1.0000 0.67500  0.53780  0.88996  Biso   1.000  O
  C10      1.0000 0.80230  0.67560  0.91150  Biso   1.000  C
  H10      1.0000 0.91870  0.70010  0.89940  Biso   1.000  H
  O21      1.0000 0.46607  0.12133  0.28051  Biso   1.000  O
  O22      1.0000 0.34167  0.87113  0.22329  Biso   1.000  O
  C11      1.0000 0.46897  0.00893  0.24483  Biso   1.000  C
  H11      1.0000 0.58537  0.03343  0.23273  Biso   1.000  H
  O23      1.0000 0.13273  0.45467  0.61385  Biso   1.000  O
  O24      1.0000 0.00833  0.20447  0.55663  Biso   1.000  O
  C12      1.0000 0.13563  0.34227  0.57817  Biso   1.000  C
  H12      1.0000 0.25203  0.36677  0.56607  Biso   1.000  H
  O25      1.0000 0.21200  0.01140  0.94718  Biso   1.000  O
  O26      1.0000 0.46220  0.13720  0.88996  Biso   1.000  O
  C13      1.0000 0.32440  0.12670  0.91150  Biso   1.000  C
  H13      1.0000 0.29990  0.21860  0.89940  Biso   1.000  H
  O27      1.0000 0.87867  0.34473  0.28051  Biso   1.000  O
  O28      1.0000 0.12887  0.47053  0.22329  Biso   1.000  O
  C14      1.0000 0.99107  0.46003  0.24483  Biso   1.000  C
  H14      1.0000 0.96657  0.55193  0.23273  Biso   1.000  H
  O29      1.0000 0.54533  0.67807  0.61385  Biso   1.000  O
  O30      1.0000 0.79553  0.80387  0.55663  Biso   1.000  O
  C15      1.0000 0.65773  0.79337  0.57817  Biso   1.000  C
  H15      1.0000 0.63323  0.88527  0.56607  Biso   1.000  H
  O31      1.0000 0.98860  0.20060  0.94718  Biso   1.000  O
  O32      1.0000 0.86280  0.32500  0.88996  Biso   1.000  O
  C16      1.0000 0.87330  0.19770  0.91150  Biso   1.000  C
  H16      1.0000 0.78140  0.08130  0.89940  Biso   1.000  H
  O33      1.0000 0.65527  0.53393  0.28051  Biso   1.000  O
  O34      1.0000 0.52947  0.65833  0.22329  Biso   1.000  O
  C17      1.0000 0.53997  0.53103  0.24483  Biso   1.000  C
  H17      1.0000 0.44807  0.41463  0.23273  Biso   1.000  H
  O35      1.0000 0.32193  0.86727  0.61385  Biso   1.000  O
  O36      1.0000 0.19613  0.99167  0.55663  Biso   1.000  O
  C18      1.0000 0.20663  0.86437  0.57817  Biso   1.000  C
  H18      1.0000 0.11473  0.74797  0.56607  Biso   1.000  H
  Mg1      1.0000 0.00000  0.00000  0.00000  Biso   1.000  Mg
  Mg2      1.0000 0.66667  0.33333  0.33333  Biso   1.000  Mg
  Mg3      1.0000 0.33333  0.66667  0.66667  Biso   1.000  Mg
  Mg4      1.0000 0.33333  0.66667  0.16667  Biso   1.000  Mg
  Mg5      1.0000 0.00000  0.00000  0.50000  Biso   1.000  Mg
  Mg6      1.0000 0.66667  0.33333  0.83333  Biso   1.000  Mg
