data_SISFEH_clean
_audit_creation_date              2014-07-02
_audit_creation_method            'Materials Studio'
_symmetry_space_group_name_H-M    'P1'
_symmetry_Int_Tables_number       1
_symmetry_cell_setting            triclinic
loop_
_symmetry_equiv_pos_as_xyz
  x,y,z
_cell_length_a                    8.7635
_cell_length_b                    11.4678
_cell_length_c                    11.4678
_cell_angle_alpha                 106.0560
_cell_angle_beta                  103.8260
_cell_angle_gamma                 76.1737
loop_
_atom_site_label
_atom_site_type_symbol
_atom_site_fract_x
_atom_site_fract_y
_atom_site_fract_z
_atom_site_U_iso_or_equiv
_atom_site_adp_type
_atom_site_occupancy
Sr1    Sr    0.75000   0.46165   0.46165   0.01267  Uiso   1.00
Sr2    Sr    0.25000   0.53835   0.53835   0.01267  Uiso   1.00
Ni1    Ni    0.00000   0.50000  -0.00000   0.01267  Uiso   1.00
Ni2    Ni    0.50000  -0.00000   0.50000   0.01267  Uiso   1.00
H1     H     0.47570   0.30630   0.45990   0.01267  Uiso   1.00
H2     H     0.46390   0.34730   0.35510   0.01267  Uiso   1.00
H3     H     0.57030   0.29730   0.74170   0.01267  Uiso   1.00
H4     H     0.46200   0.26670   0.89590   0.01267  Uiso   1.00
H5     H     0.77350   0.45270   0.14790   0.01267  Uiso   1.00
H6     H     0.02430   0.45990   0.30630   0.01267  Uiso   1.00
H7     H     0.03610   0.35510   0.34730   0.01267  Uiso   1.00
H8     H     0.92970   0.74170   0.29730   0.01267  Uiso   1.00
H9     H     0.03800   0.89590   0.26670   0.01267  Uiso   1.00
H10    H     0.72650   0.14790   0.45270   0.01267  Uiso   1.00
H11    H     0.52430   0.69370   0.54010   0.01267  Uiso   1.00
H12    H     0.53610   0.65270   0.64490   0.01267  Uiso   1.00
H13    H     0.42970   0.70270   0.25830   0.01267  Uiso   1.00
H14    H     0.53800   0.73330   0.10410   0.01267  Uiso   1.00
H15    H     0.22650   0.54730   0.85210   0.01267  Uiso   1.00
H16    H     0.97570   0.54010   0.69370   0.01267  Uiso   1.00
H17    H     0.96390   0.64490   0.65270   0.01267  Uiso   1.00
H18    H     0.07030   0.25830   0.70270   0.01267  Uiso   1.00
H19    H     0.96200   0.10410   0.73330   0.01267  Uiso   1.00
H20    H     0.27350   0.85210   0.54730   0.01267  Uiso   1.00
C1     C     0.73510   0.39097   0.85919   0.01267  Uiso   1.00
C2     C     0.61030   0.32776   0.82464   0.01267  Uiso   1.00
C3     C     0.54530   0.31028   0.91672   0.01267  Uiso   1.00
C4     C     0.60550   0.35824   0.03944   0.01267  Uiso   1.00
C5     C     0.73200   0.42015   0.06571   0.01267  Uiso   1.00
C6     C     0.80970   0.42019   0.76697   0.01267  Uiso   1.00
C7     C     0.54010   0.34698   0.14482   0.01267  Uiso   1.00
C8     C     0.76490   0.85919   0.39097   0.01267  Uiso   1.00
C9     C     0.88970   0.82464   0.32776   0.01267  Uiso   1.00
C10    C     0.95470   0.91672   0.31028   0.01267  Uiso   1.00
C11    C     0.89450   0.03944   0.35824   0.01267  Uiso   1.00
C12    C     0.76800   0.06571   0.42015   0.01267  Uiso   1.00
C13    C     0.69030   0.76697   0.42019   0.01267  Uiso   1.00
C14    C     0.95990   0.14482   0.34698   0.01267  Uiso   1.00
C15    C     0.26490   0.60903   0.14081   0.01267  Uiso   1.00
C16    C     0.38970   0.67224   0.17536   0.01267  Uiso   1.00
C17    C     0.45470   0.68972   0.08328   0.01267  Uiso   1.00
C18    C     0.39450   0.64176   0.96056   0.01267  Uiso   1.00
C19    C     0.26800   0.57985   0.93429   0.01267  Uiso   1.00
C20    C     0.19030   0.57981   0.23303   0.01267  Uiso   1.00
C21    C     0.45990   0.65302   0.85518   0.01267  Uiso   1.00
C22    C     0.23510   0.14081   0.60903   0.01267  Uiso   1.00
C23    C     0.11030   0.17536   0.67224   0.01267  Uiso   1.00
C24    C     0.04530   0.08328   0.68972   0.01267  Uiso   1.00
C25    C     0.10550   0.96056   0.64176   0.01267  Uiso   1.00
C26    C     0.23200   0.93429   0.57985   0.01267  Uiso   1.00
C27    C     0.30970   0.23303   0.57981   0.01267  Uiso   1.00
C28    C     0.04010   0.85518   0.65302   0.01267  Uiso   1.00
N1     N     0.79670   0.43477   0.97765   0.01267  Uiso   1.00
N2     N     0.70330   0.97765   0.43477   0.01267  Uiso   1.00
N3     N     0.20330   0.56523   0.02235   0.01267  Uiso   1.00
N4     N     0.29670   0.02235   0.56523   0.01267  Uiso   1.00
O1     O     0.93070   0.47230   0.81268   0.01267  Uiso   1.00
O2     O     0.75160   0.39258   0.65652   0.01267  Uiso   1.00
O3     O     0.42640   0.29223   0.12217   0.01267  Uiso   1.00
O4     O     0.60390   0.39541   0.24965   0.01267  Uiso   1.00
O5     O     0.46720   0.36977   0.43269   0.01267  Uiso   1.00
O6     O     0.56930   0.81268   0.47230   0.01267  Uiso   1.00
O7     O     0.74840   0.65652   0.39258   0.01267  Uiso   1.00
O8     O     0.07360   0.12217   0.29223   0.01267  Uiso   1.00
O9     O     0.89610   0.24965   0.39541   0.01267  Uiso   1.00
O10    O     0.03280   0.43269   0.36977   0.01267  Uiso   1.00
O11    O     0.06930   0.52770   0.18732   0.01267  Uiso   1.00
O12    O     0.24840   0.60742   0.34348   0.01267  Uiso   1.00
O13    O     0.57360   0.70777   0.87783   0.01267  Uiso   1.00
O14    O     0.39610   0.60459   0.75035   0.01267  Uiso   1.00
O15    O     0.53280   0.63023   0.56731   0.01267  Uiso   1.00
O16    O     0.43070   0.18732   0.52770   0.01267  Uiso   1.00
O17    O     0.25160   0.34348   0.60742   0.01267  Uiso   1.00
O18    O     0.92640   0.87783   0.70777   0.01267  Uiso   1.00
O19    O     0.10390   0.75035   0.60459   0.01267  Uiso   1.00
O20    O     0.96720   0.56731   0.63023   0.01267  Uiso   1.00
