data_SISQIW_clean
_audit_creation_date              2015-10-16
_audit_creation_method            'Materials Studio'
_symmetry_space_group_name_H-M    'P1'
_symmetry_Int_Tables_number       1
_symmetry_cell_setting            triclinic
loop_
_symmetry_equiv_pos_as_xyz
  x,y,z
_cell_length_a                    10.9350
_cell_length_b                    17.9150
_cell_length_c                    16.9530
_cell_angle_alpha                 89.8320
_cell_angle_beta                  90.0000
_cell_angle_gamma                 90.0000
loop_
_atom_site_label
_atom_site_type_symbol
_atom_site_fract_x
_atom_site_fract_y
_atom_site_fract_z
_atom_site_U_iso_or_equiv
_atom_site_adp_type
_atom_site_occupancy
Nd1    Nd    0.60790   0.82889   0.12374   0.01267  Uiso   1.00
Nd2    Nd    0.95509   0.33278   0.47273   0.01267  Uiso   1.00
Nd3    Nd    0.41127   0.83103   0.90892   0.01267  Uiso   1.00
Nd4    Nd    0.04491   0.33278   0.97273   0.01267  Uiso   1.00
Nd5    Nd    0.13993   0.32540   0.26150   0.01267  Uiso   1.00
Nd6    Nd    0.39210   0.82889   0.62374   0.01267  Uiso   1.00
Nd7    Nd    0.86007   0.32540   0.76150   0.01267  Uiso   1.00
Nd8    Nd    0.58873   0.83103   0.40892   0.01267  Uiso   1.00
H1     H     0.73560   0.01160   0.07580   0.01267  Uiso   1.00
H2     H     0.79120   0.16160   0.41270   0.01267  Uiso   1.00
H3     H     0.26440   0.01160   0.57580   0.01267  Uiso   1.00
H4     H     0.56980   0.78630   0.76680   0.01267  Uiso   1.00
H5     H     0.16010   0.13340   0.55590   0.01267  Uiso   1.00
H6     H     0.57020   0.87300   0.76580   0.01267  Uiso   1.00
H7     H     0.60060   0.02650   0.71530   0.01267  Uiso   1.00
H8     H     0.24080   0.66320   0.97270   0.01267  Uiso   1.00
H9     H     0.86240   0.54390   0.48950   0.01267  Uiso   1.00
H10    H     0.27750   0.51160   0.30410   0.01267  Uiso   1.00
H11    H     0.43020   0.78630   0.26680   0.01267  Uiso   1.00
H12    H     0.08830   0.51670   0.65390   0.01267  Uiso   1.00
H13    H     0.20880   0.16160   0.91270   0.01267  Uiso   1.00
H14    H     0.72250   0.51160   0.80410   0.01267  Uiso   1.00
H15    H     0.42980   0.87300   0.26580   0.01267  Uiso   1.00
H16    H     0.83990   0.13340   0.05590   0.01267  Uiso   1.00
H17    H     0.39940   0.02650   0.21530   0.01267  Uiso   1.00
H18    H     0.91170   0.51670   0.15390   0.01267  Uiso   1.00
H19    H     0.67270   0.04440   0.39630   0.01267  Uiso   1.00
H20    H     0.61840   0.63120   0.81890   0.01267  Uiso   1.00
H21    H     0.31190   0.15180   0.22590   0.01267  Uiso   1.00
H22    H     0.32730   0.04440   0.89630   0.01267  Uiso   1.00
H23    H     0.75920   0.66320   0.47270   0.01267  Uiso   1.00
H24    H     0.80350   0.63730   0.14150   0.01267  Uiso   1.00
H25    H     0.13760   0.54390   0.98950   0.01267  Uiso   1.00
H26    H     0.68810   0.15180   0.72590   0.01267  Uiso   1.00
H27    H     0.19650   0.63730   0.64150   0.01267  Uiso   1.00
H28    H     0.38160   0.63120   0.31890   0.01267  Uiso   1.00
C1     C     0.23720   0.14020   0.11670   0.01267  Uiso   1.00
C2     C     0.76280   0.14020   0.61670   0.01267  Uiso   1.00
C3     C     0.18880   0.45080   0.11690   0.01267  Uiso   1.00
C4     C     0.72670   0.54060   0.84950   0.01267  Uiso   1.00
C5     C     0.81120   0.45080   0.61690   0.01267  Uiso   1.00
C6     C     0.30170   0.12100   0.18230   0.01267  Uiso   1.00
C7     C     0.81450   0.21080   0.91430   0.01267  Uiso   1.00
C8     C     0.69830   0.12100   0.68230   0.01267  Uiso   1.00
C9     C     0.90140   0.43920   0.29800   0.01267  Uiso   1.00
C10    C     0.29790   0.70910   0.76960   0.01267  Uiso   1.00
C11    C     0.69260   0.64350   0.92660   0.01267  Uiso   1.00
C12    C     0.18070   0.21380   0.09960   0.01267  Uiso   1.00
C13    C     0.70210   0.70910   0.26960   0.01267  Uiso   1.00
C14    C     0.79260   0.10980   0.01780   0.01267  Uiso   1.00
C15    C     0.75980   0.63560   0.25450   0.01267  Uiso   1.00
C16    C     0.63530   0.94020   0.57980   0.01267  Uiso   1.00
C17    C     0.30740   0.64350   0.42660   0.01267  Uiso   1.00
C18    C     0.19530   0.56280   0.02440   0.01267  Uiso   1.00
C19    C     0.36470   0.94020   0.07980   0.01267  Uiso   1.00
C20    C     0.30070   0.95590   0.76420   0.01267  Uiso   1.00
C21    C     0.33170   0.61040   0.35750   0.01267  Uiso   1.00
C22    C     0.69930   0.95590   0.26420   0.01267  Uiso   1.00
C23    C     0.72500   0.06420   0.35840   0.01267  Uiso   1.00
C24    C     0.66400   0.64730   0.57500   0.01267  Uiso   1.00
C25    C     0.58870   0.71370   0.58470   0.01267  Uiso   1.00
C26    C     0.79200   0.13320   0.36690   0.01267  Uiso   1.00
C27    C     0.85530   0.15190   0.30240   0.01267  Uiso   1.00
C28    C     0.24020   0.63560   0.75450   0.01267  Uiso   1.00
C29    C     0.85130   0.51160   0.26780   0.01267  Uiso   1.00
C30    C     0.33600   0.64730   0.07500   0.01267  Uiso   1.00
C31    C     0.80470   0.56280   0.52440   0.01267  Uiso   1.00
C32    C     0.39680   0.94680   0.45200   0.01267  Uiso   1.00
C33    C     0.65410   0.71840   0.95690   0.01267  Uiso   1.00
C34    C     0.67800   0.01380   0.60740   0.01267  Uiso   1.00
C35    C     0.77160   0.13740   0.94620   0.01267  Uiso   1.00
C36    C     0.27330   0.54060   0.34950   0.01267  Uiso   1.00
C37    C     0.32200   0.01380   0.10740   0.01267  Uiso   1.00
C38    C     0.81930   0.21380   0.59960   0.01267  Uiso   1.00
C39    C     0.13180   0.53970   0.69420   0.01267  Uiso   1.00
C40    C     0.34590   0.71840   0.45690   0.01267  Uiso   1.00
C41    C     0.25480   0.63130   0.01520   0.01267  Uiso   1.00
C42    C     0.60320   0.94680   0.95200   0.01267  Uiso   1.00
C43    C     0.19190   0.61070   0.68860   0.01267  Uiso   1.00
C44    C     0.93540   0.21880   0.29010   0.01267  Uiso   1.00
C45    C     0.35150   0.04840   0.17620   0.01267  Uiso   1.00
C46    C     0.25120   0.03150   0.78620   0.01267  Uiso   1.00
C47    C     0.21200   0.52070   0.41340   0.01267  Uiso   1.00
C48    C     0.67280   0.01630   0.96350   0.01267  Uiso   1.00
C49    C     0.66830   0.61040   0.85750   0.01267  Uiso   1.00
C50    C     0.64850   0.04840   0.67620   0.01267  Uiso   1.00
C51    C     0.20740   0.10980   0.51780   0.01267  Uiso   1.00
C52    C     0.86820   0.53970   0.19420   0.01267  Uiso   1.00
C53    C     0.41130   0.71370   0.08470   0.01267  Uiso   1.00
C54    C     0.27500   0.06420   0.85840   0.01267  Uiso   1.00
C55    C     0.22840   0.13740   0.44620   0.01267  Uiso   1.00
C56    C     0.26700   0.03880   0.52900   0.01267  Uiso   1.00
C57    C     0.74880   0.03150   0.28620   0.01267  Uiso   1.00
C58    C     0.32720   0.01630   0.46350   0.01267  Uiso   1.00
C59    C     0.06460   0.21880   0.79010   0.01267  Uiso   1.00
C60    C     0.14470   0.15190   0.80240   0.01267  Uiso   1.00
C61    C     0.23330   0.52790   0.09080   0.01267  Uiso   1.00
C62    C     0.09860   0.43920   0.79800   0.01267  Uiso   1.00
C63    C     0.73300   0.03880   0.02900   0.01267  Uiso   1.00
C64    C     0.80810   0.61070   0.18860   0.01267  Uiso   1.00
C65    C     0.78800   0.52070   0.91340   0.01267  Uiso   1.00
C66    C     0.14870   0.51160   0.76780   0.01267  Uiso   1.00
C67    C     0.20800   0.13320   0.86690   0.01267  Uiso   1.00
C68    C     0.14150   0.45210   0.42960   0.01267  Uiso   1.00
C69    C     0.18550   0.21080   0.41430   0.01267  Uiso   1.00
C70    C     0.76670   0.52790   0.59080   0.01267  Uiso   1.00
C71    C     0.74520   0.63130   0.51520   0.01267  Uiso   1.00
C72    C     0.85850   0.45210   0.92960   0.01267  Uiso   1.00
S1     S     0.31880   0.08131   0.38967   0.01267  Uiso   1.00
S2     S     0.68120   0.08131   0.88967   0.01267  Uiso   1.00
S3     S     0.23310   0.06963   0.05012   0.01267  Uiso   1.00
S4     S     0.22600   0.57054   0.82805   0.01267  Uiso   1.00
S5     S     0.77400   0.57054   0.32805   0.01267  Uiso   1.00
S6     S     0.66670   0.57869   0.64420   0.01267  Uiso   1.00
S7     S     0.16310   0.08588   0.72825   0.01267  Uiso   1.00
S8     S     0.83690   0.08588   0.22825   0.01267  Uiso   1.00
S9     S     0.21810   0.58771   0.48552   0.01267  Uiso   1.00
S10    S     0.76690   0.06963   0.55012   0.01267  Uiso   1.00
S11    S     0.78190   0.58771   0.98552   0.01267  Uiso   1.00
S12    S     0.33330   0.57869   0.14420   0.01267  Uiso   1.00
O1     O     0.14210   0.39970   0.37700   0.01267  Uiso   1.00
O2     O     0.41720   0.76120   0.03020   0.01267  Uiso   1.00
O3     O     0.20580   0.26470   0.14760   0.01267  Uiso   1.00
O4     O     0.35100   0.71920   0.83440   0.01267  Uiso   1.00
O5     O     0.33990   0.92240   0.00970   0.01267  Uiso   1.00
O6     O     0.32260   0.73490   0.52570   0.01267  Uiso   1.00
O7     O     0.88510   0.21990   0.54020   0.01267  Uiso   1.00
O8     O     0.11570   0.42530   0.86970   0.01267  Uiso   1.00
O9     O     0.79240   0.22660   0.84520   0.01267  Uiso   1.00
O10    O     0.79350   0.43370   0.68770   0.01267  Uiso   1.00
O11    O     0.59580   0.75830   0.90730   0.01267  Uiso   1.00
O12    O     0.54870   0.93770   0.88600   0.01267  Uiso   1.00
O13    O     0.45130   0.93770   0.38600   0.01267  Uiso   1.00
O14    O     0.95780   0.39850   0.24930   0.01267  Uiso   1.00
O15    O     0.66010   0.92240   0.50970   0.01267  Uiso   1.00
O16    O     0.51690   0.82980   0.76730   0.01267  Uiso   1.00
O17    O     0.01450   0.22840   0.72500   0.01267  Uiso   1.00
O18    O     0.94800   0.26240   0.34750   0.01267  Uiso   1.00
O19    O     0.59800   0.89980   0.00420   0.01267  Uiso   1.00
O20    O     0.40420   0.75830   0.40730   0.01267  Uiso   1.00
O21    O     0.04220   0.39850   0.74930   0.01267  Uiso   1.00
O22    O     0.71370   0.75680   0.21620   0.01267  Uiso   1.00
O23    O     0.20760   0.22660   0.34520   0.01267  Uiso   1.00
O24    O     0.41980   0.90080   0.12720   0.01267  Uiso   1.00
O25    O     0.05200   0.26240   0.84750   0.01267  Uiso   1.00
O26    O     0.67740   0.73490   0.02570   0.01267  Uiso   1.00
O27    O     0.30840   0.91060   0.82050   0.01267  Uiso   1.00
O28    O     0.67620   0.94250   0.19450   0.01267  Uiso   1.00
O29    O     0.08570   0.44590   0.49050   0.01267  Uiso   1.00
O30    O     0.53150   0.72120   0.64910   0.01267  Uiso   1.00
O31    O     0.58280   0.76120   0.53020   0.01267  Uiso   1.00
O32    O     0.64900   0.71920   0.33440   0.01267  Uiso   1.00
O33    O     0.40200   0.89980   0.50420   0.01267  Uiso   1.00
O34    O     0.87320   0.25120   0.96220   0.01267  Uiso   1.00
O35    O     0.58020   0.90080   0.62720   0.01267  Uiso   1.00
O36    O     0.98550   0.22840   0.22500   0.01267  Uiso   1.00
O37    O     0.20650   0.43370   0.18770   0.01267  Uiso   1.00
O38    O     0.86180   0.41230   0.56820   0.01267  Uiso   1.00
O39    O     0.11490   0.21990   0.04020   0.01267  Uiso   1.00
O40    O     0.28630   0.75680   0.71620   0.01267  Uiso   1.00
O41    O     0.13820   0.41230   0.06820   0.01267  Uiso   1.00
O42    O     0.91430   0.44590   0.99050   0.01267  Uiso   1.00
O43    O     0.12680   0.25120   0.46220   0.01267  Uiso   1.00
O44    O     0.85790   0.39970   0.87700   0.01267  Uiso   1.00
O45    O     0.79420   0.26470   0.64760   0.01267  Uiso   1.00
O46    O     0.69160   0.91060   0.32050   0.01267  Uiso   1.00
O47    O     0.32380   0.94250   0.69450   0.01267  Uiso   1.00
O48    O     0.88430   0.42530   0.36970   0.01267  Uiso   1.00
O49    O     0.48310   0.82980   0.26730   0.01267  Uiso   1.00
O50    O     0.46850   0.72120   0.14910   0.01267  Uiso   1.00
