data_SISQES_clean
_audit_creation_date              2015-10-16
_audit_creation_method            'Materials Studio'
_symmetry_space_group_name_H-M    'P1'
_symmetry_Int_Tables_number       1
_symmetry_cell_setting            triclinic
loop_
_symmetry_equiv_pos_as_xyz
  x,y,z
_cell_length_a                    10.9111
_cell_length_b                    17.8204
_cell_length_c                    16.8813
_cell_angle_alpha                 89.7620
_cell_angle_beta                  90.0000
_cell_angle_gamma                 90.0000
loop_
_atom_site_label
_atom_site_type_symbol
_atom_site_fract_x
_atom_site_fract_y
_atom_site_fract_z
_atom_site_U_iso_or_equiv
_atom_site_adp_type
_atom_site_occupancy
Sm1    Sm    0.41117   0.83105   0.90837   0.01267  Uiso   1.00
Sm2    Sm    0.58883   0.83105   0.40837   0.01267  Uiso   1.00
Sm3    Sm    0.39357   0.82912   0.62427   0.01267  Uiso   1.00
Sm4    Sm    0.04165   0.33276   0.97366   0.01267  Uiso   1.00
Sm5    Sm    0.60643   0.82912   0.12427   0.01267  Uiso   1.00
Sm6    Sm    0.95835   0.33276   0.47366   0.01267  Uiso   1.00
Sm7    Sm    0.14039   0.32519   0.26074   0.01267  Uiso   1.00
Sm8    Sm    0.85961   0.32519   0.76074   0.01267  Uiso   1.00
H1     H     0.60630   0.02490   0.71450   0.01267  Uiso   1.00
H2     H     0.56990   0.78730   0.76730   0.01267  Uiso   1.00
H3     H     0.83540   0.13680   0.05460   0.01267  Uiso   1.00
H4     H     0.56890   0.87440   0.76630   0.01267  Uiso   1.00
H5     H     0.26570   0.01460   0.57430   0.01267  Uiso   1.00
H6     H     0.28390   0.51110   0.30120   0.01267  Uiso   1.00
H7     H     0.77310   0.66790   0.47710   0.01267  Uiso   1.00
H8     H     0.43010   0.78730   0.26730   0.01267  Uiso   1.00
H9     H     0.22690   0.66790   0.97710   0.01267  Uiso   1.00
H10    H     0.16460   0.13680   0.55460   0.01267  Uiso   1.00
H11    H     0.09280   0.51530   0.65470   0.01267  Uiso   1.00
H12    H     0.30890   0.15120   0.22610   0.01267  Uiso   1.00
H13    H     0.21800   0.16480   0.91240   0.01267  Uiso   1.00
H14    H     0.43110   0.87440   0.26630   0.01267  Uiso   1.00
H15    H     0.69110   0.15120   0.72610   0.01267  Uiso   1.00
H16    H     0.86720   0.54380   0.48860   0.01267  Uiso   1.00
H17    H     0.78200   0.16480   0.41240   0.01267  Uiso   1.00
H18    H     0.13280   0.54380   0.98860   0.01267  Uiso   1.00
H19    H     0.90720   0.51530   0.15470   0.01267  Uiso   1.00
H20    H     0.61950   0.63590   0.81620   0.01267  Uiso   1.00
H21    H     0.34610   0.04950   0.89070   0.01267  Uiso   1.00
H22    H     0.80770   0.63640   0.14080   0.01267  Uiso   1.00
H23    H     0.39370   0.02490   0.21450   0.01267  Uiso   1.00
H24    H     0.19230   0.63640   0.64080   0.01267  Uiso   1.00
H25    H     0.73430   0.01460   0.07430   0.01267  Uiso   1.00
H26    H     0.65390   0.04950   0.39070   0.01267  Uiso   1.00
H27    H     0.38050   0.63590   0.31620   0.01267  Uiso   1.00
H28    H     0.71610   0.51110   0.80120   0.01267  Uiso   1.00
C1     C     0.26940   0.04130   0.52690   0.01267  Uiso   1.00
C2     C     0.58850   0.71590   0.58270   0.01267  Uiso   1.00
C3     C     0.67170   0.01700   0.96530   0.01267  Uiso   1.00
C4     C     0.25500   0.03360   0.78650   0.01267  Uiso   1.00
C5     C     0.24230   0.63450   0.75510   0.01267  Uiso   1.00
C6     C     0.74500   0.03360   0.28650   0.01267  Uiso   1.00
C7     C     0.76790   0.13910   0.94270   0.01267  Uiso   1.00
C8     C     0.85530   0.45070   0.92670   0.01267  Uiso   1.00
C9     C     0.27740   0.54060   0.34630   0.01267  Uiso   1.00
C10    C     0.41150   0.71590   0.08270   0.01267  Uiso   1.00
C11    C     0.34830   0.71900   0.45740   0.01267  Uiso   1.00
C12    C     0.39700   0.94650   0.45280   0.01267  Uiso   1.00
C13    C     0.72260   0.54060   0.84630   0.01267  Uiso   1.00
C14    C     0.18840   0.56350   0.02470   0.01267  Uiso   1.00
C15    C     0.30050   0.70880   0.76950   0.01267  Uiso   1.00
C16    C     0.69600   0.95570   0.26480   0.01267  Uiso   1.00
C17    C     0.19050   0.60950   0.68810   0.01267  Uiso   1.00
C18    C     0.32830   0.01700   0.46530   0.01267  Uiso   1.00
C19    C     0.69950   0.70880   0.26950   0.01267  Uiso   1.00
C20    C     0.18510   0.45140   0.11670   0.01267  Uiso   1.00
C21    C     0.30980   0.64360   0.42760   0.01267  Uiso   1.00
C22    C     0.85510   0.51090   0.26950   0.01267  Uiso   1.00
C23    C     0.23370   0.13990   0.11480   0.01267  Uiso   1.00
C24    C     0.78380   0.13590   0.36670   0.01267  Uiso   1.00
C25    C     0.21080   0.11250   0.51620   0.01267  Uiso   1.00
C26    C     0.78630   0.52060   0.91210   0.01267  Uiso   1.00
C27    C     0.78920   0.11250   0.01620   0.01267  Uiso   1.00
C28    C     0.30400   0.95570   0.76480   0.01267  Uiso   1.00
C29    C     0.18590   0.21160   0.41370   0.01267  Uiso   1.00
C30    C     0.21370   0.52060   0.41210   0.01267  Uiso   1.00
C31    C     0.60300   0.94650   0.95280   0.01267  Uiso   1.00
C32    C     0.90230   0.43870   0.30000   0.01267  Uiso   1.00
C33    C     0.06450   0.21830   0.79200   0.01267  Uiso   1.00
C34    C     0.09770   0.43870   0.80000   0.01267  Uiso   1.00
C35    C     0.68200   0.01190   0.60780   0.01267  Uiso   1.00
C36    C     0.29800   0.12040   0.18230   0.01267  Uiso   1.00
C37    C     0.32890   0.64890   0.07400   0.01267  Uiso   1.00
C38    C     0.28720   0.06750   0.85560   0.01267  Uiso   1.00
C39    C     0.77440   0.52910   0.59050   0.01267  Uiso   1.00
C40    C     0.80950   0.60950   0.18810   0.01267  Uiso   1.00
C41    C     0.81410   0.21160   0.91370   0.01267  Uiso   1.00
C42    C     0.73060   0.04130   0.02690   0.01267  Uiso   1.00
C43    C     0.70200   0.12040   0.68230   0.01267  Uiso   1.00
C44    C     0.13360   0.53940   0.69570   0.01267  Uiso   1.00
C45    C     0.75770   0.63450   0.25510   0.01267  Uiso   1.00
C46    C     0.24550   0.63420   0.01760   0.01267  Uiso   1.00
C47    C     0.86640   0.53940   0.19570   0.01267  Uiso   1.00
C48    C     0.82590   0.21380   0.59760   0.01267  Uiso   1.00
C49    C     0.14470   0.45070   0.42670   0.01267  Uiso   1.00
C50    C     0.65170   0.71900   0.95740   0.01267  Uiso   1.00
C51    C     0.71280   0.06750   0.35560   0.01267  Uiso   1.00
C52    C     0.67110   0.64890   0.57400   0.01267  Uiso   1.00
C53    C     0.81490   0.45140   0.61670   0.01267  Uiso   1.00
C54    C     0.34600   0.04710   0.17510   0.01267  Uiso   1.00
C55    C     0.85220   0.15220   0.30290   0.01267  Uiso   1.00
C56    C     0.14780   0.15220   0.80290   0.01267  Uiso   1.00
C57    C     0.81160   0.56350   0.52470   0.01267  Uiso   1.00
C58    C     0.17410   0.21380   0.09760   0.01267  Uiso   1.00
C59    C     0.22560   0.52910   0.09050   0.01267  Uiso   1.00
C60    C     0.14490   0.51090   0.76950   0.01267  Uiso   1.00
C61    C     0.66650   0.61280   0.85520   0.01267  Uiso   1.00
C62    C     0.63630   0.93820   0.57920   0.01267  Uiso   1.00
C63    C     0.69020   0.64360   0.92760   0.01267  Uiso   1.00
C64    C     0.23210   0.13910   0.44270   0.01267  Uiso   1.00
C65    C     0.36370   0.93820   0.07920   0.01267  Uiso   1.00
C66    C     0.65400   0.04710   0.67510   0.01267  Uiso   1.00
C67    C     0.31800   0.01190   0.10780   0.01267  Uiso   1.00
C68    C     0.21620   0.13590   0.86670   0.01267  Uiso   1.00
C69    C     0.33350   0.61280   0.35520   0.01267  Uiso   1.00
C70    C     0.93550   0.21830   0.29200   0.01267  Uiso   1.00
C71    C     0.75450   0.63420   0.51760   0.01267  Uiso   1.00
C72    C     0.76630   0.13990   0.61480   0.01267  Uiso   1.00
S1     S     0.22940   0.06841   0.04930   0.01267  Uiso   1.00
S2     S     0.83950   0.08532   0.23000   0.01267  Uiso   1.00
S3     S     0.78000   0.58798   0.98460   0.01267  Uiso   1.00
S4     S     0.22710   0.56979   0.82940   0.01267  Uiso   1.00
S5     S     0.66740   0.57816   0.64310   0.01267  Uiso   1.00
S6     S     0.33260   0.57816   0.14310   0.01267  Uiso   1.00
S7     S     0.67970   0.08123   0.88920   0.01267  Uiso   1.00
S8     S     0.16050   0.08532   0.73000   0.01267  Uiso   1.00
S9     S     0.32030   0.08123   0.38920   0.01267  Uiso   1.00
S10    S     0.77060   0.06841   0.54930   0.01267  Uiso   1.00
S11    S     0.77290   0.56979   0.32940   0.01267  Uiso   1.00
S12    S     0.22000   0.58798   0.48460   0.01267  Uiso   1.00
O1     O     0.98660   0.22840   0.22710   0.01267  Uiso   1.00
O2     O     0.95000   0.26350   0.34970   0.01267  Uiso   1.00
O3     O     0.59860   0.89950   0.00710   0.01267  Uiso   1.00
O4     O     0.13090   0.41280   0.06790   0.01267  Uiso   1.00
O5     O     0.86910   0.41280   0.56790   0.01267  Uiso   1.00
O6     O     0.54860   0.93680   0.88680   0.01267  Uiso   1.00
O7     O     0.67160   0.94260   0.19490   0.01267  Uiso   1.00
O8     O     0.46720   0.72320   0.14700   0.01267  Uiso   1.00
O9     O     0.20410   0.43270   0.18640   0.01267  Uiso   1.00
O10    O     0.28970   0.75630   0.71550   0.01267  Uiso   1.00
O11    O     0.35000   0.72030   0.83560   0.01267  Uiso   1.00
O12    O     0.13030   0.25250   0.46270   0.01267  Uiso   1.00
O13    O     0.53280   0.72320   0.64700   0.01267  Uiso   1.00
O14    O     0.14760   0.40040   0.37350   0.01267  Uiso   1.00
O15    O     0.57980   0.89970   0.62770   0.01267  Uiso   1.00
O16    O     0.85240   0.40040   0.87350   0.01267  Uiso   1.00
O17    O     0.86970   0.25250   0.96270   0.01267  Uiso   1.00
O18    O     0.11060   0.42530   0.87120   0.01267  Uiso   1.00
O19    O     0.79110   0.22730   0.84430   0.01267  Uiso   1.00
O20    O     0.42020   0.89970   0.12770   0.01267  Uiso   1.00
O21    O     0.32840   0.94260   0.69490   0.01267  Uiso   1.00
O22    O     0.79580   0.26480   0.64600   0.01267  Uiso   1.00
O23    O     0.65000   0.72030   0.33560   0.01267  Uiso   1.00
O24    O     0.95910   0.39750   0.24960   0.01267  Uiso   1.00
O25    O     0.01340   0.22840   0.72710   0.01267  Uiso   1.00
O26    O     0.40450   0.76020   0.40680   0.01267  Uiso   1.00
O27    O     0.10950   0.21900   0.04080   0.01267  Uiso   1.00
O28    O     0.20420   0.26480   0.14600   0.01267  Uiso   1.00
O29    O     0.20890   0.22730   0.34430   0.01267  Uiso   1.00
O30    O     0.48390   0.83060   0.26780   0.01267  Uiso   1.00
O31    O     0.41500   0.76100   0.02900   0.01267  Uiso   1.00
O32    O     0.67430   0.73680   0.02600   0.01267  Uiso   1.00
O33    O     0.71030   0.75630   0.21550   0.01267  Uiso   1.00
O34    O     0.79590   0.43270   0.68640   0.01267  Uiso   1.00
O35    O     0.88940   0.42530   0.37120   0.01267  Uiso   1.00
O36    O     0.45140   0.93680   0.38680   0.01267  Uiso   1.00
O37    O     0.59550   0.76020   0.90680   0.01267  Uiso   1.00
O38    O     0.58500   0.76100   0.52900   0.01267  Uiso   1.00
O39    O     0.69150   0.91020   0.32120   0.01267  Uiso   1.00
O40    O     0.90960   0.44370   0.98960   0.01267  Uiso   1.00
O41    O     0.32570   0.73680   0.52600   0.01267  Uiso   1.00
O42    O     0.30850   0.91020   0.82120   0.01267  Uiso   1.00
O43    O     0.51610   0.83060   0.76780   0.01267  Uiso   1.00
O44    O     0.40140   0.89950   0.50710   0.01267  Uiso   1.00
O45    O     0.04090   0.39750   0.74960   0.01267  Uiso   1.00
O46    O     0.34090   0.92150   0.00900   0.01267  Uiso   1.00
O47    O     0.09040   0.44370   0.48960   0.01267  Uiso   1.00
O48    O     0.89050   0.21900   0.54080   0.01267  Uiso   1.00
O49    O     0.05000   0.26350   0.84970   0.01267  Uiso   1.00
O50    O     0.65910   0.92150   0.50900   0.01267  Uiso   1.00
