data_image0
_cell_length_a       13.2925
_cell_length_b       13.66
_cell_length_c       9.5631
_cell_angle_alpha    90
_cell_angle_beta     126.84
_cell_angle_gamma    90

_symmetry_space_group_name_H-M    "P 1"
_symmetry_int_tables_number       1

loop_
  _symmetry_equiv_pos_as_xyz
  'x, y, z'

loop_
  _atom_site_label
  _atom_site_occupancy
  _atom_site_fract_x
  _atom_site_fract_y
  _atom_site_fract_z
  _atom_site_thermal_displace_type
  _atom_site_B_iso_or_equiv
  _atom_site_type_symbol
  Zn1      1.0000 0.16640  0.35645  0.87010  Biso   1.000  Zn
  N1       1.0000 0.49410  0.20040  0.20890  Biso   1.000  N
  N2       1.0000 0.31250  0.26820  0.02070  Biso   1.000  N
  N3       1.0000 0.18070  0.46500  0.73820  Biso   1.000  N
  N4       1.0000 0.17630  0.56770  0.56220  Biso   1.000  N
  N5       1.0000 0.26100  0.59830  0.72960  Biso   1.000  N
  N6       1.0000 0.40230  0.13030  0.13690  Biso   1.000  N
  N7       1.0000 0.26290  0.53780  0.83480  Biso   1.000  N
  C1       1.0000 0.03300  0.42320  0.42230  Biso   1.000  C
  H1       1.0000 0.01430  0.36730  0.46390  Biso   1.000  H
  H2       1.0000 0.06520  0.40170  0.36060  Biso   1.000  H
  H3       1.0000 0.95770  0.46060  0.34510  Biso   1.000  H
  C2       1.0000 0.43560  0.28330  0.13230  Biso   1.000  C
  C3       1.0000 0.12770  0.48450  0.57180  Biso   1.000  C
  N8       1.0000 0.29570  0.17070  0.02610  Biso   1.000  N
  C4       1.0000 0.49830  0.38160  0.17200  Biso   1.000  C
  H4       1.0000 0.43590  0.43080  0.10250  Biso   1.000  H
  H5       1.0000 0.55720  0.38020  0.14510  Biso   1.000  H
  H6       1.0000 0.54180  0.39640  0.29360  Biso   1.000  H
  Zn2      1.0000 0.66640  0.85645  0.87010  Biso   1.000  Zn
  N9       1.0000 0.99410  0.70040  0.20890  Biso   1.000  N
  N10      1.0000 0.81250  0.76820  0.02070  Biso   1.000  N
  N11      1.0000 0.68070  0.96500  0.73820  Biso   1.000  N
  N12      1.0000 0.67630  0.06770  0.56220  Biso   1.000  N
  N13      1.0000 0.76100  0.09830  0.72960  Biso   1.000  N
  N14      1.0000 0.90230  0.63030  0.13690  Biso   1.000  N
  N15      1.0000 0.76290  0.03780  0.83480  Biso   1.000  N
  C5       1.0000 0.53300  0.92320  0.42230  Biso   1.000  C
  H7       1.0000 0.51430  0.86730  0.46390  Biso   1.000  H
  H8       1.0000 0.56520  0.90170  0.36060  Biso   1.000  H
  H9       1.0000 0.45770  0.96060  0.34510  Biso   1.000  H
  C6       1.0000 0.93560  0.78330  0.13230  Biso   1.000  C
  C7       1.0000 0.62770  0.98450  0.57180  Biso   1.000  C
  N16      1.0000 0.79570  0.67070  0.02610  Biso   1.000  N
  C8       1.0000 0.99830  0.88160  0.17200  Biso   1.000  C
  H10      1.0000 0.93590  0.93080  0.10250  Biso   1.000  H
  H11      1.0000 0.05720  0.88020  0.14510  Biso   1.000  H
  H12      1.0000 0.04180  0.89640  0.29360  Biso   1.000  H
  Zn3      1.0000 0.16640  0.64355  0.37010  Biso   1.000  Zn
  N17      1.0000 0.49410  0.79960  0.70890  Biso   1.000  N
  N18      1.0000 0.31250  0.73180  0.52070  Biso   1.000  N
  N19      1.0000 0.18070  0.53500  0.23820  Biso   1.000  N
  N20      1.0000 0.17630  0.43230  0.06220  Biso   1.000  N
  N21      1.0000 0.26100  0.40170  0.22960  Biso   1.000  N
  N22      1.0000 0.40230  0.86970  0.63690  Biso   1.000  N
  N23      1.0000 0.26290  0.46220  0.33480  Biso   1.000  N
  C9       1.0000 0.03300  0.57680  0.92230  Biso   1.000  C
  H13      1.0000 0.01430  0.63270  0.96390  Biso   1.000  H
  H14      1.0000 0.06520  0.59830  0.86060  Biso   1.000  H
  H15      1.0000 0.95770  0.53940  0.84510  Biso   1.000  H
  C10      1.0000 0.43560  0.71670  0.63230  Biso   1.000  C
  C11      1.0000 0.12770  0.51550  0.07180  Biso   1.000  C
  N24      1.0000 0.29570  0.82930  0.52610  Biso   1.000  N
  C12      1.0000 0.49830  0.61840  0.67200  Biso   1.000  C
  H16      1.0000 0.43590  0.56920  0.60250  Biso   1.000  H
  H17      1.0000 0.55720  0.61980  0.64510  Biso   1.000  H
  H18      1.0000 0.54180  0.60360  0.79360  Biso   1.000  H
  Zn4      1.0000 0.66640  0.14355  0.37010  Biso   1.000  Zn
  N25      1.0000 0.99410  0.29960  0.70890  Biso   1.000  N
  N26      1.0000 0.81250  0.23180  0.52070  Biso   1.000  N
  N27      1.0000 0.68070  0.03500  0.23820  Biso   1.000  N
  N28      1.0000 0.67630  0.93230  0.06220  Biso   1.000  N
  N29      1.0000 0.76100  0.90170  0.22960  Biso   1.000  N
  N30      1.0000 0.90230  0.36970  0.63690  Biso   1.000  N
  N31      1.0000 0.76290  0.96220  0.33480  Biso   1.000  N
  C13      1.0000 0.53300  0.07680  0.92230  Biso   1.000  C
  H19      1.0000 0.51430  0.13270  0.96390  Biso   1.000  H
  H20      1.0000 0.56520  0.09830  0.86060  Biso   1.000  H
  H21      1.0000 0.45770  0.03940  0.84510  Biso   1.000  H
  C14      1.0000 0.93560  0.21670  0.63230  Biso   1.000  C
  C15      1.0000 0.62770  0.01550  0.07180  Biso   1.000  C
  N32      1.0000 0.79570  0.32930  0.52610  Biso   1.000  N
  C16      1.0000 0.99830  0.11840  0.67200  Biso   1.000  C
  H22      1.0000 0.93590  0.06920  0.60250  Biso   1.000  H
  H23      1.0000 0.05720  0.11980  0.64510  Biso   1.000  H
  H24      1.0000 0.04180  0.10360  0.79360  Biso   1.000  H
