data_image0
_cell_length_a       12.989
_cell_length_b       13.8218
_cell_length_c       9.2766
_cell_angle_alpha    90
_cell_angle_beta     124.43
_cell_angle_gamma    90

_symmetry_space_group_name_H-M    "P 1"
_symmetry_int_tables_number       1

loop_
  _symmetry_equiv_pos_as_xyz
  'x, y, z'

loop_
  _atom_site_label
  _atom_site_occupancy
  _atom_site_fract_x
  _atom_site_fract_y
  _atom_site_fract_z
  _atom_site_thermal_displace_type
  _atom_site_B_iso_or_equiv
  _atom_site_type_symbol
  Zn1      1.0000 0.72046  0.84978  0.38318  Biso   1.000  Zn
  N1       1.0000 0.36740  0.73360  0.04390  Biso   1.000  N
  N2       1.0000 0.54560  0.80060  0.23240  Biso   1.000  N
  N3       1.0000 0.81540  0.96650  0.85350  Biso   1.000  N
  N4       1.0000 0.72560  0.92820  0.58020  Biso   1.000  N
  N5       1.0000 0.81160  0.90230  0.74880  Biso   1.000  N
  N6       1.0000 0.34980  0.83230  0.04690  Biso   1.000  N
  C1       1.0000 0.48510  0.71670  0.15720  Biso   1.000  C
  C2       1.0000 0.68150  0.01280  0.59150  Biso   1.000  C
  N7       1.0000 0.73500  0.03950  0.75670  Biso   1.000  N
  C3       1.0000 0.54620  0.61980  0.19930  Biso   1.000  C
  H1       1.0000 0.48490  0.57140  0.12820  Biso   1.000  H
  H2       1.0000 0.58340  0.60540  0.32050  Biso   1.000  H
  H3       1.0000 0.60960  0.62020  0.17630  Biso   1.000  H
  C4       1.0000 0.58230  0.06960  0.43340  Biso   1.000  C
  H4       1.0000 0.55940  0.03570  0.32890  Biso   1.000  H
  H5       1.0000 0.61440  0.13230  0.43410  Biso   1.000  H
  H6       1.0000 0.51030  0.07690  0.43680  Biso   1.000  H
  N8       1.0000 0.45630  0.87130  0.16120  Biso   1.000  N
  Zn2      1.0000 0.22046  0.34978  0.38318  Biso   1.000  Zn
  N9       1.0000 0.86740  0.23360  0.04390  Biso   1.000  N
  N10      1.0000 0.04560  0.30060  0.23240  Biso   1.000  N
  N11      1.0000 0.31540  0.46650  0.85350  Biso   1.000  N
  N12      1.0000 0.22560  0.42820  0.58020  Biso   1.000  N
  N13      1.0000 0.31160  0.40230  0.74880  Biso   1.000  N
  N14      1.0000 0.84980  0.33230  0.04690  Biso   1.000  N
  C5       1.0000 0.98510  0.21670  0.15720  Biso   1.000  C
  C6       1.0000 0.18150  0.51280  0.59150  Biso   1.000  C
  N15      1.0000 0.23500  0.53950  0.75670  Biso   1.000  N
  C7       1.0000 0.04620  0.11980  0.19930  Biso   1.000  C
  H7       1.0000 0.98490  0.07140  0.12820  Biso   1.000  H
  H8       1.0000 0.08340  0.10540  0.32050  Biso   1.000  H
  H9       1.0000 0.10960  0.12020  0.17630  Biso   1.000  H
  C8       1.0000 0.08230  0.56960  0.43340  Biso   1.000  C
  H10      1.0000 0.05940  0.53570  0.32890  Biso   1.000  H
  H11      1.0000 0.11440  0.63230  0.43410  Biso   1.000  H
  H12      1.0000 0.01030  0.57690  0.43680  Biso   1.000  H
  N16      1.0000 0.95630  0.37130  0.16120  Biso   1.000  N
  Zn3      1.0000 0.72046  0.15022  0.88318  Biso   1.000  Zn
  N17      1.0000 0.36740  0.26640  0.54390  Biso   1.000  N
  N18      1.0000 0.54560  0.19940  0.73240  Biso   1.000  N
  N19      1.0000 0.81540  0.03350  0.35350  Biso   1.000  N
  N20      1.0000 0.72560  0.07180  0.08020  Biso   1.000  N
  N21      1.0000 0.81160  0.09770  0.24880  Biso   1.000  N
  N22      1.0000 0.34980  0.16770  0.54690  Biso   1.000  N
  C9       1.0000 0.48510  0.28330  0.65720  Biso   1.000  C
  C10      1.0000 0.68150  0.98720  0.09150  Biso   1.000  C
  N23      1.0000 0.73500  0.96050  0.25670  Biso   1.000  N
  C11      1.0000 0.54620  0.38020  0.69930  Biso   1.000  C
  H13      1.0000 0.48490  0.42860  0.62820  Biso   1.000  H
  H14      1.0000 0.58340  0.39460  0.82050  Biso   1.000  H
  H15      1.0000 0.60960  0.37980  0.67630  Biso   1.000  H
  C12      1.0000 0.58230  0.93040  0.93340  Biso   1.000  C
  H16      1.0000 0.55940  0.96430  0.82890  Biso   1.000  H
  H17      1.0000 0.61440  0.86770  0.93410  Biso   1.000  H
  H18      1.0000 0.51030  0.92310  0.93680  Biso   1.000  H
  N24      1.0000 0.45630  0.12870  0.66120  Biso   1.000  N
  Zn4      1.0000 0.22046  0.65022  0.88318  Biso   1.000  Zn
  N25      1.0000 0.86740  0.76640  0.54390  Biso   1.000  N
  N26      1.0000 0.04560  0.69940  0.73240  Biso   1.000  N
  N27      1.0000 0.31540  0.53350  0.35350  Biso   1.000  N
  N28      1.0000 0.22560  0.57180  0.08020  Biso   1.000  N
  N29      1.0000 0.31160  0.59770  0.24880  Biso   1.000  N
  N30      1.0000 0.84980  0.66770  0.54690  Biso   1.000  N
  C13      1.0000 0.98510  0.78330  0.65720  Biso   1.000  C
  C14      1.0000 0.18150  0.48720  0.09150  Biso   1.000  C
  N31      1.0000 0.23500  0.46050  0.25670  Biso   1.000  N
  C15      1.0000 0.04620  0.88020  0.69930  Biso   1.000  C
  H19      1.0000 0.98490  0.92860  0.62820  Biso   1.000  H
  H20      1.0000 0.08340  0.89460  0.82050  Biso   1.000  H
  H21      1.0000 0.10960  0.87980  0.67630  Biso   1.000  H
  C16      1.0000 0.08230  0.43040  0.93340  Biso   1.000  C
  H22      1.0000 0.05940  0.46430  0.82890  Biso   1.000  H
  H23      1.0000 0.11440  0.36770  0.93410  Biso   1.000  H
  H24      1.0000 0.01030  0.42310  0.93680  Biso   1.000  H
  N32      1.0000 0.95630  0.62870  0.66120  Biso   1.000  N
