data_image0
_cell_length_a       17.493
_cell_length_b       15.092
_cell_length_c       23.745
_cell_angle_alpha    90
_cell_angle_beta     97.06
_cell_angle_gamma    90

_symmetry_space_group_name_H-M    "P 1"
_symmetry_int_tables_number       1

loop_
  _symmetry_equiv_pos_as_xyz
  'x, y, z'

loop_
  _atom_site_label
  _atom_site_occupancy
  _atom_site_fract_x
  _atom_site_fract_y
  _atom_site_fract_z
  _atom_site_thermal_displace_type
  _atom_site_B_iso_or_equiv
  _atom_site_type_symbol
  Zn1      1.0000 0.16625  0.86669  0.48219  Biso   1.000  Zn
  Zn2      1.0000 0.31019  0.93353  0.41030  Biso   1.000  Zn
  O1       1.0000 0.19170  0.76970  0.43700  Biso   1.000  O
  O2       1.0000 0.30050  0.80520  0.40310  Biso   1.000  O
  O3       1.0000 0.24320  0.59940  0.04255  Biso   1.000  O
  O4       1.0000 0.34480  0.57150  0.99717  Biso   1.000  O
  O5       1.0000 0.59920  0.45890  0.19850  Biso   1.000  O
  O6       1.0000 0.58620  0.46980  0.10404  Biso   1.000  O
  O7       1.0000 0.92270  0.28900  0.47430  Biso   1.000  O
  O8       1.0000 0.92980  0.14410  0.48730  Biso   1.000  O
  O9       1.0000 0.24970  0.04190  0.41880  Biso   1.000  O
  O10      1.0000 0.14480  0.97360  0.43700  Biso   1.000  O
  O11      1.0000 0.33150  0.54850  0.24357  Biso   1.000  O
  O12      1.0000 0.18170  0.35660  0.40190  Biso   1.000  O
  C1       1.0000 0.24820  0.75140  0.41220  Biso   1.000  C
  C2       1.0000 0.25410  0.65760  0.39250  Biso   1.000  C
  C3       1.0000 0.30990  0.63420  0.35810  Biso   1.000  C
  H1       1.0000 0.34410  0.67670  0.34780  Biso   1.000  H
  C4       1.0000 0.31450  0.54840  0.33940  Biso   1.000  C
  C5       1.0000 0.26340  0.48500  0.35560  Biso   1.000  C
  H2       1.0000 0.26600  0.42690  0.34280  Biso   1.000  H
  C6       1.0000 0.20910  0.50830  0.39060  Biso   1.000  C
  C7       1.0000 0.20520  0.59380  0.40930  Biso   1.000  C
  H3       1.0000 0.16930  0.60890  0.43350  Biso   1.000  H
  C8       1.0000 0.36940  0.52530  0.29680  Biso   1.000  C
  H4       1.0000 0.41710  0.55830  0.30480  Biso   1.000  H
  H5       1.0000 0.38110  0.46250  0.29820  Biso   1.000  H
  C9       1.0000 0.31340  0.57800  0.04050  Biso   1.000  C
  C10      1.0000 0.56200  0.47520  0.15150  Biso   1.000  C
  C11      1.0000 0.36080  0.55630  0.09530  Biso   1.000  C
  C12      1.0000 0.43670  0.52700  0.09830  Biso   1.000  C
  H6       1.0000 0.45940  0.52220  0.06500  Biso   1.000  H
  C13      1.0000 0.47820  0.50520  0.14820  Biso   1.000  C
  C14      1.0000 0.44560  0.51160  0.19960  Biso   1.000  C
  H7       1.0000 0.47430  0.49700  0.23400  Biso   1.000  H
  C15      1.0000 0.37100  0.53970  0.19790  Biso   1.000  C
  C16      1.0000 0.32620  0.56140  0.14600  Biso   1.000  C
  H8       1.0000 0.27510  0.57870  0.14530  Biso   1.000  H
  C17      1.0000 0.15080  0.44120  0.40840  Biso   1.000  C
  H9       1.0000 0.14270  0.45090  0.44760  Biso   1.000  H
  H10      1.0000 0.10180  0.44730  0.38470  Biso   1.000  H
  C18      1.0000 0.18340  0.04120  0.42940  Biso   1.000  C
  C19      1.0000 0.95480  0.21980  0.47220  Biso   1.000  C
  C20      1.0000 0.14050  0.12880  0.42990  Biso   1.000  C
  C21      1.0000 0.06940  0.13320  0.44860  Biso   1.000  C
  H11      1.0000 0.04480  0.08160  0.45800  Biso   1.000  H
  C22      1.0000 0.03470  0.21340  0.45330  Biso   1.000  C
  C23      1.0000 0.06970  0.29070  0.43710  Biso   1.000  C
  H12      1.0000 0.04500  0.34500  0.43900  Biso   1.000  H
  C24      1.0000 0.14100  0.28650  0.41830  Biso   1.000  C
  C25      1.0000 0.17530  0.20550  0.41370  Biso   1.000  C
  H13      1.0000 0.22250  0.20200  0.39960  Biso   1.000  H
  Zn3      1.0000 0.83375  0.36669  0.01781  Biso   1.000  Zn
  Zn4      1.0000 0.68981  0.43353  0.08970  Biso   1.000  Zn
  O13      1.0000 0.80830  0.26970  0.06300  Biso   1.000  O
  O14      1.0000 0.69950  0.30520  0.09690  Biso   1.000  O
  O15      1.0000 0.75680  0.09940  0.45745  Biso   1.000  O
  O16      1.0000 0.65520  0.07150  0.50283  Biso   1.000  O
  O17      1.0000 0.40080  0.95890  0.30150  Biso   1.000  O
  O18      1.0000 0.41380  0.96980  0.39596  Biso   1.000  O
  O19      1.0000 0.07730  0.78900  0.02570  Biso   1.000  O
  O20      1.0000 0.07020  0.64410  0.01270  Biso   1.000  O
  O21      1.0000 0.75030  0.54190  0.08120  Biso   1.000  O
  O22      1.0000 0.85520  0.47360  0.06300  Biso   1.000  O
  O23      1.0000 0.66850  0.04850  0.25643  Biso   1.000  O
  O24      1.0000 0.81830  0.85660  0.09810  Biso   1.000  O
  C26      1.0000 0.75180  0.25140  0.08780  Biso   1.000  C
  C27      1.0000 0.74590  0.15760  0.10750  Biso   1.000  C
  C28      1.0000 0.69010  0.13420  0.14190  Biso   1.000  C
  H14      1.0000 0.65590  0.17670  0.15220  Biso   1.000  H
  C29      1.0000 0.68550  0.04840  0.16060  Biso   1.000  C
  C30      1.0000 0.73660  0.98500  0.14440  Biso   1.000  C
  H15      1.0000 0.73400  0.92690  0.15720  Biso   1.000  H
  C31      1.0000 0.79090  0.00830  0.10940  Biso   1.000  C
  C32      1.0000 0.79480  0.09380  0.09070  Biso   1.000  C
  H16      1.0000 0.83070  0.10890  0.06650  Biso   1.000  H
  C33      1.0000 0.63060  0.02530  0.20320  Biso   1.000  C
  H17      1.0000 0.58290  0.05830  0.19520  Biso   1.000  H
  H18      1.0000 0.61890  0.96250  0.20180  Biso   1.000  H
  C34      1.0000 0.68660  0.07800  0.45950  Biso   1.000  C
  C35      1.0000 0.43800  0.97520  0.34850  Biso   1.000  C
  C36      1.0000 0.63920  0.05630  0.40470  Biso   1.000  C
  C37      1.0000 0.56330  0.02700  0.40170  Biso   1.000  C
  H19      1.0000 0.54060  0.02220  0.43500  Biso   1.000  H
  C38      1.0000 0.52180  0.00520  0.35180  Biso   1.000  C
  C39      1.0000 0.55440  0.01160  0.30040  Biso   1.000  C
  H20      1.0000 0.52570  0.99700  0.26600  Biso   1.000  H
  C40      1.0000 0.62900  0.03970  0.30210  Biso   1.000  C
  C41      1.0000 0.67380  0.06140  0.35400  Biso   1.000  C
  H21      1.0000 0.72490  0.07870  0.35470  Biso   1.000  H
  C42      1.0000 0.84920  0.94120  0.09160  Biso   1.000  C
  H22      1.0000 0.85730  0.95090  0.05240  Biso   1.000  H
  H23      1.0000 0.89820  0.94730  0.11530  Biso   1.000  H
  C43      1.0000 0.81660  0.54120  0.07060  Biso   1.000  C
  C44      1.0000 0.04520  0.71980  0.02780  Biso   1.000  C
  C45      1.0000 0.85950  0.62880  0.07010  Biso   1.000  C
  C46      1.0000 0.93060  0.63320  0.05140  Biso   1.000  C
  H24      1.0000 0.95520  0.58160  0.04200  Biso   1.000  H
  C47      1.0000 0.96530  0.71340  0.04670  Biso   1.000  C
  C48      1.0000 0.93030  0.79070  0.06290  Biso   1.000  C
  H25      1.0000 0.95500  0.84500  0.06100  Biso   1.000  H
  C49      1.0000 0.85900  0.78650  0.08170  Biso   1.000  C
  C50      1.0000 0.82470  0.70550  0.08630  Biso   1.000  C
  H26      1.0000 0.77750  0.70200  0.10040  Biso   1.000  H
  Zn5      1.0000 0.83375  0.13331  0.51781  Biso   1.000  Zn
  Zn6      1.0000 0.68981  0.06647  0.58970  Biso   1.000  Zn
  O25      1.0000 0.80830  0.23030  0.56300  Biso   1.000  O
  O26      1.0000 0.69950  0.19480  0.59690  Biso   1.000  O
  O27      1.0000 0.75680  0.40060  0.95745  Biso   1.000  O
  O28      1.0000 0.65520  0.42850  0.00283  Biso   1.000  O
  O29      1.0000 0.40080  0.54110  0.80150  Biso   1.000  O
  O30      1.0000 0.41380  0.53020  0.89596  Biso   1.000  O
  O31      1.0000 0.07730  0.71100  0.52570  Biso   1.000  O
  O32      1.0000 0.07020  0.85590  0.51270  Biso   1.000  O
  O33      1.0000 0.75030  0.95810  0.58120  Biso   1.000  O
  O34      1.0000 0.85520  0.02640  0.56300  Biso   1.000  O
  O35      1.0000 0.66850  0.45150  0.75643  Biso   1.000  O
  O36      1.0000 0.81830  0.64340  0.59810  Biso   1.000  O
  C51      1.0000 0.75180  0.24860  0.58780  Biso   1.000  C
  C52      1.0000 0.74590  0.34240  0.60750  Biso   1.000  C
  C53      1.0000 0.69010  0.36580  0.64190  Biso   1.000  C
  H27      1.0000 0.65590  0.32330  0.65220  Biso   1.000  H
  C54      1.0000 0.68550  0.45160  0.66060  Biso   1.000  C
  C55      1.0000 0.73660  0.51500  0.64440  Biso   1.000  C
  H28      1.0000 0.73400  0.57310  0.65720  Biso   1.000  H
  C56      1.0000 0.79090  0.49170  0.60940  Biso   1.000  C
  C57      1.0000 0.79480  0.40620  0.59070  Biso   1.000  C
  H29      1.0000 0.83070  0.39110  0.56650  Biso   1.000  H
  C58      1.0000 0.63060  0.47470  0.70320  Biso   1.000  C
  H30      1.0000 0.58290  0.44170  0.69520  Biso   1.000  H
  H31      1.0000 0.61890  0.53750  0.70180  Biso   1.000  H
  C59      1.0000 0.68660  0.42200  0.95950  Biso   1.000  C
  C60      1.0000 0.43800  0.52480  0.84850  Biso   1.000  C
  C61      1.0000 0.63920  0.44370  0.90470  Biso   1.000  C
  C62      1.0000 0.56330  0.47300  0.90170  Biso   1.000  C
  H32      1.0000 0.54060  0.47780  0.93500  Biso   1.000  H
  C63      1.0000 0.52180  0.49480  0.85180  Biso   1.000  C
  C64      1.0000 0.55440  0.48840  0.80040  Biso   1.000  C
  H33      1.0000 0.52570  0.50300  0.76600  Biso   1.000  H
  C65      1.0000 0.62900  0.46030  0.80210  Biso   1.000  C
  C66      1.0000 0.67380  0.43860  0.85400  Biso   1.000  C
  H34      1.0000 0.72490  0.42130  0.85470  Biso   1.000  H
  C67      1.0000 0.84920  0.55880  0.59160  Biso   1.000  C
  H35      1.0000 0.85730  0.54910  0.55240  Biso   1.000  H
  H36      1.0000 0.89820  0.55270  0.61530  Biso   1.000  H
  C68      1.0000 0.81660  0.95880  0.57060  Biso   1.000  C
  C69      1.0000 0.04520  0.78020  0.52780  Biso   1.000  C
  C70      1.0000 0.85950  0.87120  0.57010  Biso   1.000  C
  C71      1.0000 0.93060  0.86680  0.55140  Biso   1.000  C
  H37      1.0000 0.95520  0.91840  0.54200  Biso   1.000  H
  C72      1.0000 0.96530  0.78660  0.54670  Biso   1.000  C
  C73      1.0000 0.93030  0.70930  0.56290  Biso   1.000  C
  H38      1.0000 0.95500  0.65500  0.56100  Biso   1.000  H
  C74      1.0000 0.85900  0.71350  0.58170  Biso   1.000  C
  C75      1.0000 0.82470  0.79450  0.58630  Biso   1.000  C
  H39      1.0000 0.77750  0.79800  0.60040  Biso   1.000  H
  Zn7      1.0000 0.16625  0.63331  0.98219  Biso   1.000  Zn
  Zn8      1.0000 0.31019  0.56647  0.91030  Biso   1.000  Zn
  O37      1.0000 0.19170  0.73030  0.93700  Biso   1.000  O
  O38      1.0000 0.30050  0.69480  0.90310  Biso   1.000  O
  O39      1.0000 0.24320  0.90060  0.54255  Biso   1.000  O
  O40      1.0000 0.34480  0.92850  0.49717  Biso   1.000  O
  O41      1.0000 0.59920  0.04110  0.69850  Biso   1.000  O
  O42      1.0000 0.58620  0.03020  0.60404  Biso   1.000  O
  O43      1.0000 0.92270  0.21100  0.97430  Biso   1.000  O
  O44      1.0000 0.92980  0.35590  0.98730  Biso   1.000  O
  O45      1.0000 0.24970  0.45810  0.91880  Biso   1.000  O
  O46      1.0000 0.14480  0.52640  0.93700  Biso   1.000  O
  O47      1.0000 0.33150  0.95150  0.74357  Biso   1.000  O
  O48      1.0000 0.18170  0.14340  0.90190  Biso   1.000  O
  C76      1.0000 0.24820  0.74860  0.91220  Biso   1.000  C
  C77      1.0000 0.25410  0.84240  0.89250  Biso   1.000  C
  C78      1.0000 0.30990  0.86580  0.85810  Biso   1.000  C
  H40      1.0000 0.34410  0.82330  0.84780  Biso   1.000  H
  C79      1.0000 0.31450  0.95160  0.83940  Biso   1.000  C
  C80      1.0000 0.26340  0.01500  0.85560  Biso   1.000  C
  H41      1.0000 0.26600  0.07310  0.84280  Biso   1.000  H
  C81      1.0000 0.20910  0.99170  0.89060  Biso   1.000  C
  C82      1.0000 0.20520  0.90620  0.90930  Biso   1.000  C
  H42      1.0000 0.16930  0.89110  0.93350  Biso   1.000  H
  C83      1.0000 0.36940  0.97470  0.79680  Biso   1.000  C
  H43      1.0000 0.41710  0.94170  0.80480  Biso   1.000  H
  H44      1.0000 0.38110  0.03750  0.79820  Biso   1.000  H
  C84      1.0000 0.31340  0.92200  0.54050  Biso   1.000  C
  C85      1.0000 0.56200  0.02480  0.65150  Biso   1.000  C
  C86      1.0000 0.36080  0.94370  0.59530  Biso   1.000  C
  C87      1.0000 0.43670  0.97300  0.59830  Biso   1.000  C
  H45      1.0000 0.45940  0.97780  0.56500  Biso   1.000  H
  C88      1.0000 0.47820  0.99480  0.64820  Biso   1.000  C
  C89      1.0000 0.44560  0.98840  0.69960  Biso   1.000  C
  H46      1.0000 0.47430  0.00300  0.73400  Biso   1.000  H
  C90      1.0000 0.37100  0.96030  0.69790  Biso   1.000  C
  C91      1.0000 0.32620  0.93860  0.64600  Biso   1.000  C
  H47      1.0000 0.27510  0.92130  0.64530  Biso   1.000  H
  C92      1.0000 0.15080  0.05880  0.90840  Biso   1.000  C
  H48      1.0000 0.14270  0.04910  0.94760  Biso   1.000  H
  H49      1.0000 0.10180  0.05270  0.88470  Biso   1.000  H
  C93      1.0000 0.18340  0.45880  0.92940  Biso   1.000  C
  C94      1.0000 0.95480  0.28020  0.97220  Biso   1.000  C
  C95      1.0000 0.14050  0.37120  0.92990  Biso   1.000  C
  C96      1.0000 0.06940  0.36680  0.94860  Biso   1.000  C
  H50      1.0000 0.04480  0.41840  0.95800  Biso   1.000  H
  C97      1.0000 0.03470  0.28660  0.95330  Biso   1.000  C
  C98      1.0000 0.06970  0.20930  0.93710  Biso   1.000  C
  H51      1.0000 0.04500  0.15500  0.93900  Biso   1.000  H
  C99      1.0000 0.14100  0.21350  0.91830  Biso   1.000  C
  C100     1.0000 0.17530  0.29450  0.91370  Biso   1.000  C
  H52      1.0000 0.22250  0.29800  0.89960  Biso   1.000  H
