data_image0
_cell_length_a       12.048
_cell_length_b       12.28
_cell_length_c       19.092
_cell_angle_alpha    91.92
_cell_angle_beta     98.1
_cell_angle_gamma    117.88

_symmetry_space_group_name_H-M    "P 1"
_symmetry_int_tables_number       1

loop_
  _symmetry_equiv_pos_as_xyz
  'x, y, z'

loop_
  _atom_site_label
  _atom_site_occupancy
  _atom_site_fract_x
  _atom_site_fract_y
  _atom_site_fract_z
  _atom_site_thermal_displace_type
  _atom_site_B_iso_or_equiv
  _atom_site_type_symbol
  Cd1      1.0000 0.76625  0.50709  0.27921  Biso   1.000  Cd
  Cd2      1.0000 0.57876  0.67086  0.20026  Biso   1.000  Cd
  Cd3      1.0000 0.42096  0.32541  0.29919  Biso   1.000  Cd
  O1       1.0000 0.43080  0.31480  0.18133  Biso   1.000  O
  O2       1.0000 0.61580  0.51390  0.34142  Biso   1.000  O
  O3       1.0000 0.61030  0.49370  0.18108  Biso   1.000  O
  O4       1.0000 0.52280  0.21240  0.31614  Biso   1.000  O
  O5       1.0000 0.60700  0.68820  0.32093  Biso   1.000  O
  O6       1.0000 0.31920  0.43740  0.27918  Biso   1.000  O
  O7       1.0000 0.36520  0.56470  0.19356  Biso   1.000  O
  O8       1.0000 0.78600  0.79170  0.19730  Biso   1.000  O
  N1       1.0000 0.45900  0.33030  0.92387  Biso   1.000  N
  O9       1.0000 0.67000  0.29970  0.24790  Biso   1.000  O
  N2       1.0000 0.23010  0.13560  0.27249  Biso   1.000  N
  N3       1.0000 0.60980  0.67410  0.58267  Biso   1.000  N
  N4       1.0000 0.56990  0.85680  0.21874  Biso   1.000  N
  N5       1.0000 0.93770  0.49620  0.23730  Biso   1.000  N
  O10      1.0000 0.87420  0.71040  0.27574  Biso   1.000  O
  C1       1.0000 0.61320  0.61220  0.36056  Biso   1.000  C
  C2       1.0000 0.61410  0.63770  0.43889  Biso   1.000  C
  C3       1.0000 0.49650  0.36730  0.07200  Biso   1.000  C
  C4       1.0000 0.51240  0.39270  0.15116  Biso   1.000  C
  C5       1.0000 0.29430  0.49980  0.23509  Biso   1.000  C
  C6       1.0000 0.66810  0.58870  0.48934  Biso   1.000  C
  H1       1.0000 0.70460  0.54130  0.47540  Biso   1.000  H
  C7       1.0000 0.16970  0.49820  0.23310  Biso   1.000  C
  C8       1.0000 0.55830  0.72090  0.53390  Biso   1.000  C
  H2       1.0000 0.51960  0.76540  0.54900  Biso   1.000  H
  C9       1.0000 0.56000  0.70630  0.46236  Biso   1.000  C
  H3       1.0000 0.52510  0.74210  0.43020  Biso   1.000  H
  C10      1.0000 0.59250  0.21020  0.27500  Biso   1.000  C
  C11      1.0000 0.59720  0.42380  0.03596  Biso   1.000  C
  H4       1.0000 0.67910  0.47590  0.06090  Biso   1.000  H
  C12      1.0000 0.36150  0.27380  0.95910  Biso   1.000  C
  H5       1.0000 0.28010  0.22320  0.93320  Biso   1.000  H
  C13      1.0000 0.87640  0.79460  0.23920  Biso   1.000  C
  C14      1.0000 0.37830  0.28850  0.03250  Biso   1.000  C
  H6       1.0000 0.30950  0.24500  0.05530  Biso   1.000  H
  C15      1.0000 0.00220  0.91340  0.24980  Biso   1.000  C
  C16      1.0000 0.66670  0.61170  0.56033  Biso   1.000  C
  H7       1.0000 0.70690  0.58260  0.59400  Biso   1.000  H
  C17      1.0000 0.10380  0.92890  0.30040  Biso   1.000  C
  H8       1.0000 0.09720  0.86550  0.32780  Biso   1.000  H
  C18      1.0000 0.57530  0.40240  0.96266  Biso   1.000  C
  H9       1.0000 0.64420  0.43950  0.93910  Biso   1.000  H
  C19      1.0000 0.58390  0.08550  0.25460  Biso   1.000  C
  C20      1.0000 0.13150  0.11800  0.22300  Biso   1.000  C
  H10      1.0000 0.14030  0.18250  0.19620  Biso   1.000  H
  C21      1.0000 0.21630  0.04130  0.30980  Biso   1.000  C
  H11      1.0000 0.28500  0.05110  0.34350  Biso   1.000  H
  C22      1.0000 0.50800  0.98230  0.28560  Biso   1.000  C
  H12      1.0000 0.46070  0.98790  0.31870  Biso   1.000  H
  C23      1.0000 0.65040  0.07180  0.20440  Biso   1.000  C
  H13      1.0000 0.69990  0.13890  0.18140  Biso   1.000  H
  C24      1.0000 0.50380  0.87040  0.26650  Biso   1.000  C
  H14      1.0000 0.45290  0.80130  0.28770  Biso   1.000  H
  C25      1.0000 0.01730  0.00950  0.20970  Biso   1.000  C
  H15      1.0000 0.95140  0.00110  0.17420  Biso   1.000  H
  C26      1.0000 0.64210  0.95740  0.18890  Biso   1.000  C
  H16      1.0000 0.68900  0.94980  0.15610  Biso   1.000  H
  C27      1.0000 0.14560  0.59040  0.20800  Biso   1.000  C
  H17      1.0000 0.20700  0.65510  0.18860  Biso   1.000  H
  C28      1.0000 0.03010  0.58670  0.21170  Biso   1.000  C
  H18      1.0000 0.01690  0.65100  0.19550  Biso   1.000  H
  C29      1.0000 0.07210  0.40250  0.26080  Biso   1.000  C
  H19      1.0000 0.08360  0.33870  0.27930  Biso   1.000  H
  C30      1.0000 0.95910  0.40490  0.26010  Biso   1.000  C
  H20      1.0000 0.89350  0.33900  0.27640  Biso   1.000  H
  C31      1.0000 0.97590  0.56800  0.41300  Biso   1.000  C
  C32      1.0000 0.03400  0.54830  0.48260  Biso   1.000  C
  O11      1.0000 0.03270  0.65250  0.38460  Biso   1.000  O
  C33      1.0000 0.80070  0.39820  0.42080  Biso   1.000  C
  C34      1.0000 0.85660  0.38000  0.48710  Biso   1.000  C
  N6       1.0000 0.85730  0.49060  0.38970  Biso   1.000  N
  O12      1.0000 0.14270  0.50940  0.61030  Biso   1.000  O
  Cd4      1.0000 0.23375  0.49291  0.72079  Biso   1.000  Cd
  Cd5      1.0000 0.42124  0.32914  0.79975  Biso   1.000  Cd
  Cd6      1.0000 0.57904  0.67459  0.70081  Biso   1.000  Cd
  O13      1.0000 0.56920  0.68520  0.81867  Biso   1.000  O
  O14      1.0000 0.38420  0.48610  0.65858  Biso   1.000  O
  O15      1.0000 0.38970  0.50630  0.81892  Biso   1.000  O
  O16      1.0000 0.47720  0.78760  0.68386  Biso   1.000  O
  O17      1.0000 0.39300  0.31180  0.67907  Biso   1.000  O
  O18      1.0000 0.68080  0.56260  0.72082  Biso   1.000  O
  O19      1.0000 0.63480  0.43530  0.80644  Biso   1.000  O
  O20      1.0000 0.21400  0.20830  0.80270  Biso   1.000  O
  N7       1.0000 0.54100  0.66970  0.07613  Biso   1.000  N
  O21      1.0000 0.33000  0.70030  0.75210  Biso   1.000  O
  N8       1.0000 0.76990  0.86440  0.72751  Biso   1.000  N
  N9       1.0000 0.39020  0.32590  0.41733  Biso   1.000  N
  N10      1.0000 0.43010  0.14320  0.78126  Biso   1.000  N
  N11      1.0000 0.06230  0.50380  0.76270  Biso   1.000  N
  O22      1.0000 0.12580  0.28960  0.72426  Biso   1.000  O
  C35      1.0000 0.38680  0.38780  0.63944  Biso   1.000  C
  C36      1.0000 0.38590  0.36230  0.56111  Biso   1.000  C
  C37      1.0000 0.50350  0.63270  0.92800  Biso   1.000  C
  C38      1.0000 0.48760  0.60730  0.84884  Biso   1.000  C
  C39      1.0000 0.70570  0.50020  0.76491  Biso   1.000  C
  C40      1.0000 0.33190  0.41130  0.51066  Biso   1.000  C
  H21      1.0000 0.29540  0.45870  0.52460  Biso   1.000  H
  C41      1.0000 0.83030  0.50180  0.76690  Biso   1.000  C
  C42      1.0000 0.44170  0.27910  0.46610  Biso   1.000  C
  H22      1.0000 0.48040  0.23460  0.45100  Biso   1.000  H
  C43      1.0000 0.44000  0.29370  0.53764  Biso   1.000  C
  H23      1.0000 0.47490  0.25790  0.56980  Biso   1.000  H
  C44      1.0000 0.40750  0.78980  0.72500  Biso   1.000  C
  C45      1.0000 0.40280  0.57620  0.96404  Biso   1.000  C
  H24      1.0000 0.32090  0.52410  0.93910  Biso   1.000  H
  C46      1.0000 0.63850  0.72620  0.04090  Biso   1.000  C
  H25      1.0000 0.71990  0.77680  0.06680  Biso   1.000  H
  C47      1.0000 0.12360  0.20540  0.76080  Biso   1.000  C
  C48      1.0000 0.62170  0.71150  0.96750  Biso   1.000  C
  H26      1.0000 0.69050  0.75500  0.94470  Biso   1.000  H
  C49      1.0000 0.99780  0.08660  0.75020  Biso   1.000  C
  C50      1.0000 0.33330  0.38830  0.43967  Biso   1.000  C
  H27      1.0000 0.29310  0.41740  0.40600  Biso   1.000  H
  C51      1.0000 0.89620  0.07110  0.69960  Biso   1.000  C
  H28      1.0000 0.90280  0.13450  0.67220  Biso   1.000  H
  C52      1.0000 0.42470  0.59760  0.03734  Biso   1.000  C
  H29      1.0000 0.35580  0.56050  0.06090  Biso   1.000  H
  C53      1.0000 0.41610  0.91450  0.74540  Biso   1.000  C
  C54      1.0000 0.86850  0.88200  0.77700  Biso   1.000  C
  H30      1.0000 0.85970  0.81750  0.80380  Biso   1.000  H
  C55      1.0000 0.78370  0.95870  0.69020  Biso   1.000  C
  H31      1.0000 0.71500  0.94890  0.65650  Biso   1.000  H
  C56      1.0000 0.49200  0.01770  0.71440  Biso   1.000  C
  H32      1.0000 0.53930  0.01210  0.68130  Biso   1.000  H
  C57      1.0000 0.34960  0.92820  0.79560  Biso   1.000  C
  H33      1.0000 0.30010  0.86110  0.81860  Biso   1.000  H
  C58      1.0000 0.49620  0.12960  0.73350  Biso   1.000  C
  H34      1.0000 0.54710  0.19870  0.71230  Biso   1.000  H
  C59      1.0000 0.98270  0.99050  0.79030  Biso   1.000  C
  H35      1.0000 0.04860  0.99890  0.82580  Biso   1.000  H
  C60      1.0000 0.35790  0.04260  0.81110  Biso   1.000  C
  H36      1.0000 0.31100  0.05020  0.84390  Biso   1.000  H
  C61      1.0000 0.85440  0.40960  0.79200  Biso   1.000  C
  H37      1.0000 0.79300  0.34490  0.81140  Biso   1.000  H
  C62      1.0000 0.96990  0.41330  0.78830  Biso   1.000  C
  H38      1.0000 0.98310  0.34900  0.80450  Biso   1.000  H
  C63      1.0000 0.92790  0.59750  0.73920  Biso   1.000  C
  H39      1.0000 0.91640  0.66130  0.72070  Biso   1.000  H
  C64      1.0000 0.04090  0.59510  0.73990  Biso   1.000  C
  H40      1.0000 0.10650  0.66100  0.72360  Biso   1.000  H
  C65      1.0000 0.02410  0.43200  0.58700  Biso   1.000  C
  C66      1.0000 0.96600  0.45170  0.51740  Biso   1.000  C
  O23      1.0000 0.96730  0.34750  0.61540  Biso   1.000  O
  C67      1.0000 0.19930  0.60180  0.57920  Biso   1.000  C
  C68      1.0000 0.14340  0.62000  0.51290  Biso   1.000  C
