data_SIVKAK_clean
_audit_creation_date              2014-07-02
_audit_creation_method            'Materials Studio'
_symmetry_space_group_name_H-M    'P1'
_symmetry_Int_Tables_number       1
_symmetry_cell_setting            triclinic
loop_
_symmetry_equiv_pos_as_xyz
  x,y,z
_cell_length_a                    7.5831
_cell_length_b                    13.7989
_cell_length_c                    31.0864
_cell_angle_alpha                 90.0000
_cell_angle_beta                  90.0000
_cell_angle_gamma                 90.0000
loop_
_atom_site_label
_atom_site_type_symbol
_atom_site_fract_x
_atom_site_fract_y
_atom_site_fract_z
_atom_site_U_iso_or_equiv
_atom_site_adp_type
_atom_site_occupancy
Mn1    Mn    0.94600   0.08702   0.25000   0.01267  Uiso   1.00
Mn2    Mn    0.55400   0.58702   0.75000   0.01267  Uiso   1.00
Mn3    Mn    0.05400   0.91298   0.75000   0.01267  Uiso   1.00
Mn4    Mn    0.44600   0.41298   0.25000   0.01267  Uiso   1.00
Mn5    Mn    0.50000   0.50000   0.50000   0.01267  Uiso   1.00
Mn6    Mn    0.00000   0.00000   0.50000   0.01267  Uiso   1.00
Mn7    Mn    0.50000   0.50000   0.00000   0.01267  Uiso   1.00
Mn8    Mn    0.00000   0.00000   0.00000   0.01267  Uiso   1.00
Ag1    Ag    0.49585   0.05619   0.38129   0.01267  Uiso   1.00
Ag2    Ag    0.23704   0.24206   0.38974   0.01267  Uiso   1.00
Ag3    Ag    0.00415   0.55619   0.61871   0.01267  Uiso   1.00
Ag4    Ag    0.26296   0.74206   0.61026   0.01267  Uiso   1.00
Ag5    Ag    0.50415   0.94381   0.88129   0.01267  Uiso   1.00
Ag6    Ag    0.76296   0.75794   0.88974   0.01267  Uiso   1.00
Ag7    Ag    0.99585   0.44381   0.11871   0.01267  Uiso   1.00
Ag8    Ag    0.73704   0.25794   0.11026   0.01267  Uiso   1.00
Ag9    Ag    0.50415   0.94381   0.61871   0.01267  Uiso   1.00
Ag10   Ag    0.76296   0.75794   0.61026   0.01267  Uiso   1.00
Ag11   Ag    0.99585   0.44381   0.38129   0.01267  Uiso   1.00
Ag12   Ag    0.73704   0.25794   0.38974   0.01267  Uiso   1.00
Ag13   Ag    0.49585   0.05619   0.11871   0.01267  Uiso   1.00
Ag14   Ag    0.23704   0.24206   0.11026   0.01267  Uiso   1.00
Ag15   Ag    0.00415   0.55619   0.88129   0.01267  Uiso   1.00
Ag16   Ag    0.26296   0.74206   0.88974   0.01267  Uiso   1.00
H1     H     0.64370   0.37130   0.65410   0.01267  Uiso   1.00
H2     H     0.69630   0.16760   0.56300   0.01267  Uiso   1.00
H3     H     0.57430   0.47990   0.60100   0.01267  Uiso   1.00
H4     H     0.63680   0.28360   0.51240   0.01267  Uiso   1.00
H5     H     0.85630   0.87130   0.34590   0.01267  Uiso   1.00
H6     H     0.80370   0.66760   0.43700   0.01267  Uiso   1.00
H7     H     0.92570   0.97990   0.39900   0.01267  Uiso   1.00
H8     H     0.86320   0.78360   0.48760   0.01267  Uiso   1.00
H9     H     0.35630   0.62870   0.15410   0.01267  Uiso   1.00
H10    H     0.30370   0.83240   0.06300   0.01267  Uiso   1.00
H11    H     0.42570   0.52010   0.10100   0.01267  Uiso   1.00
H12    H     0.36320   0.71640   0.01240   0.01267  Uiso   1.00
H13    H     0.14370   0.12870   0.84590   0.01267  Uiso   1.00
H14    H     0.19630   0.33240   0.93700   0.01267  Uiso   1.00
H15    H     0.07430   0.02010   0.89900   0.01267  Uiso   1.00
H16    H     0.13680   0.21640   0.98760   0.01267  Uiso   1.00
H17    H     0.35630   0.62870   0.34590   0.01267  Uiso   1.00
H18    H     0.30370   0.83240   0.43700   0.01267  Uiso   1.00
H19    H     0.42570   0.52010   0.39900   0.01267  Uiso   1.00
H20    H     0.36320   0.71640   0.48760   0.01267  Uiso   1.00
H21    H     0.14370   0.12870   0.65410   0.01267  Uiso   1.00
H22    H     0.19630   0.33240   0.56300   0.01267  Uiso   1.00
H23    H     0.07430   0.02010   0.60100   0.01267  Uiso   1.00
H24    H     0.13680   0.21640   0.51240   0.01267  Uiso   1.00
H25    H     0.64370   0.37130   0.84590   0.01267  Uiso   1.00
H26    H     0.69630   0.16760   0.93700   0.01267  Uiso   1.00
H27    H     0.57430   0.47990   0.89900   0.01267  Uiso   1.00
H28    H     0.63680   0.28360   0.98760   0.01267  Uiso   1.00
H29    H     0.85630   0.87130   0.15410   0.01267  Uiso   1.00
H30    H     0.80370   0.66760   0.06300   0.01267  Uiso   1.00
H31    H     0.92570   0.97990   0.10100   0.01267  Uiso   1.00
H32    H     0.86320   0.78360   0.01240   0.01267  Uiso   1.00
C1     C     0.65720   0.05650   0.32827   0.01267  Uiso   1.00
C2     C     0.33620   0.03923   0.43411   0.01267  Uiso   1.00
C3     C     0.63950   0.35180   0.62551   0.01267  Uiso   1.00
C4     C     0.70830   0.18550   0.64724   0.01267  Uiso   1.00
C5     C     0.67260   0.25670   0.61396   0.01267  Uiso   1.00
C6     C     0.67220   0.23100   0.57135   0.01267  Uiso   1.00
C7     C     0.60010   0.41630   0.59338   0.01267  Uiso   1.00
C8     C     0.16280   0.16644   0.33561   0.01267  Uiso   1.00
C9     C     0.31940   0.32740   0.44014   0.01267  Uiso   1.00
C10    C     0.63520   0.30075   0.54134   0.01267  Uiso   1.00
C11    C     0.84280   0.55650   0.67173   0.01267  Uiso   1.00
C12    C     0.16380   0.53923   0.56589   0.01267  Uiso   1.00
C13    C     0.86050   0.85180   0.37449   0.01267  Uiso   1.00
C14    C     0.79170   0.68550   0.35276   0.01267  Uiso   1.00
C15    C     0.82740   0.75670   0.38604   0.01267  Uiso   1.00
C16    C     0.82780   0.73100   0.42865   0.01267  Uiso   1.00
C17    C     0.89990   0.91630   0.40662   0.01267  Uiso   1.00
C18    C     0.33720   0.66644   0.66439   0.01267  Uiso   1.00
C19    C     0.18060   0.82740   0.55986   0.01267  Uiso   1.00
C20    C     0.86480   0.80075   0.45866   0.01267  Uiso   1.00
C21    C     0.34280   0.94350   0.82827   0.01267  Uiso   1.00
C22    C     0.66380   0.96077   0.93411   0.01267  Uiso   1.00
C23    C     0.36050   0.64820   0.12551   0.01267  Uiso   1.00
C24    C     0.29170   0.81450   0.14724   0.01267  Uiso   1.00
C25    C     0.32740   0.74330   0.11396   0.01267  Uiso   1.00
C26    C     0.32780   0.76900   0.07135   0.01267  Uiso   1.00
C27    C     0.39990   0.58370   0.09338   0.01267  Uiso   1.00
C28    C     0.83720   0.83356   0.83561   0.01267  Uiso   1.00
C29    C     0.68060   0.67260   0.94014   0.01267  Uiso   1.00
C30    C     0.36480   0.69925   0.04134   0.01267  Uiso   1.00
C31    C     0.15720   0.44350   0.17173   0.01267  Uiso   1.00
C32    C     0.83620   0.46077   0.06589   0.01267  Uiso   1.00
C33    C     0.13950   0.14820   0.87449   0.01267  Uiso   1.00
C34    C     0.20830   0.31450   0.85276   0.01267  Uiso   1.00
C35    C     0.17260   0.24330   0.88604   0.01267  Uiso   1.00
C36    C     0.17220   0.26900   0.92865   0.01267  Uiso   1.00
C37    C     0.10010   0.08370   0.90662   0.01267  Uiso   1.00
C38    C     0.66280   0.33356   0.16439   0.01267  Uiso   1.00
C39    C     0.81940   0.17260   0.05986   0.01267  Uiso   1.00
C40    C     0.13520   0.19925   0.95866   0.01267  Uiso   1.00
C41    C     0.34280   0.94350   0.67173   0.01267  Uiso   1.00
C42    C     0.66380   0.96077   0.56589   0.01267  Uiso   1.00
C43    C     0.36050   0.64820   0.37449   0.01267  Uiso   1.00
C44    C     0.29170   0.81450   0.35276   0.01267  Uiso   1.00
C45    C     0.32740   0.74330   0.38604   0.01267  Uiso   1.00
C46    C     0.32780   0.76900   0.42865   0.01267  Uiso   1.00
C47    C     0.39990   0.58370   0.40662   0.01267  Uiso   1.00
C48    C     0.83720   0.83356   0.66439   0.01267  Uiso   1.00
C49    C     0.68060   0.67260   0.55986   0.01267  Uiso   1.00
C50    C     0.36480   0.69925   0.45866   0.01267  Uiso   1.00
C51    C     0.15720   0.44350   0.32827   0.01267  Uiso   1.00
C52    C     0.83620   0.46077   0.43411   0.01267  Uiso   1.00
C53    C     0.13950   0.14820   0.62551   0.01267  Uiso   1.00
C54    C     0.20830   0.31450   0.64724   0.01267  Uiso   1.00
C55    C     0.17260   0.24330   0.61396   0.01267  Uiso   1.00
C56    C     0.17220   0.26900   0.57135   0.01267  Uiso   1.00
C57    C     0.10010   0.08370   0.59338   0.01267  Uiso   1.00
C58    C     0.66280   0.33356   0.33561   0.01267  Uiso   1.00
C59    C     0.81940   0.17260   0.44014   0.01267  Uiso   1.00
C60    C     0.13520   0.19925   0.54134   0.01267  Uiso   1.00
C61    C     0.65720   0.05650   0.17173   0.01267  Uiso   1.00
C62    C     0.33620   0.03923   0.06589   0.01267  Uiso   1.00
C63    C     0.63950   0.35180   0.87449   0.01267  Uiso   1.00
C64    C     0.70830   0.18550   0.85276   0.01267  Uiso   1.00
C65    C     0.67260   0.25670   0.88604   0.01267  Uiso   1.00
C66    C     0.67220   0.23100   0.92865   0.01267  Uiso   1.00
C67    C     0.60010   0.41630   0.90662   0.01267  Uiso   1.00
C68    C     0.16280   0.16644   0.16439   0.01267  Uiso   1.00
C69    C     0.31940   0.32740   0.05986   0.01267  Uiso   1.00
C70    C     0.63520   0.30075   0.95866   0.01267  Uiso   1.00
C71    C     0.84280   0.55650   0.82827   0.01267  Uiso   1.00
C72    C     0.16380   0.53923   0.93411   0.01267  Uiso   1.00
C73    C     0.86050   0.85180   0.12551   0.01267  Uiso   1.00
C74    C     0.79170   0.68550   0.14724   0.01267  Uiso   1.00
C75    C     0.82740   0.75670   0.11396   0.01267  Uiso   1.00
C76    C     0.82780   0.73100   0.07135   0.01267  Uiso   1.00
C77    C     0.89990   0.91630   0.09338   0.01267  Uiso   1.00
C78    C     0.33720   0.66644   0.83561   0.01267  Uiso   1.00
C79    C     0.18060   0.82740   0.94014   0.01267  Uiso   1.00
C80    C     0.86480   0.80075   0.04134   0.01267  Uiso   1.00
N1     N     0.75080   0.05560   0.29984   0.01267  Uiso   1.00
N2     N     0.37020   0.37895   0.46571   0.01267  Uiso   1.00
N3     N     0.73670   0.13090   0.67349   0.01267  Uiso   1.00
N4     N     0.59680   0.39247   0.55181   0.01267  Uiso   1.00
N5     N     0.23530   0.02769   0.46067   0.01267  Uiso   1.00
N6     N     0.12090   0.13005   0.30460   0.01267  Uiso   1.00
N7     N     0.74920   0.55560   0.70016   0.01267  Uiso   1.00
N8     N     0.12980   0.87895   0.53429   0.01267  Uiso   1.00
N9     N     0.76330   0.63090   0.32651   0.01267  Uiso   1.00
N10    N     0.90320   0.89247   0.44819   0.01267  Uiso   1.00
N11    N     0.26470   0.52769   0.53933   0.01267  Uiso   1.00
N12    N     0.37910   0.63005   0.69540   0.01267  Uiso   1.00
N13    N     0.24920   0.94440   0.79984   0.01267  Uiso   1.00
N14    N     0.62980   0.62105   0.96571   0.01267  Uiso   1.00
N15    N     0.26330   0.86910   0.17349   0.01267  Uiso   1.00
N16    N     0.40320   0.60753   0.05181   0.01267  Uiso   1.00
N17    N     0.76470   0.97231   0.96067   0.01267  Uiso   1.00
N18    N     0.87910   0.86995   0.80460   0.01267  Uiso   1.00
N19    N     0.25080   0.44440   0.20016   0.01267  Uiso   1.00
N20    N     0.87020   0.12105   0.03429   0.01267  Uiso   1.00
N21    N     0.23670   0.36910   0.82651   0.01267  Uiso   1.00
N22    N     0.09680   0.10753   0.94819   0.01267  Uiso   1.00
N23    N     0.73530   0.47231   0.03933   0.01267  Uiso   1.00
N24    N     0.62090   0.36995   0.19540   0.01267  Uiso   1.00
N25    N     0.24920   0.94440   0.70016   0.01267  Uiso   1.00
N26    N     0.62980   0.62105   0.53429   0.01267  Uiso   1.00
N27    N     0.26330   0.86910   0.32651   0.01267  Uiso   1.00
N28    N     0.40320   0.60753   0.44819   0.01267  Uiso   1.00
N29    N     0.76470   0.97231   0.53933   0.01267  Uiso   1.00
N30    N     0.87910   0.86995   0.69540   0.01267  Uiso   1.00
N31    N     0.25080   0.44440   0.29984   0.01267  Uiso   1.00
N32    N     0.87020   0.12105   0.46571   0.01267  Uiso   1.00
N33    N     0.23670   0.36910   0.67349   0.01267  Uiso   1.00
N34    N     0.09680   0.10753   0.55181   0.01267  Uiso   1.00
N35    N     0.73530   0.47231   0.46067   0.01267  Uiso   1.00
N36    N     0.62090   0.36995   0.30460   0.01267  Uiso   1.00
N37    N     0.75080   0.05560   0.20016   0.01267  Uiso   1.00
N38    N     0.37020   0.37895   0.03429   0.01267  Uiso   1.00
N39    N     0.73670   0.13090   0.82651   0.01267  Uiso   1.00
N40    N     0.59680   0.39247   0.94819   0.01267  Uiso   1.00
N41    N     0.23530   0.02769   0.03933   0.01267  Uiso   1.00
N42    N     0.12090   0.13005   0.19540   0.01267  Uiso   1.00
N43    N     0.74920   0.55560   0.79984   0.01267  Uiso   1.00
N44    N     0.12980   0.87895   0.96571   0.01267  Uiso   1.00
N45    N     0.76330   0.63090   0.17349   0.01267  Uiso   1.00
N46    N     0.90320   0.89247   0.05181   0.01267  Uiso   1.00
N47    N     0.26470   0.52769   0.96067   0.01267  Uiso   1.00
N48    N     0.37910   0.63005   0.80460   0.01267  Uiso   1.00
