data_image0
_cell_length_a       13.3282
_cell_length_b       13.3282
_cell_length_c       13.0501
_cell_angle_alpha    90
_cell_angle_beta     90
_cell_angle_gamma    120

_symmetry_space_group_name_H-M    "P 1"
_symmetry_int_tables_number       1

loop_
  _symmetry_equiv_pos_as_xyz
  'x, y, z'

loop_
  _atom_site_label
  _atom_site_occupancy
  _atom_site_fract_x
  _atom_site_fract_y
  _atom_site_fract_z
  _atom_site_thermal_displace_type
  _atom_site_B_iso_or_equiv
  _atom_site_type_symbol
  N1       1.0000 0.07430  0.64880  0.55210  Biso   1.000  N
  N2       1.0000 0.18270  0.63770  0.67320  Biso   1.000  N
  C1       1.0000 0.18040  0.67020  0.57890  Biso   1.000  C
  H1       1.0000 0.24450  0.70410  0.53580  Biso   1.000  H
  N3       1.0000 0.51770  0.21120  0.36420  Biso   1.000  N
  C2       1.0000 0.00460  0.59890  0.63460  Biso   1.000  C
  H2       1.0000 0.92600  0.57410  0.63930  Biso   1.000  H
  N4       1.0000 0.34340  0.08230  0.41440  Biso   1.000  N
  C3       1.0000 0.03940  0.67220  0.45200  Biso   1.000  C
  H3       1.0000 0.95710  0.61960  0.44280  Biso   1.000  H
  H4       1.0000 0.07980  0.65590  0.39860  Biso   1.000  H
  C4       1.0000 0.07140  0.59260  0.70750  Biso   1.000  C
  H5       1.0000 0.04580  0.56200  0.77260  Biso   1.000  H
  C5       1.0000 0.52200  0.17980  0.46390  Biso   1.000  C
  H6       1.0000 0.58890  0.20890  0.50350  Biso   1.000  H
  C6       1.0000 0.41600  0.10150  0.49530  Biso   1.000  C
  H7       1.0000 0.39550  0.06680  0.55950  Biso   1.000  H
  C7       1.0000 0.40760  0.14790  0.33690  Biso   1.000  C
  H8       1.0000 0.37890  0.14910  0.27230  Biso   1.000  H
  C8       1.0000 0.21850  0.00070  0.41400  Biso   1.000  C
  H9       1.0000 0.18160  0.02270  0.46650  Biso   1.000  H
  H10      1.0000 0.18640  0.00400  0.34820  Biso   1.000  H
  C9       1.0000 0.06310  0.79260  0.43940  Biso   1.000  C
  H11      1.0000 0.03000  0.81240  0.49670  Biso   1.000  H
  H12      1.0000 0.02590  0.79770  0.37720  Biso   1.000  H
  C10      1.0000 0.19370  0.88010  0.43340  Biso   1.000  C
  H13      1.0000 0.22760  0.85720  0.37890  Biso   1.000  H
  H14      1.0000 0.23000  0.87830  0.49730  Biso   1.000  H
  N5       1.0000 0.35120  0.42550  0.55210  Biso   1.000  N
  N6       1.0000 0.36230  0.54500  0.67320  Biso   1.000  N
  C11      1.0000 0.32980  0.51020  0.57890  Biso   1.000  C
  H15      1.0000 0.29590  0.54040  0.53580  Biso   1.000  H
  N7       1.0000 0.78880  0.30650  0.36420  Biso   1.000  N
  C12      1.0000 0.40110  0.40570  0.63460  Biso   1.000  C
  H16      1.0000 0.42590  0.35190  0.63930  Biso   1.000  H
  N8       1.0000 0.91770  0.26110  0.41440  Biso   1.000  N
  C13      1.0000 0.32780  0.36720  0.45200  Biso   1.000  C
  H17      1.0000 0.38040  0.33750  0.44280  Biso   1.000  H
  H18      1.0000 0.34410  0.42390  0.39860  Biso   1.000  H
  C14      1.0000 0.40740  0.47880  0.70750  Biso   1.000  C
  H19      1.0000 0.43800  0.48380  0.77260  Biso   1.000  H
  C15      1.0000 0.82020  0.34220  0.46390  Biso   1.000  C
  H20      1.0000 0.79110  0.38000  0.50350  Biso   1.000  H
  C16      1.0000 0.89850  0.31450  0.49530  Biso   1.000  C
  H21      1.0000 0.93320  0.32870  0.55950  Biso   1.000  H
  C17      1.0000 0.85210  0.25970  0.33690  Biso   1.000  C
  H22      1.0000 0.85090  0.22980  0.27230  Biso   1.000  H
  C18      1.0000 0.99930  0.21780  0.41400  Biso   1.000  C
  H23      1.0000 0.97730  0.15890  0.46650  Biso   1.000  H
  H24      1.0000 0.99600  0.18240  0.34820  Biso   1.000  H
  C19      1.0000 0.20740  0.27050  0.43940  Biso   1.000  C
  H25      1.0000 0.18760  0.21760  0.49670  Biso   1.000  H
  H26      1.0000 0.20230  0.22820  0.37720  Biso   1.000  H
  C20      1.0000 0.11990  0.31360  0.43340  Biso   1.000  C
  H27      1.0000 0.14280  0.37040  0.37890  Biso   1.000  H
  H28      1.0000 0.12170  0.35170  0.49730  Biso   1.000  H
  N9       1.0000 0.57450  0.92570  0.55210  Biso   1.000  N
  N10      1.0000 0.45500  0.81730  0.67320  Biso   1.000  N
  C21      1.0000 0.48980  0.81960  0.57890  Biso   1.000  C
  H29      1.0000 0.45960  0.75550  0.53580  Biso   1.000  H
  N11      1.0000 0.69350  0.48230  0.36420  Biso   1.000  N
  C22      1.0000 0.59430  0.99540  0.63460  Biso   1.000  C
  H30      1.0000 0.64810  0.07400  0.63930  Biso   1.000  H
  N12      1.0000 0.73890  0.65660  0.41440  Biso   1.000  N
  C23      1.0000 0.63280  0.96060  0.45200  Biso   1.000  C
  H31      1.0000 0.66250  0.04290  0.44280  Biso   1.000  H
  H32      1.0000 0.57610  0.92020  0.39860  Biso   1.000  H
  C24      1.0000 0.52120  0.92860  0.70750  Biso   1.000  C
  H33      1.0000 0.51620  0.95420  0.77260  Biso   1.000  H
  C25      1.0000 0.65780  0.47800  0.46390  Biso   1.000  C
  H34      1.0000 0.62000  0.41110  0.50350  Biso   1.000  H
  C26      1.0000 0.68550  0.58400  0.49530  Biso   1.000  C
  H35      1.0000 0.67130  0.60450  0.55950  Biso   1.000  H
  C27      1.0000 0.74030  0.59240  0.33690  Biso   1.000  C
  H36      1.0000 0.77020  0.62110  0.27230  Biso   1.000  H
  C28      1.0000 0.78220  0.78150  0.41400  Biso   1.000  C
  H37      1.0000 0.84110  0.81840  0.46650  Biso   1.000  H
  H38      1.0000 0.81760  0.81360  0.34820  Biso   1.000  H
  C29      1.0000 0.72950  0.93690  0.43940  Biso   1.000  C
  H39      1.0000 0.78240  0.97000  0.49670  Biso   1.000  H
  H40      1.0000 0.77180  0.97410  0.37720  Biso   1.000  H
  C30      1.0000 0.68640  0.80630  0.43340  Biso   1.000  C
  H41      1.0000 0.62960  0.77240  0.37890  Biso   1.000  H
  H42      1.0000 0.64830  0.77000  0.49730  Biso   1.000  H
  N13      1.0000 0.64880  0.07430  0.05210  Biso   1.000  N
  N14      1.0000 0.63770  0.18270  0.17320  Biso   1.000  N
  C31      1.0000 0.67020  0.18040  0.07890  Biso   1.000  C
  H43      1.0000 0.70410  0.24450  0.03580  Biso   1.000  H
  N15      1.0000 0.21120  0.51770  0.86420  Biso   1.000  N
  C32      1.0000 0.59890  0.00460  0.13460  Biso   1.000  C
  H44      1.0000 0.57410  0.92600  0.13930  Biso   1.000  H
  N16      1.0000 0.08230  0.34340  0.91440  Biso   1.000  N
  C33      1.0000 0.67220  0.03940  0.95200  Biso   1.000  C
  H45      1.0000 0.61960  0.95710  0.94280  Biso   1.000  H
  H46      1.0000 0.65590  0.07980  0.89860  Biso   1.000  H
  C34      1.0000 0.59260  0.07140  0.20750  Biso   1.000  C
  H47      1.0000 0.56200  0.04580  0.27260  Biso   1.000  H
  C35      1.0000 0.17980  0.52200  0.96390  Biso   1.000  C
  H48      1.0000 0.20890  0.58890  0.00350  Biso   1.000  H
  C36      1.0000 0.10150  0.41600  0.99530  Biso   1.000  C
  H49      1.0000 0.06680  0.39550  0.05950  Biso   1.000  H
  C37      1.0000 0.14790  0.40760  0.83690  Biso   1.000  C
  H50      1.0000 0.14910  0.37890  0.77230  Biso   1.000  H
  C38      1.0000 0.00070  0.21850  0.91400  Biso   1.000  C
  H51      1.0000 0.02270  0.18160  0.96650  Biso   1.000  H
  H52      1.0000 0.00400  0.18640  0.84820  Biso   1.000  H
  C39      1.0000 0.79260  0.06310  0.93940  Biso   1.000  C
  H53      1.0000 0.81240  0.03000  0.99670  Biso   1.000  H
  H54      1.0000 0.79770  0.02590  0.87720  Biso   1.000  H
  C40      1.0000 0.88010  0.19370  0.93340  Biso   1.000  C
  H55      1.0000 0.85720  0.22760  0.87890  Biso   1.000  H
  H56      1.0000 0.87830  0.23000  0.99730  Biso   1.000  H
  N17      1.0000 0.42550  0.35120  0.05210  Biso   1.000  N
  N18      1.0000 0.54500  0.36230  0.17320  Biso   1.000  N
  C41      1.0000 0.51020  0.32980  0.07890  Biso   1.000  C
  H57      1.0000 0.54040  0.29590  0.03580  Biso   1.000  H
  N19      1.0000 0.30650  0.78880  0.86420  Biso   1.000  N
  C42      1.0000 0.40570  0.40110  0.13460  Biso   1.000  C
  H58      1.0000 0.35190  0.42590  0.13930  Biso   1.000  H
  N20      1.0000 0.26110  0.91770  0.91440  Biso   1.000  N
  C43      1.0000 0.36720  0.32780  0.95200  Biso   1.000  C
  H59      1.0000 0.33750  0.38040  0.94280  Biso   1.000  H
  H60      1.0000 0.42390  0.34410  0.89860  Biso   1.000  H
  C44      1.0000 0.47880  0.40740  0.20750  Biso   1.000  C
  H61      1.0000 0.48380  0.43800  0.27260  Biso   1.000  H
  C45      1.0000 0.34220  0.82020  0.96390  Biso   1.000  C
  H62      1.0000 0.38000  0.79110  0.00350  Biso   1.000  H
  C46      1.0000 0.31450  0.89850  0.99530  Biso   1.000  C
  H63      1.0000 0.32870  0.93320  0.05950  Biso   1.000  H
  C47      1.0000 0.25970  0.85210  0.83690  Biso   1.000  C
  H64      1.0000 0.22980  0.85090  0.77230  Biso   1.000  H
  C48      1.0000 0.21780  0.99930  0.91400  Biso   1.000  C
  H65      1.0000 0.15890  0.97730  0.96650  Biso   1.000  H
  H66      1.0000 0.18240  0.99600  0.84820  Biso   1.000  H
  C49      1.0000 0.27050  0.20740  0.93940  Biso   1.000  C
  H67      1.0000 0.21760  0.18760  0.99670  Biso   1.000  H
  H68      1.0000 0.22820  0.20230  0.87720  Biso   1.000  H
  C50      1.0000 0.31360  0.11990  0.93340  Biso   1.000  C
  H69      1.0000 0.37040  0.14280  0.87890  Biso   1.000  H
  H70      1.0000 0.35170  0.12170  0.99730  Biso   1.000  H
  N21      1.0000 0.92570  0.57450  0.05210  Biso   1.000  N
  N22      1.0000 0.81730  0.45500  0.17320  Biso   1.000  N
  C51      1.0000 0.81960  0.48980  0.07890  Biso   1.000  C
  H71      1.0000 0.75550  0.45960  0.03580  Biso   1.000  H
  N23      1.0000 0.48230  0.69350  0.86420  Biso   1.000  N
  C52      1.0000 0.99540  0.59430  0.13460  Biso   1.000  C
  H72      1.0000 0.07400  0.64810  0.13930  Biso   1.000  H
  N24      1.0000 0.65660  0.73890  0.91440  Biso   1.000  N
  C53      1.0000 0.96060  0.63280  0.95200  Biso   1.000  C
  H73      1.0000 0.04290  0.66250  0.94280  Biso   1.000  H
  H74      1.0000 0.92020  0.57610  0.89860  Biso   1.000  H
  C54      1.0000 0.92860  0.52120  0.20750  Biso   1.000  C
  H75      1.0000 0.95420  0.51620  0.27260  Biso   1.000  H
  C55      1.0000 0.47800  0.65780  0.96390  Biso   1.000  C
  H76      1.0000 0.41110  0.62000  0.00350  Biso   1.000  H
  C56      1.0000 0.58400  0.68550  0.99530  Biso   1.000  C
  H77      1.0000 0.60450  0.67130  0.05950  Biso   1.000  H
  C57      1.0000 0.59240  0.74030  0.83690  Biso   1.000  C
  H78      1.0000 0.62110  0.77020  0.77230  Biso   1.000  H
  C58      1.0000 0.78150  0.78220  0.91400  Biso   1.000  C
  H79      1.0000 0.81840  0.84110  0.96650  Biso   1.000  H
  H80      1.0000 0.81360  0.81760  0.84820  Biso   1.000  H
  C59      1.0000 0.93690  0.72950  0.93940  Biso   1.000  C
  H81      1.0000 0.97000  0.78240  0.99670  Biso   1.000  H
  H82      1.0000 0.97410  0.77180  0.87720  Biso   1.000  H
  C60      1.0000 0.80630  0.68640  0.93340  Biso   1.000  C
  H83      1.0000 0.77240  0.62960  0.87890  Biso   1.000  H
  H84      1.0000 0.77000  0.64830  0.99730  Biso   1.000  H
  Fe1      1.0000 0.33333  0.66667  0.76689  Biso   1.000  Fe
  Fe2      1.0000 0.66667  0.33333  0.26689  Biso   1.000  Fe
