data_SIVWUR_clean
_audit_creation_date              2015-10-16
_audit_creation_method            'Materials Studio'
_symmetry_space_group_name_H-M    'P1'
_symmetry_Int_Tables_number       1
_symmetry_cell_setting            triclinic
loop_
_symmetry_equiv_pos_as_xyz
  x,y,z
_cell_length_a                    10.6600
_cell_length_b                    12.4897
_cell_length_c                    12.4897
_cell_angle_alpha                 92.1281
_cell_angle_beta                  92.8574
_cell_angle_gamma                 92.8574
loop_
_atom_site_label
_atom_site_type_symbol
_atom_site_fract_x
_atom_site_fract_y
_atom_site_fract_z
_atom_site_U_iso_or_equiv
_atom_site_adp_type
_atom_site_occupancy
Cd1    Cd    0.75000   0.14052   0.85948   0.01267  Uiso   1.00
Cd2    Cd    0.50000   0.00000  -0.00000   0.01267  Uiso   1.00
Cd3    Cd    0.25000   0.85948   0.14052   0.01267  Uiso   1.00
Cd4    Cd    0.00000   0.00000   0.00000   0.01267  Uiso   1.00
H1     H     0.99700   0.16960   0.43640   0.01267  Uiso   1.00
H2     H     0.01180   0.09820   0.74540   0.01267  Uiso   1.00
H3     H     0.50820   0.70460   0.67780   0.01267  Uiso   1.00
H4     H     0.48820   0.25460   0.90180   0.01267  Uiso   1.00
H5     H     0.67050   0.42290   0.11310   0.01267  Uiso   1.00
H6     H     0.14060   0.88210   0.69610   0.01267  Uiso   1.00
H7     H     0.30360   0.81440   0.38760   0.01267  Uiso   1.00
H8     H     0.45000   0.77280   0.84020   0.01267  Uiso   1.00
H9     H     0.01170   0.56210   0.08510   0.01267  Uiso   1.00
H10    H     0.00820   0.67780   0.70460   0.01267  Uiso   1.00
H11    H     0.55000   0.22720   0.15980   0.01267  Uiso   1.00
H12    H     0.95000   0.84020   0.77280   0.01267  Uiso   1.00
H13    H     0.64060   0.69610   0.88210   0.01267  Uiso   1.00
H14    H     0.98830   0.43790   0.91490   0.01267  Uiso   1.00
H15    H     0.51180   0.74540   0.09820   0.01267  Uiso   1.00
H16    H     0.85940   0.11790   0.30390   0.01267  Uiso   1.00
H17    H     0.88130   0.40790   0.09350   0.01267  Uiso   1.00
H18    H     0.32950   0.57710   0.88690   0.01267  Uiso   1.00
H19    H     0.49700   0.43640   0.16960   0.01267  Uiso   1.00
H20    H     0.61870   0.90650   0.59210   0.01267  Uiso   1.00
H21    H     0.50300   0.56360   0.83040   0.01267  Uiso   1.00
H22    H     0.69640   0.18560   0.61240   0.01267  Uiso   1.00
H23    H     0.38280   0.72260   0.52480   0.01267  Uiso   1.00
H24    H     0.38130   0.09350   0.40790   0.01267  Uiso   1.00
H25    H     0.99180   0.32220   0.29540   0.01267  Uiso   1.00
H26    H     0.61720   0.27740   0.47520   0.01267  Uiso   1.00
H27    H     0.88280   0.52480   0.72260   0.01267  Uiso   1.00
H28    H     0.35940   0.30390   0.11790   0.01267  Uiso   1.00
H29    H     0.00300   0.83040   0.56360   0.01267  Uiso   1.00
H30    H     0.19640   0.61240   0.18560   0.01267  Uiso   1.00
H31    H     0.78810   0.89030   0.25610   0.01267  Uiso   1.00
H32    H     0.48830   0.91490   0.43790   0.01267  Uiso   1.00
H33    H     0.80360   0.38760   0.81440   0.01267  Uiso   1.00
H34    H     0.17050   0.11310   0.42290   0.01267  Uiso   1.00
H35    H     0.11870   0.59210   0.90650   0.01267  Uiso   1.00
H36    H     0.21190   0.10970   0.74390   0.01267  Uiso   1.00
H37    H     0.82950   0.88690   0.57710   0.01267  Uiso   1.00
H38    H     0.49180   0.29540   0.32220   0.01267  Uiso   1.00
H39    H     0.51170   0.08510   0.56210   0.01267  Uiso   1.00
H40    H     0.28810   0.25610   0.89030   0.01267  Uiso   1.00
H41    H     0.71190   0.74390   0.10970   0.01267  Uiso   1.00
H42    H     0.05000   0.15980   0.22720   0.01267  Uiso   1.00
H43    H     0.11720   0.47520   0.27740   0.01267  Uiso   1.00
H44    H     0.98820   0.90180   0.25460   0.01267  Uiso   1.00
C1     C     0.75170   0.19510   0.40570   0.01267  Uiso   1.00
C2     C     0.42560   0.09060   0.56800   0.01267  Uiso   1.00
C3     C     0.57440   0.90940   0.43200   0.01267  Uiso   1.00
C4     C     0.21430   0.84570   0.69270   0.01267  Uiso   1.00
C5     C     0.33180   0.50470   0.17590   0.01267  Uiso   1.00
C6     C     0.53870   0.92100   0.23400   0.01267  Uiso   1.00
C7     C     0.77780   0.89110   0.51530   0.01267  Uiso   1.00
C8     C     0.95830   0.16040   0.50080   0.01267  Uiso   1.00
C9     C     0.15220   0.52470   0.90290   0.01267  Uiso   1.00
C10    C     0.75280   0.12300   0.10740   0.01267  Uiso   1.00
C11    C     0.83100   0.88550   0.41510   0.01267  Uiso   1.00
C12    C     0.24620   0.10620   0.67700   0.01267  Uiso   1.00
C13    C     0.45830   0.50080   0.16040   0.01267  Uiso   1.00
C14    C     0.74720   0.89260   0.87700   0.01267  Uiso   1.00
C15    C     0.25380   0.32300   0.89380   0.01267  Uiso   1.00
C16    C     0.85890   0.59010   0.75130   0.01267  Uiso   1.00
C17    C     0.71340   0.16640   0.21380   0.01267  Uiso   1.00
C18    C     0.71430   0.69270   0.84570   0.01267  Uiso   1.00
C19    C     0.96130   0.76600   0.07900   0.01267  Uiso   1.00
C20    C     0.12440   0.33010   0.90770   0.01267  Uiso   1.00
C21    C     0.66900   0.58490   0.11450   0.01267  Uiso   1.00
C22    C     0.04170   0.83960   0.49920   0.01267  Uiso   1.00
C23    C     0.03190   0.87860   0.31500   0.01267  Uiso   1.00
C24    C     0.78570   0.15430   0.30730   0.01267  Uiso   1.00
C25    C     0.65220   0.90290   0.52470   0.01267  Uiso   1.00
C26    C     0.22220   0.10890   0.48470   0.01267  Uiso   1.00
C27    C     0.60120   0.21940   0.22120   0.01267  Uiso   1.00
C28    C     0.43370   0.73990   0.68170   0.01267  Uiso   1.00
C29    C     0.25170   0.40570   0.19510   0.01267  Uiso   1.00
C30    C     0.14110   0.40990   0.24870   0.01267  Uiso   1.00
C31    C     0.93370   0.68170   0.73990   0.01267  Uiso   1.00
C32    C     0.27780   0.51530   0.89110   0.01267  Uiso   1.00
C33    C     0.46810   0.68500   0.12140   0.01267  Uiso   1.00
C34    C     0.35890   0.75130   0.59010   0.01267  Uiso   1.00
C35    C     0.34780   0.09710   0.47530   0.01267  Uiso   1.00
C36    C     0.71970   0.39410   0.82970   0.01267  Uiso   1.00
C37    C     0.56630   0.26010   0.31830   0.01267  Uiso   1.00
C38    C     0.28030   0.60590   0.17030   0.01267  Uiso   1.00
C39    C     0.16820   0.82410   0.49530   0.01267  Uiso   1.00
C40    C     0.96810   0.12140   0.68500   0.01267  Uiso   1.00
C41    C     0.37560   0.09230   0.66990   0.01267  Uiso   1.00
C42    C     0.53070   0.59060   0.13120   0.01267  Uiso   1.00
C43    C     0.21970   0.82970   0.39410   0.01267  Uiso   1.00
C44    C     0.28570   0.30730   0.15430   0.01267  Uiso   1.00
C45    C     0.16900   0.11450   0.58490   0.01267  Uiso   1.00
C46    C     0.78030   0.17030   0.60590   0.01267  Uiso   1.00
C47    C     0.46130   0.07900   0.76600   0.01267  Uiso   1.00
C48    C     0.24720   0.87700   0.89260   0.01267  Uiso   1.00
C49    C     0.89880   0.77880   0.78060   0.01267  Uiso   1.00
C50    C     0.62440   0.90770   0.33010   0.01267  Uiso   1.00
C51    C     0.28660   0.83360   0.78620   0.01267  Uiso   1.00
C52    C     0.74830   0.59430   0.80490   0.01267  Uiso   1.00
C53    C     0.83180   0.17590   0.50470   0.01267  Uiso   1.00
C54    C     0.25280   0.10740   0.12300   0.01267  Uiso   1.00
C55    C     0.87560   0.66990   0.09230   0.01267  Uiso   1.00
C56    C     0.92560   0.56800   0.09060   0.01267  Uiso   1.00
C57    C     0.24830   0.80490   0.59430   0.01267  Uiso   1.00
C58    C     0.46930   0.40940   0.86880   0.01267  Uiso   1.00
C59    C     0.54170   0.49920   0.83960   0.01267  Uiso   1.00
C60    C     0.03070   0.13120   0.59060   0.01267  Uiso   1.00
C61    C     0.06630   0.31830   0.26010   0.01267  Uiso   1.00
C62    C     0.39880   0.78060   0.77880   0.01267  Uiso   1.00
C63    C     0.66820   0.49530   0.82410   0.01267  Uiso   1.00
C64    C     0.72220   0.48470   0.10890   0.01267  Uiso   1.00
C65    C     0.78660   0.78620   0.83360   0.01267  Uiso   1.00
C66    C     0.96930   0.86880   0.40940   0.01267  Uiso   1.00
C67    C     0.21340   0.21380   0.16640   0.01267  Uiso   1.00
C68    C     0.10120   0.22120   0.21940   0.01267  Uiso   1.00
C69    C     0.64110   0.24870   0.40990   0.01267  Uiso   1.00
C70    C     0.07440   0.43200   0.90940   0.01267  Uiso   1.00
C71    C     0.75380   0.89380   0.32300   0.01267  Uiso   1.00
C72    C     0.53190   0.31500   0.87860   0.01267  Uiso   1.00
C73    C     0.03870   0.23400   0.92100   0.01267  Uiso   1.00
C74    C     0.33100   0.41510   0.88550   0.01267  Uiso   1.00
C75    C     0.74620   0.67700   0.10620   0.01267  Uiso   1.00
C76    C     0.84780   0.47530   0.09710   0.01267  Uiso   1.00
N1     N     0.15300   0.85590   0.30770   0.01267  Uiso   1.00
N2     N     0.34700   0.69230   0.14410   0.01267  Uiso   1.00
N3     N     0.84700   0.14410   0.69230   0.01267  Uiso   1.00
N4     N     0.65300   0.30770   0.85590   0.01267  Uiso   1.00
O1     O     0.82610   0.97240   0.87220   0.01267  Uiso   1.00
O2     O     0.58930   0.93130   0.14510   0.01267  Uiso   1.00
O3     O     0.86030   0.08810   0.10510   0.01267  Uiso   1.00
O4     O     0.42270   0.91890   0.24650   0.01267  Uiso   1.00
O5     O     0.07730   0.75350   0.08110   0.01267  Uiso   1.00
O6     O     0.91070   0.85490   0.06870   0.01267  Uiso   1.00
O7     O     0.92270   0.24650   0.91890   0.01267  Uiso   1.00
O8     O     0.36030   0.10510   0.08810   0.01267  Uiso   1.00
O9     O     0.41070   0.06870   0.85490   0.01267  Uiso   1.00
O10    O     0.63970   0.89490   0.91190   0.01267  Uiso   1.00
O11    O     0.57730   0.08110   0.75350   0.01267  Uiso   1.00
O12    O     0.17390   0.02760   0.12780   0.01267  Uiso   1.00
O13    O     0.13970   0.91190   0.89490   0.01267  Uiso   1.00
O14    O     0.32610   0.87220   0.97240   0.01267  Uiso   1.00
O15    O     0.67390   0.12780   0.02760   0.01267  Uiso   1.00
O16    O     0.08930   0.14510   0.93130   0.01267  Uiso   1.00
