data_image0
_cell_length_a       16.137
_cell_length_b       7.605
_cell_length_c       16.14
_cell_angle_alpha    90
_cell_angle_beta     119.984
_cell_angle_gamma    90

_symmetry_space_group_name_H-M    "P 1"
_symmetry_int_tables_number       1

loop_
  _symmetry_equiv_pos_as_xyz
  'x, y, z'

loop_
  _atom_site_label
  _atom_site_occupancy
  _atom_site_fract_x
  _atom_site_fract_y
  _atom_site_fract_z
  _atom_site_thermal_displace_type
  _atom_site_B_iso_or_equiv
  _atom_site_type_symbol
  Mn1      1.0000 0.18312  0.37670  0.33396  Biso   1.000  Mn
  Mn2      1.0000 0.33400  0.87660  0.15101  Biso   1.000  Mn
  Mn3      1.0000 0.84923  0.87659  0.18289  Biso   1.000  Mn
  Mn4      1.0000 0.66678  0.35722  0.33332  Biso   1.000  Mn
  C1       1.0000 0.01450  0.61250  0.28900  Biso   1.000  C
  H1       1.0000 0.99670  0.57820  0.22560  Biso   1.000  H
  C2       1.0000 0.22650  0.63190  0.21690  Biso   1.000  C
  H2       1.0000 0.28830  0.62460  0.27210  Biso   1.000  H
  C3       1.0000 0.73970  0.60260  0.23610  Biso   1.000  C
  H3       1.0000 0.79680  0.59500  0.29630  Biso   1.000  H
  C4       1.0000 0.30050  0.60580  0.50750  Biso   1.000  C
  H4       1.0000 0.24230  0.59310  0.50830  Biso   1.000  H
  C5       1.0000 0.27420  0.61180  0.98610  Biso   1.000  C
  H5       1.0000 0.22910  0.57730  0.00430  Biso   1.000  H
  C6       1.0000 0.49570  0.60370  0.26040  Biso   1.000  C
  H6       1.0000 0.49760  0.59410  0.20260  Biso   1.000  H
  C7       1.0000 0.01170  0.13150  0.22790  Biso   1.000  C
  H7       1.0000 0.02000  0.12190  0.29030  Biso   1.000  H
  C8       1.0000 0.79380  0.10550  0.29880  Biso   1.000  C
  H8       1.0000 0.73570  0.09500  0.23970  Biso   1.000  H
  C9       1.0000 0.78290  0.63000  0.01050  Biso   1.000  C
  H9       1.0000 0.72880  0.61810  0.01870  Biso   1.000  H
  C10      1.0000 0.50670  0.10570  0.20740  Biso   1.000  C
  H10      1.0000 0.50690  0.09420  0.26610  Biso   1.000  H
  C11      1.0000 0.76540  0.60320  0.50570  Biso   1.000  C
  H11      1.0000 0.70630  0.59250  0.50480  Biso   1.000  H
  C12      1.0000 0.28880  0.11270  0.27400  Biso   1.000  C
  H12      1.0000 0.22530  0.07950  0.22800  Biso   1.000  H
  O1       1.0000 0.21850  0.72400  0.14820  Biso   1.000  O
  O2       1.0000 0.08200  0.53060  0.35630  Biso   1.000  O
  O3       1.0000 0.73980  0.70570  0.17520  Biso   1.000  O
  O4       1.0000 0.96840  0.73660  0.29890  Biso   1.000  O
  O5       1.0000 0.67180  0.51030  0.22430  Biso   1.000  O
  O6       1.0000 0.16140  0.55070  0.21880  Biso   1.000  O
  O7       1.0000 0.07040  0.22380  0.21840  Biso   1.000  O
  O8       1.0000 0.77600  0.51150  0.44780  Biso   1.000  O
  O9       1.0000 0.86450  0.02180  0.30730  Biso   1.000  O
  O10      1.0000 0.56920  0.20370  0.20690  Biso   1.000  O
  O11      1.0000 0.35620  0.03080  0.27460  Biso   1.000  O
  O12      1.0000 0.30720  0.52240  0.44320  Biso   1.000  O
  O13      1.0000 0.85200  0.72400  0.07020  Biso   1.000  O
  O14      1.0000 0.33070  0.73680  0.03120  Biso   1.000  O
  O15      1.0000 0.27460  0.53090  0.91850  Biso   1.000  O
  O16      1.0000 0.79280  0.20290  0.36190  Biso   1.000  O
  O17      1.0000 0.44340  0.02110  0.13620  Biso   1.000  O
  O18      1.0000 0.55270  0.51210  0.32810  Biso   1.000  O
  O19      1.0000 0.94260  0.05020  0.16160  Biso   1.000  O
  O20      1.0000 0.78130  0.55310  0.94230  Biso   1.000  O
  O21      1.0000 0.36200  0.70210  0.56920  Biso   1.000  O
  O22      1.0000 0.82450  0.70650  0.56420  Biso   1.000  O
  O23      1.0000 0.43600  0.70750  0.26030  Biso   1.000  O
  O24      1.0000 0.29940  0.23670  0.33050  Biso   1.000  O
  Mn5      1.0000 0.81688  0.87670  0.66604  Biso   1.000  Mn
  Mn6      1.0000 0.66600  0.37660  0.84899  Biso   1.000  Mn
  Mn7      1.0000 0.15077  0.37659  0.81711  Biso   1.000  Mn
  Mn8      1.0000 0.33322  0.85722  0.66668  Biso   1.000  Mn
  C13      1.0000 0.98550  0.11250  0.71100  Biso   1.000  C
  H13      1.0000 0.00330  0.07820  0.77440  Biso   1.000  H
  C14      1.0000 0.77350  0.13190  0.78310  Biso   1.000  C
  H14      1.0000 0.71170  0.12460  0.72790  Biso   1.000  H
  C15      1.0000 0.26030  0.10260  0.76390  Biso   1.000  C
  H15      1.0000 0.20320  0.09500  0.70370  Biso   1.000  H
  C16      1.0000 0.69950  0.10580  0.49250  Biso   1.000  C
  H16      1.0000 0.75770  0.09310  0.49170  Biso   1.000  H
  C17      1.0000 0.72580  0.11180  0.01390  Biso   1.000  C
  H17      1.0000 0.77090  0.07730  0.99570  Biso   1.000  H
  C18      1.0000 0.50430  0.10370  0.73960  Biso   1.000  C
  H18      1.0000 0.50240  0.09410  0.79740  Biso   1.000  H
  C19      1.0000 0.98830  0.63150  0.77210  Biso   1.000  C
  H19      1.0000 0.98000  0.62190  0.70970  Biso   1.000  H
  C20      1.0000 0.20620  0.60550  0.70120  Biso   1.000  C
  H20      1.0000 0.26430  0.59500  0.76030  Biso   1.000  H
  C21      1.0000 0.21710  0.13000  0.98950  Biso   1.000  C
  H21      1.0000 0.27120  0.11810  0.98130  Biso   1.000  H
  C22      1.0000 0.49330  0.60570  0.79260  Biso   1.000  C
  H22      1.0000 0.49310  0.59420  0.73390  Biso   1.000  H
  C23      1.0000 0.23460  0.10320  0.49430  Biso   1.000  C
  H23      1.0000 0.29370  0.09250  0.49520  Biso   1.000  H
  C24      1.0000 0.71120  0.61270  0.72600  Biso   1.000  C
  H24      1.0000 0.77470  0.57950  0.77200  Biso   1.000  H
  O25      1.0000 0.78150  0.22400  0.85180  Biso   1.000  O
  O26      1.0000 0.91800  0.03060  0.64370  Biso   1.000  O
  O27      1.0000 0.26020  0.20570  0.82480  Biso   1.000  O
  O28      1.0000 0.03160  0.23660  0.70110  Biso   1.000  O
  O29      1.0000 0.32820  0.01030  0.77570  Biso   1.000  O
  O30      1.0000 0.83860  0.05070  0.78120  Biso   1.000  O
  O31      1.0000 0.92960  0.72380  0.78160  Biso   1.000  O
  O32      1.0000 0.22400  0.01150  0.55220  Biso   1.000  O
  O33      1.0000 0.13550  0.52180  0.69270  Biso   1.000  O
  O34      1.0000 0.43080  0.70370  0.79310  Biso   1.000  O
  O35      1.0000 0.64380  0.53080  0.72540  Biso   1.000  O
  O36      1.0000 0.69280  0.02240  0.55680  Biso   1.000  O
  O37      1.0000 0.14800  0.22400  0.92980  Biso   1.000  O
  O38      1.0000 0.66930  0.23680  0.96880  Biso   1.000  O
  O39      1.0000 0.72540  0.03090  0.08150  Biso   1.000  O
  O40      1.0000 0.20720  0.70290  0.63810  Biso   1.000  O
  O41      1.0000 0.55660  0.52110  0.86380  Biso   1.000  O
  O42      1.0000 0.44730  0.01210  0.67190  Biso   1.000  O
  O43      1.0000 0.05740  0.55020  0.83840  Biso   1.000  O
  O44      1.0000 0.21870  0.05310  0.05770  Biso   1.000  O
  O45      1.0000 0.63800  0.20210  0.43080  Biso   1.000  O
  O46      1.0000 0.17550  0.20650  0.43580  Biso   1.000  O
  O47      1.0000 0.56400  0.20750  0.73970  Biso   1.000  O
  O48      1.0000 0.70060  0.73670  0.66950  Biso   1.000  O
