data_image0
_cell_length_a       9.4293
_cell_length_b       10.2259
_cell_length_c       17.1533
_cell_angle_alpha    91.634
_cell_angle_beta     99.933
_cell_angle_gamma    93.062

_symmetry_space_group_name_H-M    "P 1"
_symmetry_int_tables_number       1

loop_
  _symmetry_equiv_pos_as_xyz
  'x, y, z'

loop_
  _atom_site_label
  _atom_site_occupancy
  _atom_site_fract_x
  _atom_site_fract_y
  _atom_site_fract_z
  _atom_site_thermal_displace_type
  _atom_site_B_iso_or_equiv
  _atom_site_type_symbol
  Co1      1.0000 0.80248  0.17890  0.70849  Biso   1.000  Co
  Co2      1.0000 0.82172  0.39279  0.86878  Biso   1.000  Co
  C1       1.0000 0.72940  0.58070  0.64400  Biso   1.000  C
  C2       1.0000 0.74450  0.70990  0.67530  Biso   1.000  C
  H1       1.0000 0.77040  0.72660  0.72960  Biso   1.000  H
  C3       1.0000 0.72040  0.81220  0.62440  Biso   1.000  C
  C4       1.0000 0.68410  0.78830  0.54310  Biso   1.000  C
  H2       1.0000 0.66640  0.85730  0.50930  Biso   1.000  H
  C5       1.0000 0.67450  0.65960  0.51300  Biso   1.000  C
  C6       1.0000 0.69510  0.55690  0.56310  Biso   1.000  C
  H3       1.0000 0.68600  0.47130  0.54230  Biso   1.000  H
  C7       1.0000 0.76160  0.47040  0.69930  Biso   1.000  C
  C8       1.0000 0.74460  0.95080  0.65740  Biso   1.000  C
  C9       1.0000 0.65010  0.71850  0.37700  Biso   1.000  C
  H4       1.0000 0.58870  0.78760  0.38750  Biso   1.000  H
  H5       1.0000 0.61100  0.67930  0.32500  Biso   1.000  H
  C10      1.0000 0.96640  0.91370  0.39080  Biso   1.000  C
  H6       1.0000 0.02360  0.99030  0.40550  Biso   1.000  H
  C11      1.0000 0.90140  0.72690  0.34470  Biso   1.000  C
  H7       1.0000 0.89690  0.64370  0.32070  Biso   1.000  H
  C12      1.0000 0.17320  0.20020  0.83180  Biso   1.000  C
  C13      1.0000 0.31180  0.25100  0.83260  Biso   1.000  C
  H8       1.0000 0.33570  0.33980  0.84380  Biso   1.000  H
  C14      1.0000 0.41580  0.16680  0.81630  Biso   1.000  C
  C15      1.0000 0.37980  0.03470  0.80300  Biso   1.000  C
  H9       1.0000 0.44820  0.97930  0.79030  Biso   1.000  H
  C16      1.0000 0.24440  0.98370  0.80830  Biso   1.000  C
  C17      1.0000 0.13820  0.06730  0.81970  Biso   1.000  C
  H10      1.0000 0.04420  0.03440  0.81920  Biso   1.000  H
  C18      1.0000 0.05460  0.28800  0.84220  Biso   1.000  C
  C19      1.0000 0.56690  0.21920  0.81000  Biso   1.000  C
  C20      1.0000 0.09690  0.78500  0.81850  Biso   1.000  C
  H11      1.0000 0.08370  0.69720  0.79450  Biso   1.000  H
  H12      1.0000 0.01380  0.83280  0.79690  Biso   1.000  H
  C21      1.0000 0.11290  0.84030  0.02030  Biso   1.000  C
  H13      1.0000 0.11140  0.89310  0.06510  Biso   1.000  H
  C22      1.0000 0.13530  0.67780  0.95080  Biso   1.000  C
  H14      1.0000 0.15050  0.59400  0.93280  Biso   1.000  H
  N1       1.0000 0.79490  0.77590  0.37600  Biso   1.000  N
  N2       1.0000 0.83580  0.89870  0.40620  Biso   1.000  N
  N3       1.0000 0.01450  0.81120  0.35210  Biso   1.000  N
  N4       1.0000 0.10590  0.77770  0.90380  Biso   1.000  N
  N5       1.0000 0.08870  0.88580  0.94900  Biso   1.000  N
  N6       1.0000 0.14020  0.71160  0.02510  Biso   1.000  N
  O1       1.0000 0.74570  0.35650  0.66886  Biso   1.000  O
  O2       1.0000 0.80330  0.50090  0.77140  Biso   1.000  O
  O3       1.0000 0.82320  0.97200  0.72406  Biso   1.000  O
  O4       1.0000 0.69270  0.04300  0.61660  Biso   1.000  O
  O5       1.0000 0.64670  0.62290  0.43378  Biso   1.000  O
  O6       1.0000 0.92580  0.24530  0.81723  Biso   1.000  O
  O7       1.0000 0.08180  0.39710  0.87670  Biso   1.000  O
  O8       1.0000 0.61170  0.32490  0.84750  Biso   1.000  O
  O9       1.0000 0.63170  0.15290  0.76850  Biso   1.000  O
  O10      1.0000 0.22330  0.84840  0.79930  Biso   1.000  O
  Co3      1.0000 0.19752  0.82110  0.29151  Biso   1.000  Co
  Co4      1.0000 0.17828  0.60721  0.13122  Biso   1.000  Co
  C23      1.0000 0.27060  0.41930  0.35600  Biso   1.000  C
  C24      1.0000 0.25550  0.29010  0.32470  Biso   1.000  C
  H15      1.0000 0.22960  0.27340  0.27040  Biso   1.000  H
  C25      1.0000 0.27960  0.18780  0.37560  Biso   1.000  C
  C26      1.0000 0.31590  0.21170  0.45690  Biso   1.000  C
  H16      1.0000 0.33360  0.14270  0.49070  Biso   1.000  H
  C27      1.0000 0.32550  0.34040  0.48700  Biso   1.000  C
  C28      1.0000 0.30490  0.44310  0.43690  Biso   1.000  C
  H17      1.0000 0.31400  0.52870  0.45770  Biso   1.000  H
  C29      1.0000 0.23840  0.52960  0.30070  Biso   1.000  C
  C30      1.0000 0.25540  0.04920  0.34260  Biso   1.000  C
  C31      1.0000 0.34990  0.28150  0.62300  Biso   1.000  C
  H18      1.0000 0.41130  0.21240  0.61250  Biso   1.000  H
  H19      1.0000 0.38900  0.32070  0.67500  Biso   1.000  H
  C32      1.0000 0.03360  0.08630  0.60920  Biso   1.000  C
  H20      1.0000 0.97640  0.00970  0.59450  Biso   1.000  H
  C33      1.0000 0.09860  0.27310  0.65530  Biso   1.000  C
  H21      1.0000 0.10310  0.35630  0.67930  Biso   1.000  H
  C34      1.0000 0.82680  0.79980  0.16820  Biso   1.000  C
  C35      1.0000 0.68820  0.74900  0.16740  Biso   1.000  C
  H22      1.0000 0.66430  0.66020  0.15620  Biso   1.000  H
  C36      1.0000 0.58420  0.83320  0.18370  Biso   1.000  C
  C37      1.0000 0.62020  0.96530  0.19700  Biso   1.000  C
  H23      1.0000 0.55180  0.02070  0.20970  Biso   1.000  H
  C38      1.0000 0.75560  0.01630  0.19170  Biso   1.000  C
  C39      1.0000 0.86180  0.93270  0.18030  Biso   1.000  C
  H24      1.0000 0.95580  0.96560  0.18080  Biso   1.000  H
  C40      1.0000 0.94540  0.71200  0.15780  Biso   1.000  C
  C41      1.0000 0.43310  0.78080  0.19000  Biso   1.000  C
  C42      1.0000 0.90310  0.21500  0.18150  Biso   1.000  C
  H25      1.0000 0.91630  0.30280  0.20550  Biso   1.000  H
  H26      1.0000 0.98620  0.16720  0.20310  Biso   1.000  H
  C43      1.0000 0.88710  0.15970  0.97970  Biso   1.000  C
  H27      1.0000 0.88860  0.10690  0.93490  Biso   1.000  H
  C44      1.0000 0.86470  0.32220  0.04920  Biso   1.000  C
  H28      1.0000 0.84950  0.40600  0.06720  Biso   1.000  H
  N7       1.0000 0.20510  0.22410  0.62400  Biso   1.000  N
  N8       1.0000 0.16420  0.10130  0.59380  Biso   1.000  N
  N9       1.0000 0.98550  0.18880  0.64790  Biso   1.000  N
  N10      1.0000 0.89410  0.22230  0.09620  Biso   1.000  N
  N11      1.0000 0.91130  0.11420  0.05100  Biso   1.000  N
  N12      1.0000 0.85980  0.28840  0.97490  Biso   1.000  N
  O11      1.0000 0.25430  0.64350  0.33114  Biso   1.000  O
  O12      1.0000 0.19670  0.49910  0.22860  Biso   1.000  O
  O13      1.0000 0.17680  0.02800  0.27594  Biso   1.000  O
  O14      1.0000 0.30730  0.95700  0.38340  Biso   1.000  O
  O15      1.0000 0.35330  0.37710  0.56622  Biso   1.000  O
  O16      1.0000 0.07420  0.75470  0.18277  Biso   1.000  O
  O17      1.0000 0.91820  0.60290  0.12330  Biso   1.000  O
  O18      1.0000 0.38830  0.67510  0.15250  Biso   1.000  O
  O19      1.0000 0.36830  0.84710  0.23150  Biso   1.000  O
  O20      1.0000 0.77670  0.15160  0.20070  Biso   1.000  O
