data_image0
_cell_length_a       8.8056
_cell_length_b       17.5516
_cell_length_c       13.9196
_cell_angle_alpha    90
_cell_angle_beta     126.483
_cell_angle_gamma    90

_symmetry_space_group_name_H-M    "P 1"
_symmetry_int_tables_number       1

loop_
  _symmetry_equiv_pos_as_xyz
  'x, y, z'

loop_
  _atom_site_label
  _atom_site_occupancy
  _atom_site_fract_x
  _atom_site_fract_y
  _atom_site_fract_z
  _atom_site_thermal_displace_type
  _atom_site_B_iso_or_equiv
  _atom_site_type_symbol
  Cd1      1.0000 0.38851  0.54739  0.34290  Biso   1.000  Cd
  C1       1.0000 0.53350  0.68280  0.15740  Biso   1.000  C
  C2       1.0000 0.53500  0.76100  0.16150  Biso   1.000  C
  H1       1.0000 0.50720  0.78590  0.20840  Biso   1.000  H
  C3       1.0000 0.57800  0.80310  0.09570  Biso   1.000  C
  C4       1.0000 0.61220  0.76580  0.02300  Biso   1.000  C
  H2       1.0000 0.63930  0.79370  0.97800  Biso   1.000  H
  C5       1.0000 0.60650  0.68760  0.01680  Biso   1.000  C
  C6       1.0000 0.57200  0.64530  0.08570  Biso   1.000  C
  H3       1.0000 0.57450  0.59230  0.08440  Biso   1.000  H
  C7       1.0000 0.48370  0.63500  0.22570  Biso   1.000  C
  C8       1.0000 0.58570  0.88850  0.10110  Biso   1.000  C
  C9       1.0000 0.62480  0.57670  0.92300  Biso   1.000  C
  H4       1.0000 0.61240  0.56340  0.85100  Biso   1.000  H
  H5       1.0000 0.51490  0.55750  0.91550  Biso   1.000  H
  C10      1.0000 0.96390  0.46990  0.17020  Biso   1.000  C
  H6       1.0000 0.00350  0.43130  0.22620  Biso   1.000  H
  C11      1.0000 0.97270  0.56220  0.08270  Biso   1.000  C
  H7       1.0000 0.01320  0.60310  0.06090  Biso   1.000  H
  N1       1.0000 0.79430  0.54220  0.02590  Biso   1.000  N
  N2       1.0000 0.78390  0.48150  0.08210  Biso   1.000  N
  N3       1.0000 0.08550  0.51760  0.17320  Biso   1.000  N
  O1       1.0000 0.53770  0.56800  0.24950  Biso   1.000  O
  O2       1.0000 0.38900  0.66480  0.25460  Biso   1.000  O
  O3       1.0000 0.55960  0.92120  0.16970  Biso   1.000  O
  O4       1.0000 0.62360  0.92508  0.03970  Biso   1.000  O
  O5       1.0000 0.63480  0.65637  0.93670  Biso   1.000  O
  Cd2      1.0000 0.61149  0.04739  0.15710  Biso   1.000  Cd
  C12      1.0000 0.46650  0.18280  0.34260  Biso   1.000  C
  C13      1.0000 0.46500  0.26100  0.33850  Biso   1.000  C
  H8       1.0000 0.49280  0.28590  0.29160  Biso   1.000  H
  C14      1.0000 0.42200  0.30310  0.40430  Biso   1.000  C
  C15      1.0000 0.38780  0.26580  0.47700  Biso   1.000  C
  H9       1.0000 0.36070  0.29370  0.52200  Biso   1.000  H
  C16      1.0000 0.39350  0.18760  0.48320  Biso   1.000  C
  C17      1.0000 0.42800  0.14530  0.41430  Biso   1.000  C
  H10      1.0000 0.42550  0.09230  0.41560  Biso   1.000  H
  C18      1.0000 0.51630  0.13500  0.27430  Biso   1.000  C
  C19      1.0000 0.41430  0.38850  0.39890  Biso   1.000  C
  C20      1.0000 0.37520  0.07670  0.57700  Biso   1.000  C
  H11      1.0000 0.38760  0.06340  0.64900  Biso   1.000  H
  H12      1.0000 0.48510  0.05750  0.58450  Biso   1.000  H
  C21      1.0000 0.03610  0.96990  0.32980  Biso   1.000  C
  H13      1.0000 0.99650  0.93130  0.27380  Biso   1.000  H
  C22      1.0000 0.02730  0.06220  0.41730  Biso   1.000  C
  H14      1.0000 0.98680  0.10310  0.43910  Biso   1.000  H
  N4       1.0000 0.20570  0.04220  0.47410  Biso   1.000  N
  N5       1.0000 0.21610  0.98150  0.41790  Biso   1.000  N
  N6       1.0000 0.91450  0.01760  0.32680  Biso   1.000  N
  O6       1.0000 0.46230  0.06800  0.25050  Biso   1.000  O
  O7       1.0000 0.61100  0.16480  0.24540  Biso   1.000  O
  O8       1.0000 0.44040  0.42120  0.33030  Biso   1.000  O
  O9       1.0000 0.37640  0.42508  0.46030  Biso   1.000  O
  O10      1.0000 0.36520  0.15637  0.56330  Biso   1.000  O
  Cd3      1.0000 0.61149  0.45261  0.65710  Biso   1.000  Cd
  C23      1.0000 0.46650  0.31720  0.84260  Biso   1.000  C
  C24      1.0000 0.46500  0.23900  0.83850  Biso   1.000  C
  H15      1.0000 0.49280  0.21410  0.79160  Biso   1.000  H
  C25      1.0000 0.42200  0.19690  0.90430  Biso   1.000  C
  C26      1.0000 0.38780  0.23420  0.97700  Biso   1.000  C
  H16      1.0000 0.36070  0.20630  0.02200  Biso   1.000  H
  C27      1.0000 0.39350  0.31240  0.98320  Biso   1.000  C
  C28      1.0000 0.42800  0.35470  0.91430  Biso   1.000  C
  H17      1.0000 0.42550  0.40770  0.91560  Biso   1.000  H
  C29      1.0000 0.51630  0.36500  0.77430  Biso   1.000  C
  C30      1.0000 0.41430  0.11150  0.89890  Biso   1.000  C
  C31      1.0000 0.37520  0.42330  0.07700  Biso   1.000  C
  H18      1.0000 0.38760  0.43660  0.14900  Biso   1.000  H
  H19      1.0000 0.48510  0.44250  0.08450  Biso   1.000  H
  C32      1.0000 0.03610  0.53010  0.82980  Biso   1.000  C
  H20      1.0000 0.99650  0.56870  0.77380  Biso   1.000  H
  C33      1.0000 0.02730  0.43780  0.91730  Biso   1.000  C
  H21      1.0000 0.98680  0.39690  0.93910  Biso   1.000  H
  N7       1.0000 0.20570  0.45780  0.97410  Biso   1.000  N
  N8       1.0000 0.21610  0.51850  0.91790  Biso   1.000  N
  N9       1.0000 0.91450  0.48240  0.82680  Biso   1.000  N
  O11      1.0000 0.46230  0.43200  0.75050  Biso   1.000  O
  O12      1.0000 0.61100  0.33520  0.74540  Biso   1.000  O
  O13      1.0000 0.44040  0.07880  0.83030  Biso   1.000  O
  O14      1.0000 0.37640  0.07492  0.96030  Biso   1.000  O
  O15      1.0000 0.36520  0.34363  0.06330  Biso   1.000  O
  Cd4      1.0000 0.38851  0.95261  0.84290  Biso   1.000  Cd
  C34      1.0000 0.53350  0.81720  0.65740  Biso   1.000  C
  C35      1.0000 0.53500  0.73900  0.66150  Biso   1.000  C
  H22      1.0000 0.50720  0.71410  0.70840  Biso   1.000  H
  C36      1.0000 0.57800  0.69690  0.59570  Biso   1.000  C
  C37      1.0000 0.61220  0.73420  0.52300  Biso   1.000  C
  H23      1.0000 0.63930  0.70630  0.47800  Biso   1.000  H
  C38      1.0000 0.60650  0.81240  0.51680  Biso   1.000  C
  C39      1.0000 0.57200  0.85470  0.58570  Biso   1.000  C
  H24      1.0000 0.57450  0.90770  0.58440  Biso   1.000  H
  C40      1.0000 0.48370  0.86500  0.72570  Biso   1.000  C
  C41      1.0000 0.58570  0.61150  0.60110  Biso   1.000  C
  C42      1.0000 0.62480  0.92330  0.42300  Biso   1.000  C
  H25      1.0000 0.61240  0.93660  0.35100  Biso   1.000  H
  H26      1.0000 0.51490  0.94250  0.41550  Biso   1.000  H
  C43      1.0000 0.96390  0.03010  0.67020  Biso   1.000  C
  H27      1.0000 0.00350  0.06870  0.72620  Biso   1.000  H
  C44      1.0000 0.97270  0.93780  0.58270  Biso   1.000  C
  H28      1.0000 0.01320  0.89690  0.56090  Biso   1.000  H
  N10      1.0000 0.79430  0.95780  0.52590  Biso   1.000  N
  N11      1.0000 0.78390  0.01850  0.58210  Biso   1.000  N
  N12      1.0000 0.08550  0.98240  0.67320  Biso   1.000  N
  O16      1.0000 0.53770  0.93200  0.74950  Biso   1.000  O
  O17      1.0000 0.38900  0.83520  0.75460  Biso   1.000  O
  O18      1.0000 0.55960  0.57880  0.66970  Biso   1.000  O
  O19      1.0000 0.62360  0.57492  0.53970  Biso   1.000  O
  O20      1.0000 0.63480  0.84363  0.43670  Biso   1.000  O
