data_image0
_cell_length_a       11.0788
_cell_length_b       12.6965
_cell_length_c       12.7879
_cell_angle_alpha    65.776
_cell_angle_beta     86.62
_cell_angle_gamma    83.387

_symmetry_space_group_name_H-M    "P 1"
_symmetry_int_tables_number       1

loop_
  _symmetry_equiv_pos_as_xyz
  'x, y, z'

loop_
  _atom_site_label
  _atom_site_occupancy
  _atom_site_fract_x
  _atom_site_fract_y
  _atom_site_fract_z
  _atom_site_thermal_displace_type
  _atom_site_B_iso_or_equiv
  _atom_site_type_symbol
  Co1      1.0000 0.75045  0.11533  0.05159  Biso   1.000  Co
  Co2      1.0000 0.10216  0.81873  0.23137  Biso   1.000  Co
  C1       1.0000 0.02390  0.09110  0.29570  Biso   1.000  C
  C2       1.0000 0.94780  0.13630  0.36070  Biso   1.000  C
  H1       1.0000 0.86550  0.15530  0.34400  Biso   1.000  H
  C3       1.0000 0.99390  0.15330  0.45030  Biso   1.000  C
  C4       1.0000 0.11670  0.12500  0.47440  Biso   1.000  C
  H2       1.0000 0.14850  0.13510  0.53510  Biso   1.000  H
  C5       1.0000 0.19180  0.08170  0.40780  Biso   1.000  C
  C6       1.0000 0.14670  0.06360  0.31910  Biso   1.000  C
  H3       1.0000 0.19800  0.03350  0.27570  Biso   1.000  H
  C7       1.0000 0.97050  0.06900  0.20200  Biso   1.000  C
  C8       1.0000 0.90920  0.19190  0.52830  Biso   1.000  C
  C9       1.0000 0.38940  0.98310  0.40200  Biso   1.000  C
  H4       1.0000 0.33950  0.93290  0.38710  Biso   1.000  H
  H5       1.0000 0.44600  0.93450  0.46200  Biso   1.000  H
  C10      1.0000 0.48560  0.14390  0.12430  Biso   1.000  C
  H6       1.0000 0.47240  0.19230  0.04750  Biso   1.000  H
  C11      1.0000 0.57570  0.03760  0.27660  Biso   1.000  C
  H7       1.0000 0.63450  0.99490  0.33110  Biso   1.000  H
  C12      1.0000 0.51050  0.18420  0.76820  Biso   1.000  C
  C13      1.0000 0.40070  0.15380  0.82520  Biso   1.000  C
  H8       1.0000 0.39940  0.11030  0.90410  Biso   1.000  H
  C14      1.0000 0.29370  0.18830  0.76470  Biso   1.000  C
  C15      1.0000 0.29420  0.25680  0.64640  Biso   1.000  C
  H9       1.0000 0.22180  0.28240  0.60620  Biso   1.000  H
  C16      1.0000 0.40440  0.28570  0.59030  Biso   1.000  C
  C17      1.0000 0.51170  0.24920  0.65020  Biso   1.000  C
  H10      1.0000 0.58520  0.26810  0.61150  Biso   1.000  H
  C18      1.0000 0.62990  0.14820  0.83050  Biso   1.000  C
  C19      1.0000 0.17270  0.15490  0.82270  Biso   1.000  C
  C20      1.0000 0.32780  0.35990  0.39770  Biso   1.000  C
  H11      1.0000 0.28480  0.29100  0.43030  Biso   1.000  H
  H12      1.0000 0.36610  0.36270  0.32660  Biso   1.000  H
  C21      1.0000 0.08220  0.56060  0.37820  Biso   1.000  C
  H13      1.0000 0.00390  0.58240  0.39730  Biso   1.000  H
  C22      1.0000 0.24980  0.57020  0.30030  Biso   1.000  C
  H14      1.0000 0.31760  0.59620  0.25430  Biso   1.000  H
  N1       1.0000 0.45680  0.04690  0.29840  Biso   1.000  N
  N2       1.0000 0.39780  0.11540  0.19980  Biso   1.000  N
  N3       1.0000 0.59800  0.09750  0.16640  Biso   1.000  N
  N4       1.0000 0.24160  0.46130  0.37340  Biso   1.000  N
  N5       1.0000 0.13230  0.45380  0.42530  Biso   1.000  N
  N6       1.0000 0.15090  0.63640  0.30090  Biso   1.000  N
  O1       1.0000 0.03940  0.01720  0.15120  Biso   1.000  O
  O2       1.0000 0.86110  0.10440  0.18010  Biso   1.000  O
  O3       1.0000 0.80160  0.22400  0.50160  Biso   1.000  O
  O4       1.0000 0.95780  0.18250  0.61860  Biso   1.000  O
  O5       1.0000 0.31490  0.05830  0.43960  Biso   1.000  O
  O6       1.0000 0.72300  0.14800  0.77060  Biso   1.000  O
  O7       1.0000 0.62520  0.12300  0.93630  Biso   1.000  O
  O8       1.0000 0.17230  0.06360  0.91550  Biso   1.000  O
  O9       1.0000 0.08140  0.22000  0.77550  Biso   1.000  O
  O10      1.0000 0.41790  0.35190  0.47400  Biso   1.000  O
  H15      1.0000 0.07700  0.79600  0.05000  Biso   1.000  H
  O11      1.0000 0.10630  0.84820  0.06270  Biso   1.000  O
  Co3      1.0000 0.24955  0.88467  0.94841  Biso   1.000  Co
  Co4      1.0000 0.89784  0.18127  0.76863  Biso   1.000  Co
  C23      1.0000 0.97610  0.90890  0.70430  Biso   1.000  C
  C24      1.0000 0.05220  0.86370  0.63930  Biso   1.000  C
  H16      1.0000 0.13450  0.84470  0.65600  Biso   1.000  H
  C25      1.0000 0.00610  0.84670  0.54970  Biso   1.000  C
  C26      1.0000 0.88330  0.87500  0.52560  Biso   1.000  C
  H17      1.0000 0.85150  0.86490  0.46490  Biso   1.000  H
  C27      1.0000 0.80820  0.91830  0.59220  Biso   1.000  C
  C28      1.0000 0.85330  0.93640  0.68090  Biso   1.000  C
  H18      1.0000 0.80200  0.96650  0.72430  Biso   1.000  H
  C29      1.0000 0.02950  0.93100  0.79800  Biso   1.000  C
  C30      1.0000 0.09080  0.80810  0.47170  Biso   1.000  C
  C31      1.0000 0.61060  0.01690  0.59800  Biso   1.000  C
  H19      1.0000 0.66050  0.06710  0.61290  Biso   1.000  H
  H20      1.0000 0.55400  0.06550  0.53800  Biso   1.000  H
  C32      1.0000 0.51440  0.85610  0.87570  Biso   1.000  C
  H21      1.0000 0.52760  0.80770  0.95250  Biso   1.000  H
  C33      1.0000 0.42430  0.96240  0.72340  Biso   1.000  C
  H22      1.0000 0.36550  0.00510  0.66890  Biso   1.000  H
  C34      1.0000 0.48950  0.81580  0.23180  Biso   1.000  C
  C35      1.0000 0.59930  0.84620  0.17480  Biso   1.000  C
  H23      1.0000 0.60060  0.88970  0.09590  Biso   1.000  H
  C36      1.0000 0.70630  0.81170  0.23530  Biso   1.000  C
  C37      1.0000 0.70580  0.74320  0.35360  Biso   1.000  C
  H24      1.0000 0.77820  0.71760  0.39380  Biso   1.000  H
  C38      1.0000 0.59560  0.71430  0.40970  Biso   1.000  C
  C39      1.0000 0.48830  0.75080  0.34980  Biso   1.000  C
  H25      1.0000 0.41480  0.73190  0.38850  Biso   1.000  H
  C40      1.0000 0.37010  0.85180  0.16950  Biso   1.000  C
  C41      1.0000 0.82730  0.84510  0.17730  Biso   1.000  C
  C42      1.0000 0.67220  0.64010  0.60230  Biso   1.000  C
  H26      1.0000 0.71520  0.70900  0.56970  Biso   1.000  H
  H27      1.0000 0.63390  0.63730  0.67340  Biso   1.000  H
  C43      1.0000 0.91780  0.43940  0.62180  Biso   1.000  C
  H28      1.0000 0.99610  0.41760  0.60270  Biso   1.000  H
  C44      1.0000 0.75020  0.42980  0.69970  Biso   1.000  C
  H29      1.0000 0.68240  0.40380  0.74570  Biso   1.000  H
  N7       1.0000 0.54320  0.95310  0.70160  Biso   1.000  N
  N8       1.0000 0.60220  0.88460  0.80020  Biso   1.000  N
  N9       1.0000 0.40200  0.90250  0.83360  Biso   1.000  N
  N10      1.0000 0.75840  0.53870  0.62660  Biso   1.000  N
  N11      1.0000 0.86770  0.54620  0.57470  Biso   1.000  N
  N12      1.0000 0.84910  0.36360  0.69910  Biso   1.000  N
  O12      1.0000 0.96060  0.98280  0.84880  Biso   1.000  O
  O13      1.0000 0.13890  0.89560  0.81990  Biso   1.000  O
  O14      1.0000 0.19840  0.77600  0.49840  Biso   1.000  O
  O15      1.0000 0.04220  0.81750  0.38140  Biso   1.000  O
  O16      1.0000 0.68510  0.94170  0.56040  Biso   1.000  O
  O17      1.0000 0.27700  0.85200  0.22940  Biso   1.000  O
  O18      1.0000 0.37480  0.87700  0.06370  Biso   1.000  O
  O19      1.0000 0.82770  0.93640  0.08450  Biso   1.000  O
  O20      1.0000 0.91860  0.78000  0.22450  Biso   1.000  O
  O21      1.0000 0.58210  0.64810  0.52600  Biso   1.000  O
  H30      1.0000 0.92300  0.20400  0.95000  Biso   1.000  H
  O22      1.0000 0.89370  0.15180  0.93730  Biso   1.000  O
  Co5      1.0000 0.00000  0.00000  0.00000  Biso   1.000  Co
