data_image0
_cell_length_a       7.8928
_cell_length_b       13.7693
_cell_length_c       7.4007
_cell_angle_alpha    90
_cell_angle_beta     90
_cell_angle_gamma    90

_symmetry_space_group_name_H-M    "P 1"
_symmetry_int_tables_number       1

loop_
  _symmetry_equiv_pos_as_xyz
  'x, y, z'

loop_
  _atom_site_label
  _atom_site_occupancy
  _atom_site_fract_x
  _atom_site_fract_y
  _atom_site_fract_z
  _atom_site_thermal_displace_type
  _atom_site_B_iso_or_equiv
  _atom_site_type_symbol
  Mg1      1.0000 0.22279  0.16466  0.25959  Biso   1.000  Mg
  O1       1.0000 0.10437  0.26952  0.10876  Biso   1.000  O
  O2       1.0000 0.92947  0.33374  0.90863  Biso   1.000  O
  O3       1.0000 0.31092  0.28599  0.40248  Biso   1.000  O
  O4       1.0000 0.50720  0.35290  0.57870  Biso   1.000  O
  O5       1.0000 0.11838  0.04813  0.11935  Biso   1.000  O
  O6       1.0000 0.13429  0.92851  0.91926  Biso   1.000  O
  C1       1.0000 0.98960  0.26463  0.99560  Biso   1.000  C
  H1       1.0000 0.94300  0.20220  0.97290  Biso   1.000  H
  C2       1.0000 0.44520  0.28458  0.49380  Biso   1.000  C
  H2       1.0000 0.50500  0.22470  0.49780  Biso   1.000  H
  C3       1.0000 0.19400  0.99787  0.00370  Biso   1.000  C
  H3       1.0000 0.30830  0.01470  0.97840  Biso   1.000  H
  Mg2      1.0000 0.27721  0.83534  0.75959  Biso   1.000  Mg
  O7       1.0000 0.39563  0.73048  0.60876  Biso   1.000  O
  O8       1.0000 0.57053  0.66626  0.40863  Biso   1.000  O
  O9       1.0000 0.18908  0.71401  0.90248  Biso   1.000  O
  O10      1.0000 0.99280  0.64710  0.07870  Biso   1.000  O
  O11      1.0000 0.38162  0.95187  0.61935  Biso   1.000  O
  O12      1.0000 0.36571  0.07149  0.41926  Biso   1.000  O
  C4       1.0000 0.51040  0.73537  0.49560  Biso   1.000  C
  H4       1.0000 0.55700  0.79780  0.47290  Biso   1.000  H
  C5       1.0000 0.05480  0.71542  0.99380  Biso   1.000  C
  H5       1.0000 0.99500  0.77530  0.99780  Biso   1.000  H
  C6       1.0000 0.30600  0.00213  0.50370  Biso   1.000  C
  H6       1.0000 0.19170  0.98530  0.47840  Biso   1.000  H
  Mg3      1.0000 0.77721  0.66466  0.24041  Biso   1.000  Mg
  O13      1.0000 0.89563  0.76952  0.39124  Biso   1.000  O
  O14      1.0000 0.07053  0.83374  0.59137  Biso   1.000  O
  O15      1.0000 0.68908  0.78599  0.09752  Biso   1.000  O
  O16      1.0000 0.49280  0.85290  0.92130  Biso   1.000  O
  O17      1.0000 0.88162  0.54813  0.38065  Biso   1.000  O
  O18      1.0000 0.86571  0.42851  0.58074  Biso   1.000  O
  C7       1.0000 0.01040  0.76463  0.50440  Biso   1.000  C
  H7       1.0000 0.05700  0.70220  0.52710  Biso   1.000  H
  C8       1.0000 0.55480  0.78458  0.00620  Biso   1.000  C
  H8       1.0000 0.49500  0.72470  0.00220  Biso   1.000  H
  C9       1.0000 0.80600  0.49787  0.49630  Biso   1.000  C
  H9       1.0000 0.69170  0.51470  0.52160  Biso   1.000  H
  Mg4      1.0000 0.72279  0.33534  0.74041  Biso   1.000  Mg
  O19      1.0000 0.60437  0.23048  0.89124  Biso   1.000  O
  O20      1.0000 0.42947  0.16626  0.09137  Biso   1.000  O
  O21      1.0000 0.81092  0.21401  0.59752  Biso   1.000  O
  O22      1.0000 0.00720  0.14710  0.42130  Biso   1.000  O
  O23      1.0000 0.61838  0.45187  0.88065  Biso   1.000  O
  O24      1.0000 0.63429  0.57149  0.08074  Biso   1.000  O
  C10      1.0000 0.48960  0.23537  0.00440  Biso   1.000  C
  H10      1.0000 0.44300  0.29780  0.02710  Biso   1.000  H
  C11      1.0000 0.94520  0.21542  0.50620  Biso   1.000  C
  H11      1.0000 0.00500  0.27530  0.50220  Biso   1.000  H
  C12      1.0000 0.69400  0.50213  0.99630  Biso   1.000  C
  H12      1.0000 0.80830  0.48530  0.02160  Biso   1.000  H
