data_image0
_cell_length_a       7.8999
_cell_length_b       13.7505
_cell_length_c       7.3829
_cell_angle_alpha    90
_cell_angle_beta     90
_cell_angle_gamma    90

_symmetry_space_group_name_H-M    "P 1"
_symmetry_int_tables_number       1

loop_
  _symmetry_equiv_pos_as_xyz
  'x, y, z'

loop_
  _atom_site_label
  _atom_site_occupancy
  _atom_site_fract_x
  _atom_site_fract_y
  _atom_site_fract_z
  _atom_site_thermal_displace_type
  _atom_site_B_iso_or_equiv
  _atom_site_type_symbol
  Mg1      1.0000 0.22098  0.16484  0.26001  Biso   1.000  Mg
  O1       1.0000 0.10328  0.26967  0.10864  Biso   1.000  O
  O2       1.0000 0.92776  0.33370  0.90761  Biso   1.000  O
  O3       1.0000 0.30787  0.28667  0.40332  Biso   1.000  O
  O4       1.0000 0.50494  0.35375  0.57942  Biso   1.000  O
  O5       1.0000 0.11756  0.04786  0.11992  Biso   1.000  O
  O6       1.0000 0.13469  0.92785  0.91934  Biso   1.000  O
  C1       1.0000 0.98721  0.26418  0.99530  Biso   1.000  C
  H1       1.0000 0.93990  0.20170  0.97370  Biso   1.000  H
  C2       1.0000 0.44413  0.28509  0.49220  Biso   1.000  C
  H2       1.0000 0.50590  0.22580  0.49230  Biso   1.000  H
  C3       1.0000 0.19567  0.99715  0.00550  Biso   1.000  C
  H3       1.0000 0.31080  0.01310  0.98310  Biso   1.000  H
  Mg2      1.0000 0.27902  0.83516  0.76001  Biso   1.000  Mg
  O7       1.0000 0.39672  0.73033  0.60864  Biso   1.000  O
  O8       1.0000 0.57224  0.66630  0.40761  Biso   1.000  O
  O9       1.0000 0.19213  0.71333  0.90332  Biso   1.000  O
  O10      1.0000 0.99506  0.64625  0.07942  Biso   1.000  O
  O11      1.0000 0.38244  0.95214  0.61992  Biso   1.000  O
  O12      1.0000 0.36531  0.07215  0.41934  Biso   1.000  O
  C4       1.0000 0.51279  0.73582  0.49530  Biso   1.000  C
  H4       1.0000 0.56010  0.79830  0.47370  Biso   1.000  H
  C5       1.0000 0.05587  0.71491  0.99220  Biso   1.000  C
  H5       1.0000 0.99410  0.77420  0.99230  Biso   1.000  H
  C6       1.0000 0.30433  0.00285  0.50550  Biso   1.000  C
  H6       1.0000 0.18920  0.98690  0.48310  Biso   1.000  H
  Mg3      1.0000 0.77902  0.66484  0.23999  Biso   1.000  Mg
  O13      1.0000 0.89672  0.76967  0.39136  Biso   1.000  O
  O14      1.0000 0.07224  0.83370  0.59239  Biso   1.000  O
  O15      1.0000 0.69213  0.78667  0.09668  Biso   1.000  O
  O16      1.0000 0.49506  0.85375  0.92058  Biso   1.000  O
  O17      1.0000 0.88244  0.54786  0.38008  Biso   1.000  O
  O18      1.0000 0.86531  0.42785  0.58066  Biso   1.000  O
  C7       1.0000 0.01279  0.76418  0.50470  Biso   1.000  C
  H7       1.0000 0.06010  0.70170  0.52630  Biso   1.000  H
  C8       1.0000 0.55587  0.78509  0.00780  Biso   1.000  C
  H8       1.0000 0.49410  0.72580  0.00770  Biso   1.000  H
  C9       1.0000 0.80433  0.49715  0.49450  Biso   1.000  C
  H9       1.0000 0.68920  0.51310  0.51690  Biso   1.000  H
  Mg4      1.0000 0.72098  0.33516  0.73999  Biso   1.000  Mg
  O19      1.0000 0.60328  0.23033  0.89136  Biso   1.000  O
  O20      1.0000 0.42776  0.16630  0.09239  Biso   1.000  O
  O21      1.0000 0.80787  0.21333  0.59668  Biso   1.000  O
  O22      1.0000 0.00494  0.14625  0.42058  Biso   1.000  O
  O23      1.0000 0.61756  0.45214  0.88008  Biso   1.000  O
  O24      1.0000 0.63469  0.57215  0.08066  Biso   1.000  O
  C10      1.0000 0.48721  0.23582  0.00470  Biso   1.000  C
  H10      1.0000 0.43990  0.29830  0.02630  Biso   1.000  H
  C11      1.0000 0.94413  0.21491  0.50780  Biso   1.000  C
  H11      1.0000 0.00590  0.27420  0.50770  Biso   1.000  H
  C12      1.0000 0.69567  0.50285  0.99450  Biso   1.000  C
  H12      1.0000 0.81080  0.48690  0.01690  Biso   1.000  H
