data_image0
_cell_length_a       7.8888
_cell_length_b       13.7799
_cell_length_c       7.4295
_cell_angle_alpha    90
_cell_angle_beta     90
_cell_angle_gamma    90

_symmetry_space_group_name_H-M    "P 1"
_symmetry_int_tables_number       1

loop_
  _symmetry_equiv_pos_as_xyz
  'x, y, z'

loop_
  _atom_site_label
  _atom_site_occupancy
  _atom_site_fract_x
  _atom_site_fract_y
  _atom_site_fract_z
  _atom_site_thermal_displace_type
  _atom_site_B_iso_or_equiv
  _atom_site_type_symbol
  Mg1      1.0000 0.22587  0.16461  0.25858  Biso   1.000  Mg
  O1       1.0000 0.10763  0.26988  0.10834  Biso   1.000  O
  O2       1.0000 0.93298  0.33405  0.90949  Biso   1.000  O
  O3       1.0000 0.31596  0.28520  0.40169  Biso   1.000  O
  O4       1.0000 0.51044  0.35145  0.57951  Biso   1.000  O
  O5       1.0000 0.12016  0.04889  0.11786  Biso   1.000  O
  O6       1.0000 0.13351  0.92960  0.91832  Biso   1.000  O
  C1       1.0000 0.99310  0.26561  0.99580  Biso   1.000  C
  H1       1.0000 0.94720  0.20460  0.97370  Biso   1.000  H
  C2       1.0000 0.44700  0.28398  0.49510  Biso   1.000  C
  H2       1.0000 0.50360  0.22490  0.50180  Biso   1.000  H
  C3       1.0000 0.19360  0.99842  0.00300  Biso   1.000  C
  H3       1.0000 0.30580  0.01430  0.97840  Biso   1.000  H
  Mg2      1.0000 0.27413  0.83539  0.75858  Biso   1.000  Mg
  O7       1.0000 0.39237  0.73012  0.60834  Biso   1.000  O
  O8       1.0000 0.56702  0.66595  0.40949  Biso   1.000  O
  O9       1.0000 0.18404  0.71480  0.90169  Biso   1.000  O
  O10      1.0000 0.98956  0.64855  0.07951  Biso   1.000  O
  O11      1.0000 0.37984  0.95111  0.61786  Biso   1.000  O
  O12      1.0000 0.36649  0.07040  0.41832  Biso   1.000  O
  C4       1.0000 0.50690  0.73439  0.49580  Biso   1.000  C
  H4       1.0000 0.55280  0.79540  0.47370  Biso   1.000  H
  C5       1.0000 0.05300  0.71602  0.99510  Biso   1.000  C
  H5       1.0000 0.99640  0.77510  0.00180  Biso   1.000  H
  C6       1.0000 0.30640  0.00158  0.50300  Biso   1.000  C
  H6       1.0000 0.19420  0.98570  0.47840  Biso   1.000  H
  Mg3      1.0000 0.77413  0.66461  0.24142  Biso   1.000  Mg
  O13      1.0000 0.89237  0.76988  0.39166  Biso   1.000  O
  O14      1.0000 0.06702  0.83405  0.59051  Biso   1.000  O
  O15      1.0000 0.68404  0.78520  0.09831  Biso   1.000  O
  O16      1.0000 0.48956  0.85145  0.92049  Biso   1.000  O
  O17      1.0000 0.87984  0.54889  0.38214  Biso   1.000  O
  O18      1.0000 0.86649  0.42960  0.58168  Biso   1.000  O
  C7       1.0000 0.00690  0.76561  0.50420  Biso   1.000  C
  H7       1.0000 0.05280  0.70460  0.52630  Biso   1.000  H
  C8       1.0000 0.55300  0.78398  0.00490  Biso   1.000  C
  H8       1.0000 0.49640  0.72490  0.99820  Biso   1.000  H
  C9       1.0000 0.80640  0.49842  0.49700  Biso   1.000  C
  H9       1.0000 0.69420  0.51430  0.52160  Biso   1.000  H
  Mg4      1.0000 0.72587  0.33539  0.74142  Biso   1.000  Mg
  O19      1.0000 0.60763  0.23012  0.89166  Biso   1.000  O
  O20      1.0000 0.43298  0.16595  0.09051  Biso   1.000  O
  O21      1.0000 0.81596  0.21480  0.59831  Biso   1.000  O
  O22      1.0000 0.01044  0.14855  0.42049  Biso   1.000  O
  O23      1.0000 0.62016  0.45111  0.88214  Biso   1.000  O
  O24      1.0000 0.63351  0.57040  0.08168  Biso   1.000  O
  C10      1.0000 0.49310  0.23439  0.00420  Biso   1.000  C
  H10      1.0000 0.44720  0.29540  0.02630  Biso   1.000  H
  C11      1.0000 0.94700  0.21602  0.50490  Biso   1.000  C
  H11      1.0000 0.00360  0.27510  0.49820  Biso   1.000  H
  C12      1.0000 0.69360  0.50158  0.99700  Biso   1.000  C
  H12      1.0000 0.80580  0.48570  0.02160  Biso   1.000  H
