data_image0
_cell_length_a       8.664
_cell_length_b       8.664
_cell_length_c       10.861
_cell_angle_alpha    90
_cell_angle_beta     90
_cell_angle_gamma    120

_symmetry_space_group_name_H-M    "P 1"
_symmetry_int_tables_number       1

loop_
  _symmetry_equiv_pos_as_xyz
  'x, y, z'

loop_
  _atom_site_label
  _atom_site_occupancy
  _atom_site_fract_x
  _atom_site_fract_y
  _atom_site_fract_z
  _atom_site_thermal_displace_type
  _atom_site_B_iso_or_equiv
  _atom_site_type_symbol
  O1       1.0000 0.81124  0.97792  0.93463  Biso   1.000  O
  O2       1.0000 0.19387  0.88208  0.63707  Biso   1.000  O
  C1       1.0000 0.47836  0.94249  0.72677  Biso   1.000  C
  H1       1.0000 0.10025  0.46209  0.00304  Biso   1.000  H
  C2       1.0000 0.31488  0.94006  0.72883  Biso   1.000  C
  O3       1.0000 0.02208  0.83332  0.26796  Biso   1.000  O
  O4       1.0000 0.11792  0.31179  0.97040  Biso   1.000  O
  C3       1.0000 0.05751  0.53587  0.06010  Biso   1.000  C
  H2       1.0000 0.53791  0.63816  0.33637  Biso   1.000  H
  C4       1.0000 0.05994  0.37482  0.06216  Biso   1.000  C
  O5       1.0000 0.16668  0.18876  0.60130  Biso   1.000  O
  O6       1.0000 0.68821  0.80613  0.30374  Biso   1.000  O
  C5       1.0000 0.46413  0.52164  0.39344  Biso   1.000  C
  H3       1.0000 0.36184  0.89975  0.66971  Biso   1.000  H
  C6       1.0000 0.62518  0.68512  0.39550  Biso   1.000  C
  O7       1.0000 0.97792  0.81124  0.06537  Biso   1.000  O
  O8       1.0000 0.88208  0.19387  0.36293  Biso   1.000  O
  C7       1.0000 0.94249  0.47836  0.27323  Biso   1.000  C
  H4       1.0000 0.46209  0.10025  0.99696  Biso   1.000  H
  C8       1.0000 0.94006  0.31488  0.27117  Biso   1.000  C
  O9       1.0000 0.83332  0.02208  0.73204  Biso   1.000  O
  O10      1.0000 0.31179  0.11792  0.02960  Biso   1.000  O
  C9       1.0000 0.53587  0.05751  0.93990  Biso   1.000  C
  H5       1.0000 0.63816  0.53791  0.66363  Biso   1.000  H
  C10      1.0000 0.37482  0.05994  0.93784  Biso   1.000  C
  O11      1.0000 0.18876  0.16668  0.39870  Biso   1.000  O
  O12      1.0000 0.80613  0.68821  0.69626  Biso   1.000  O
  C11      1.0000 0.52164  0.46413  0.60656  Biso   1.000  C
  H6       1.0000 0.89975  0.36184  0.33029  Biso   1.000  H
  C12      1.0000 0.68512  0.62518  0.60450  Biso   1.000  C
  Fe1      1.0000 0.05597  0.05597  0.00000  Biso   1.000  Fe
  Fe2      1.0000 0.94403  0.00000  0.33333  Biso   1.000  Fe
  Fe3      1.0000 0.00000  0.94403  0.66667  Biso   1.000  Fe
  O13      1.0000 0.11330  0.00000  0.83333  Biso   1.000  O
  C13      1.0000 0.75580  0.00000  0.83333  Biso   1.000  C
  C14      1.0000 0.58218  0.00000  0.83333  Biso   1.000  C
  C15      1.0000 0.26950  0.00000  0.83333  Biso   1.000  C
  O14      1.0000 0.00000  0.11330  0.16667  Biso   1.000  O
  C16      1.0000 0.00000  0.75580  0.16667  Biso   1.000  C
  C17      1.0000 0.00000  0.58218  0.16667  Biso   1.000  C
  C18      1.0000 0.00000  0.26950  0.16667  Biso   1.000  C
  O15      1.0000 0.88670  0.88670  0.50000  Biso   1.000  O
  C19      1.0000 0.24420  0.24420  0.50000  Biso   1.000  C
  C20      1.0000 0.41782  0.41782  0.50000  Biso   1.000  C
  C21      1.0000 0.73050  0.73050  0.50000  Biso   1.000  C
