data_image0
_cell_length_a       9.3803
_cell_length_b       10.1395
_cell_length_c       10.9816
_cell_angle_alpha    87.659
_cell_angle_beta     81.273
_cell_angle_gamma    63.599

_symmetry_space_group_name_H-M    "P 1"
_symmetry_int_tables_number       1

loop_
  _symmetry_equiv_pos_as_xyz
  'x, y, z'

loop_
  _atom_site_label
  _atom_site_occupancy
  _atom_site_fract_x
  _atom_site_fract_y
  _atom_site_fract_z
  _atom_site_thermal_displace_type
  _atom_site_B_iso_or_equiv
  _atom_site_type_symbol
  Cd1      1.0000 0.20189  0.37602  0.37999  Biso   1.000  Cd
  Cd2      1.0000 0.40147  0.10063  0.15032  Biso   1.000  Cd
  C1       1.0000 0.97216  0.06691  0.34456  Biso   1.000  C
  C2       1.0000 0.02899  0.91501  0.34987  Biso   1.000  C
  H1       1.0000 0.14040  0.85380  0.33680  Biso   1.000  H
  C3       1.0000 0.92212  0.85260  0.37436  Biso   1.000  C
  C4       1.0000 0.75657  0.94353  0.38615  Biso   1.000  C
  H2       1.0000 0.68390  0.90200  0.39880  Biso   1.000  H
  C5       1.0000 0.69931  0.09563  0.37913  Biso   1.000  C
  C6       1.0000 0.80733  0.15757  0.36346  Biso   1.000  C
  H3       1.0000 0.76850  0.26050  0.36570  Biso   1.000  H
  C7       1.0000 0.09148  0.12950  0.31092  Biso   1.000  C
  C8       1.0000 0.98678  0.68901  0.38585  Biso   1.000  C
  C9       1.0000 0.52289  0.19233  0.38266  Biso   1.000  C
  O1       1.0000 0.21803  0.04463  0.24434  Biso   1.000  O
  O2       1.0000 0.05511  0.25630  0.34903  Biso   1.000  O
  O3       1.0000 0.89057  0.63273  0.41712  Biso   1.000  O
  O4       1.0000 0.13660  0.61285  0.36056  Biso   1.000  O
  O5       1.0000 0.46400  0.32602  0.41155  Biso   1.000  O
  O6       1.0000 0.43587  0.13482  0.35384  Biso   1.000  O
  Cl1      1.0000 0.29976  0.37051  0.12957  Biso   1.000  Cl
  Cl2      1.0000 0.68164  0.94563  0.06398  Biso   1.000  Cl
  Cd3      1.0000 0.79811  0.62398  0.62001  Biso   1.000  Cd
  Cd4      1.0000 0.59853  0.89937  0.84968  Biso   1.000  Cd
  C10      1.0000 0.02784  0.93309  0.65544  Biso   1.000  C
  C11      1.0000 0.97101  0.08499  0.65013  Biso   1.000  C
  H4       1.0000 0.85960  0.14620  0.66320  Biso   1.000  H
  C12      1.0000 0.07788  0.14740  0.62564  Biso   1.000  C
  C13      1.0000 0.24343  0.05647  0.61385  Biso   1.000  C
  H5       1.0000 0.31610  0.09800  0.60120  Biso   1.000  H
  C14      1.0000 0.30069  0.90437  0.62087  Biso   1.000  C
  C15      1.0000 0.19267  0.84243  0.63654  Biso   1.000  C
  H6       1.0000 0.23150  0.73950  0.63430  Biso   1.000  H
  C16      1.0000 0.90852  0.87050  0.68908  Biso   1.000  C
  C17      1.0000 0.01322  0.31099  0.61415  Biso   1.000  C
  C18      1.0000 0.47711  0.80767  0.61734  Biso   1.000  C
  O7       1.0000 0.78197  0.95537  0.75566  Biso   1.000  O
  O8       1.0000 0.94489  0.74370  0.65097  Biso   1.000  O
  O9       1.0000 0.10943  0.36727  0.58288  Biso   1.000  O
  O10      1.0000 0.86340  0.38715  0.63944  Biso   1.000  O
  O11      1.0000 0.53600  0.67398  0.58845  Biso   1.000  O
  O12      1.0000 0.56413  0.86518  0.64616  Biso   1.000  O
  Cl3      1.0000 0.70024  0.62949  0.87043  Biso   1.000  Cl
  Cl4      1.0000 0.31836  0.05437  0.93602  Biso   1.000  Cl
