data_image0
_cell_length_a       12.6139
_cell_length_b       15.7005
_cell_length_c       16.6473
_cell_angle_alpha    90
_cell_angle_beta     90
_cell_angle_gamma    90

_symmetry_space_group_name_H-M    "P 1"
_symmetry_int_tables_number       1

loop_
  _symmetry_equiv_pos_as_xyz
  'x, y, z'

loop_
  _atom_site_label
  _atom_site_occupancy
  _atom_site_fract_x
  _atom_site_fract_y
  _atom_site_fract_z
  _atom_site_thermal_displace_type
  _atom_site_B_iso_or_equiv
  _atom_site_type_symbol
  Cd1      1.0000 0.89942  0.00386  0.58115  Biso   1.000  Cd
  C1       1.0000 0.90338  0.26358  0.90928  Biso   1.000  C
  C2       1.0000 0.80388  0.08980  0.86693  Biso   1.000  C
  H1       1.0000 0.77420  0.03650  0.85780  Biso   1.000  H
  O1       1.0000 0.90817  0.13507  0.67619  Biso   1.000  O
  O2       1.0000 0.97377  0.37538  0.00314  Biso   1.000  O
  O3       1.0000 0.99608  0.40238  0.87339  Biso   1.000  O
  C3       1.0000 0.85954  0.13297  0.81125  Biso   1.000  C
  C4       1.0000 0.96079  0.35424  0.93098  Biso   1.000  C
  C5       1.0000 0.86754  0.08401  0.72909  Biso   1.000  C
  O4       1.0000 0.70677  0.14232  0.05872  Biso   1.000  O
  C6       1.0000 0.84576  0.22031  0.96408  Biso   1.000  C
  H2       1.0000 0.83690  0.24270  0.01540  Biso   1.000  H
  C7       1.0000 0.90788  0.21918  0.83267  Biso   1.000  C
  H3       1.0000 0.94470  0.24660  0.79180  Biso   1.000  H
  C8       1.0000 0.79502  0.13510  0.94269  Biso   1.000  C
  C9       1.0000 0.72928  0.08998  0.99974  Biso   1.000  C
  O5       1.0000 0.83468  0.99731  0.71499  Biso   1.000  O
  O6       1.0000 0.69655  0.00315  0.98289  Biso   1.000  O
  Cd2      1.0000 0.60058  0.99614  0.08115  Biso   1.000  Cd
  C10      1.0000 0.59662  0.73642  0.40928  Biso   1.000  C
  C11      1.0000 0.69612  0.91020  0.36693  Biso   1.000  C
  H4       1.0000 0.72580  0.96350  0.35780  Biso   1.000  H
  O7       1.0000 0.59183  0.86493  0.17619  Biso   1.000  O
  O8       1.0000 0.52623  0.62462  0.50314  Biso   1.000  O
  O9       1.0000 0.50392  0.59762  0.37339  Biso   1.000  O
  C12      1.0000 0.64046  0.86703  0.31125  Biso   1.000  C
  C13      1.0000 0.53921  0.64576  0.43098  Biso   1.000  C
  C14      1.0000 0.63246  0.91599  0.22909  Biso   1.000  C
  O10      1.0000 0.79323  0.85768  0.55872  Biso   1.000  O
  C15      1.0000 0.65424  0.77969  0.46408  Biso   1.000  C
  H5       1.0000 0.66310  0.75730  0.51540  Biso   1.000  H
  C16      1.0000 0.59212  0.78082  0.33267  Biso   1.000  C
  H6       1.0000 0.55530  0.75340  0.29180  Biso   1.000  H
  C17      1.0000 0.70498  0.86490  0.44269  Biso   1.000  C
  C18      1.0000 0.77072  0.91002  0.49974  Biso   1.000  C
  O11      1.0000 0.66532  0.00269  0.21499  Biso   1.000  O
  O12      1.0000 0.80345  0.99685  0.48289  Biso   1.000  O
  Cd3      1.0000 0.10058  0.50386  0.91885  Biso   1.000  Cd
  C19      1.0000 0.09662  0.76358  0.59072  Biso   1.000  C
  C20      1.0000 0.19612  0.58980  0.63307  Biso   1.000  C
  H7       1.0000 0.22580  0.53650  0.64220  Biso   1.000  H
  O13      1.0000 0.09183  0.63507  0.82381  Biso   1.000  O
  O14      1.0000 0.02623  0.87538  0.49686  Biso   1.000  O
  O15      1.0000 0.00392  0.90238  0.62661  Biso   1.000  O
  C21      1.0000 0.14046  0.63297  0.68875  Biso   1.000  C
  C22      1.0000 0.03921  0.85424  0.56902  Biso   1.000  C
  C23      1.0000 0.13246  0.58401  0.77091  Biso   1.000  C
  O16      1.0000 0.29323  0.64232  0.44128  Biso   1.000  O
  C24      1.0000 0.15424  0.72031  0.53592  Biso   1.000  C
  H8       1.0000 0.16310  0.74270  0.48460  Biso   1.000  H
  C25      1.0000 0.09212  0.71918  0.66733  Biso   1.000  C
  H9       1.0000 0.05530  0.74660  0.70820  Biso   1.000  H
  C26      1.0000 0.20498  0.63510  0.55731  Biso   1.000  C
  C27      1.0000 0.27072  0.58998  0.50026  Biso   1.000  C
  O17      1.0000 0.16532  0.49731  0.78501  Biso   1.000  O
  O18      1.0000 0.30345  0.50315  0.51711  Biso   1.000  O
  Cd4      1.0000 0.39942  0.49614  0.41885  Biso   1.000  Cd
  C28      1.0000 0.40338  0.23642  0.09072  Biso   1.000  C
  C29      1.0000 0.30388  0.41020  0.13307  Biso   1.000  C
  H10      1.0000 0.27420  0.46350  0.14220  Biso   1.000  H
  O19      1.0000 0.40817  0.36493  0.32381  Biso   1.000  O
  O20      1.0000 0.47377  0.12462  0.99686  Biso   1.000  O
  O21      1.0000 0.49608  0.09762  0.12661  Biso   1.000  O
  C30      1.0000 0.35954  0.36703  0.18875  Biso   1.000  C
  C31      1.0000 0.46079  0.14576  0.06902  Biso   1.000  C
  C32      1.0000 0.36754  0.41599  0.27091  Biso   1.000  C
  O22      1.0000 0.20677  0.35768  0.94128  Biso   1.000  O
  C33      1.0000 0.34576  0.27969  0.03592  Biso   1.000  C
  H11      1.0000 0.33690  0.25730  0.98460  Biso   1.000  H
  C34      1.0000 0.40788  0.28082  0.16733  Biso   1.000  C
  H12      1.0000 0.44470  0.25340  0.20820  Biso   1.000  H
  C35      1.0000 0.29502  0.36490  0.05731  Biso   1.000  C
  C36      1.0000 0.22928  0.41002  0.00026  Biso   1.000  C
  O23      1.0000 0.33468  0.50269  0.28501  Biso   1.000  O
  O24      1.0000 0.19655  0.49685  0.01711  Biso   1.000  O
  Cd5      1.0000 0.10058  0.99614  0.41885  Biso   1.000  Cd
  C37      1.0000 0.09662  0.73642  0.09072  Biso   1.000  C
  C38      1.0000 0.19612  0.91020  0.13307  Biso   1.000  C
  H13      1.0000 0.22580  0.96350  0.14220  Biso   1.000  H
  O25      1.0000 0.09183  0.86493  0.32381  Biso   1.000  O
  O26      1.0000 0.02623  0.62462  0.99686  Biso   1.000  O
  O27      1.0000 0.00392  0.59762  0.12661  Biso   1.000  O
  C39      1.0000 0.14046  0.86703  0.18875  Biso   1.000  C
  C40      1.0000 0.03921  0.64576  0.06902  Biso   1.000  C
  C41      1.0000 0.13246  0.91599  0.27091  Biso   1.000  C
  O28      1.0000 0.29323  0.85768  0.94128  Biso   1.000  O
  C42      1.0000 0.15424  0.77969  0.03592  Biso   1.000  C
  H14      1.0000 0.16310  0.75730  0.98460  Biso   1.000  H
  C43      1.0000 0.09212  0.78082  0.16733  Biso   1.000  C
  H15      1.0000 0.05530  0.75340  0.20820  Biso   1.000  H
  C44      1.0000 0.20498  0.86490  0.05731  Biso   1.000  C
  C45      1.0000 0.27072  0.91002  0.00026  Biso   1.000  C
  O29      1.0000 0.16532  0.00269  0.28501  Biso   1.000  O
  O30      1.0000 0.30345  0.99685  0.01711  Biso   1.000  O
  Cd6      1.0000 0.39942  0.00386  0.91885  Biso   1.000  Cd
  C46      1.0000 0.40338  0.26358  0.59072  Biso   1.000  C
  C47      1.0000 0.30388  0.08980  0.63307  Biso   1.000  C
  H16      1.0000 0.27420  0.03650  0.64220  Biso   1.000  H
  O31      1.0000 0.40817  0.13507  0.82381  Biso   1.000  O
  O32      1.0000 0.47377  0.37538  0.49686  Biso   1.000  O
  O33      1.0000 0.49608  0.40238  0.62661  Biso   1.000  O
  C48      1.0000 0.35954  0.13297  0.68875  Biso   1.000  C
  C49      1.0000 0.46079  0.35424  0.56902  Biso   1.000  C
  C50      1.0000 0.36754  0.08401  0.77091  Biso   1.000  C
  O34      1.0000 0.20677  0.14232  0.44128  Biso   1.000  O
  C51      1.0000 0.34576  0.22031  0.53592  Biso   1.000  C
  H17      1.0000 0.33690  0.24270  0.48460  Biso   1.000  H
  C52      1.0000 0.40788  0.21918  0.66733  Biso   1.000  C
  H18      1.0000 0.44470  0.24660  0.70820  Biso   1.000  H
  C53      1.0000 0.29502  0.13510  0.55731  Biso   1.000  C
  C54      1.0000 0.22928  0.08998  0.50026  Biso   1.000  C
  O35      1.0000 0.33468  0.99731  0.78501  Biso   1.000  O
  O36      1.0000 0.19655  0.00315  0.51711  Biso   1.000  O
  Cd7      1.0000 0.89942  0.49614  0.08115  Biso   1.000  Cd
  C55      1.0000 0.90338  0.23642  0.40928  Biso   1.000  C
  C56      1.0000 0.80388  0.41020  0.36693  Biso   1.000  C
  H19      1.0000 0.77420  0.46350  0.35780  Biso   1.000  H
  O37      1.0000 0.90817  0.36493  0.17619  Biso   1.000  O
  O38      1.0000 0.97377  0.12462  0.50314  Biso   1.000  O
  O39      1.0000 0.99608  0.09762  0.37339  Biso   1.000  O
  C57      1.0000 0.85954  0.36703  0.31125  Biso   1.000  C
  C58      1.0000 0.96079  0.14576  0.43098  Biso   1.000  C
  C59      1.0000 0.86754  0.41599  0.22909  Biso   1.000  C
  O40      1.0000 0.70677  0.35768  0.55872  Biso   1.000  O
  C60      1.0000 0.84576  0.27969  0.46408  Biso   1.000  C
  H20      1.0000 0.83690  0.25730  0.51540  Biso   1.000  H
  C61      1.0000 0.90788  0.28082  0.33267  Biso   1.000  C
  H21      1.0000 0.94470  0.25340  0.29180  Biso   1.000  H
  C62      1.0000 0.79502  0.36490  0.44269  Biso   1.000  C
  C63      1.0000 0.72928  0.41002  0.49974  Biso   1.000  C
  O41      1.0000 0.83468  0.50269  0.21499  Biso   1.000  O
  O42      1.0000 0.69655  0.49685  0.48289  Biso   1.000  O
  Cd8      1.0000 0.60058  0.50386  0.58115  Biso   1.000  Cd
  C64      1.0000 0.59662  0.76358  0.90928  Biso   1.000  C
  C65      1.0000 0.69612  0.58980  0.86693  Biso   1.000  C
  H22      1.0000 0.72580  0.53650  0.85780  Biso   1.000  H
  O43      1.0000 0.59183  0.63507  0.67619  Biso   1.000  O
  O44      1.0000 0.52623  0.87538  0.00314  Biso   1.000  O
  O45      1.0000 0.50392  0.90238  0.87339  Biso   1.000  O
  C66      1.0000 0.64046  0.63297  0.81125  Biso   1.000  C
  C67      1.0000 0.53921  0.85424  0.93098  Biso   1.000  C
  C68      1.0000 0.63246  0.58401  0.72909  Biso   1.000  C
  O46      1.0000 0.79323  0.64232  0.05872  Biso   1.000  O
  C69      1.0000 0.65424  0.72031  0.96408  Biso   1.000  C
  H23      1.0000 0.66310  0.74270  0.01540  Biso   1.000  H
  C70      1.0000 0.59212  0.71918  0.83267  Biso   1.000  C
  H24      1.0000 0.55530  0.74660  0.79180  Biso   1.000  H
  C71      1.0000 0.70498  0.63510  0.94269  Biso   1.000  C
  C72      1.0000 0.77072  0.58998  0.99974  Biso   1.000  C
  O47      1.0000 0.66532  0.49731  0.71499  Biso   1.000  O
  O48      1.0000 0.80345  0.50315  0.98289  Biso   1.000  O
