data_image0
_cell_length_a       30.317
_cell_length_b       21.295
_cell_length_c       13.384
_cell_angle_alpha    90
_cell_angle_beta     114.19
_cell_angle_gamma    90

_symmetry_space_group_name_H-M    "P 1"
_symmetry_int_tables_number       1

loop_
  _symmetry_equiv_pos_as_xyz
  'x, y, z'

loop_
  _atom_site_label
  _atom_site_occupancy
  _atom_site_fract_x
  _atom_site_fract_y
  _atom_site_fract_z
  _atom_site_thermal_displace_type
  _atom_site_B_iso_or_equiv
  _atom_site_type_symbol
  Mo1      1.0000 0.22533  0.21006  0.37697  Biso   1.000  Mo
  Mo2      1.0000 0.08569  0.15243  0.09841  Biso   1.000  Mo
  Mo3      1.0000 0.33133  0.29776  0.46393  Biso   1.000  Mo
  Mo4      1.0000 0.12530  0.29944  0.26348  Biso   1.000  Mo
  Mo5      1.0000 0.22890  0.36950  0.32448  Biso   1.000  Mo
  Na1      1.0000 0.17790  0.03440  0.25830  Biso   1.000  Na
  Na2      1.0000 0.23370  0.96490  0.50100  Biso   1.000  Na
  Na3      1.0000 0.14190  0.37110  0.00840  Biso   1.000  Na
  Na4      1.0000 0.39340  0.23210  0.26590  Biso   1.000  Na
  O1       1.0000 0.98080  0.29090  0.93470  Biso   1.000  O
  O2       1.0000 0.28425  0.20930  0.38320  Biso   1.000  O
  O3       1.0000 0.20140  0.14100  0.31470  Biso   1.000  O
  O4       1.0000 0.10630  0.21430  0.20000  Biso   1.000  O
  O5       1.0000 0.10500  0.33360  0.13690  Biso   1.000  O
  O6       1.0000 0.19723  0.27170  0.26760  Biso   1.000  O
  O7       1.0000 0.25893  0.30779  0.47040  Biso   1.000  O
  O8       1.0000 0.09878  0.08680  0.17620  Biso   1.000  O
  O9       1.0000 0.20690  0.39400  0.19060  Biso   1.000  O
  O10      1.0000 0.16506  0.24210  0.40700  Biso   1.000  O
  O11      1.0000 0.03399  0.10140  0.96700  Biso   1.000  O
  O12      1.0000 0.16919  0.36540  0.34360  Biso   1.000  O
  O13      1.0000 0.25180  0.43500  0.40030  Biso   1.000  O
  O14      1.0000 0.28721  0.33230  0.32460  Biso   1.000  O
  O15      1.0000 0.37316  0.25940  0.43030  Biso   1.000  O
  O16      1.0000 0.96270  0.05460  0.89040  Biso   1.000  O
  O17      1.0000 0.04206  0.22400  0.98540  Biso   1.000  O
  O18      1.0000 0.15450  0.01880  0.39880  Biso   1.000  O
  O19      1.0000 0.25680  0.00440  0.37050  Biso   1.000  O
  O20      1.0000 0.19970  0.06370  0.11070  Biso   1.000  O
  O21      1.0000 0.31470  0.92170  0.59700  Biso   1.000  O
  O22      1.0000 0.08740  0.30450  0.88400  Biso   1.000  O
  N1       1.0000 0.01221  0.15960  0.12040  Biso   1.000  N
  C1       1.0000 0.00470  0.24770  0.99320  Biso   1.000  C
  C2       1.0000 0.99080  0.22190  0.07910  Biso   1.000  C
  H1       1.0000 0.00080  0.25110  0.13990  Biso   1.000  H
  H2       1.0000 0.95580  0.21840  0.04950  Biso   1.000  H
  C3       1.0000 0.98160  0.10550  0.05880  Biso   1.000  C
  H3       1.0000 0.98720  0.07010  0.10820  Biso   1.000  H
  H4       1.0000 0.94780  0.11710  0.03270  Biso   1.000  H
  C4       1.0000 0.99200  0.08590  0.96350  Biso   1.000  C
  C5       1.0000 0.02270  0.15400  0.23930  Biso   1.000  C
  H5       1.0000 0.04320  0.18870  0.27850  Biso   1.000  H
  H6       1.0000 0.04040  0.11540  0.26760  Biso   1.000  H
  Mo6      1.0000 0.72533  0.71006  0.37697  Biso   1.000  Mo
  Mo7      1.0000 0.58569  0.65243  0.09841  Biso   1.000  Mo
  Mo8      1.0000 0.83133  0.79776  0.46393  Biso   1.000  Mo
  Mo9      1.0000 0.62530  0.79944  0.26348  Biso   1.000  Mo
  Mo10     1.0000 0.72890  0.86950  0.32448  Biso   1.000  Mo
  Na5      1.0000 0.67790  0.53440  0.25830  Biso   1.000  Na
  Na6      1.0000 0.73370  0.46490  0.50100  Biso   1.000  Na
  Na7      1.0000 0.64190  0.87110  0.00840  Biso   1.000  Na
  Na8      1.0000 0.89340  0.73210  0.26590  Biso   1.000  Na
  O23      1.0000 0.48080  0.79090  0.93470  Biso   1.000  O
  O24      1.0000 0.78425  0.70930  0.38320  Biso   1.000  O
  O25      1.0000 0.70140  0.64100  0.31470  Biso   1.000  O
  O26      1.0000 0.60630  0.71430  0.20000  Biso   1.000  O
  O27      1.0000 0.60500  0.83360  0.13690  Biso   1.000  O
  O28      1.0000 0.69723  0.77170  0.26760  Biso   1.000  O
  O29      1.0000 0.75893  0.80779  0.47040  Biso   1.000  O
  O30      1.0000 0.59878  0.58680  0.17620  Biso   1.000  O
  O31      1.0000 0.70690  0.89400  0.19060  Biso   1.000  O
  O32      1.0000 0.66506  0.74210  0.40700  Biso   1.000  O
  O33      1.0000 0.53399  0.60140  0.96700  Biso   1.000  O
  O34      1.0000 0.66919  0.86540  0.34360  Biso   1.000  O
  O35      1.0000 0.75180  0.93500  0.40030  Biso   1.000  O
  O36      1.0000 0.78721  0.83230  0.32460  Biso   1.000  O
  O37      1.0000 0.87316  0.75940  0.43030  Biso   1.000  O
  O38      1.0000 0.46270  0.55460  0.89040  Biso   1.000  O
  O39      1.0000 0.54206  0.72400  0.98540  Biso   1.000  O
  O40      1.0000 0.65450  0.51880  0.39880  Biso   1.000  O
  O41      1.0000 0.75680  0.50440  0.37050  Biso   1.000  O
  O42      1.0000 0.69970  0.56370  0.11070  Biso   1.000  O
  O43      1.0000 0.81470  0.42170  0.59700  Biso   1.000  O
  O44      1.0000 0.58740  0.80450  0.88400  Biso   1.000  O
  N2       1.0000 0.51221  0.65960  0.12040  Biso   1.000  N
  C6       1.0000 0.50470  0.74770  0.99320  Biso   1.000  C
  C7       1.0000 0.49080  0.72190  0.07910  Biso   1.000  C
  H7       1.0000 0.50080  0.75110  0.13990  Biso   1.000  H
  H8       1.0000 0.45580  0.71840  0.04950  Biso   1.000  H
  C8       1.0000 0.48160  0.60550  0.05880  Biso   1.000  C
  H9       1.0000 0.48720  0.57010  0.10820  Biso   1.000  H
  H10      1.0000 0.44780  0.61710  0.03270  Biso   1.000  H
  C9       1.0000 0.49200  0.58590  0.96350  Biso   1.000  C
  C10      1.0000 0.52270  0.65400  0.23930  Biso   1.000  C
  H11      1.0000 0.54320  0.68870  0.27850  Biso   1.000  H
  H12      1.0000 0.54040  0.61540  0.26760  Biso   1.000  H
  Mo11     1.0000 0.77467  0.21006  0.12303  Biso   1.000  Mo
  Mo12     1.0000 0.91431  0.15243  0.40159  Biso   1.000  Mo
  Mo13     1.0000 0.66867  0.29776  0.03607  Biso   1.000  Mo
  Mo14     1.0000 0.87470  0.29944  0.23652  Biso   1.000  Mo
  Mo15     1.0000 0.77110  0.36950  0.17552  Biso   1.000  Mo
  Na9      1.0000 0.82210  0.03440  0.24170  Biso   1.000  Na
  Na10     1.0000 0.76630  0.96490  0.99900  Biso   1.000  Na
  Na11     1.0000 0.85810  0.37110  0.49160  Biso   1.000  Na
  Na12     1.0000 0.60660  0.23210  0.23410  Biso   1.000  Na
  O45      1.0000 0.01920  0.29090  0.56530  Biso   1.000  O
  O46      1.0000 0.71575  0.20930  0.11680  Biso   1.000  O
  O47      1.0000 0.79860  0.14100  0.18530  Biso   1.000  O
  O48      1.0000 0.89370  0.21430  0.30000  Biso   1.000  O
  O49      1.0000 0.89500  0.33360  0.36310  Biso   1.000  O
  O50      1.0000 0.80277  0.27170  0.23240  Biso   1.000  O
  O51      1.0000 0.74107  0.30779  0.02960  Biso   1.000  O
  O52      1.0000 0.90122  0.08680  0.32380  Biso   1.000  O
  O53      1.0000 0.79310  0.39400  0.30940  Biso   1.000  O
  O54      1.0000 0.83494  0.24210  0.09300  Biso   1.000  O
  O55      1.0000 0.96601  0.10140  0.53300  Biso   1.000  O
  O56      1.0000 0.83081  0.36540  0.15640  Biso   1.000  O
  O57      1.0000 0.74820  0.43500  0.09970  Biso   1.000  O
  O58      1.0000 0.71279  0.33230  0.17540  Biso   1.000  O
  O59      1.0000 0.62684  0.25940  0.06970  Biso   1.000  O
  O60      1.0000 0.03730  0.05460  0.60960  Biso   1.000  O
  O61      1.0000 0.95794  0.22400  0.51460  Biso   1.000  O
  O62      1.0000 0.84550  0.01880  0.10120  Biso   1.000  O
  O63      1.0000 0.74320  0.00440  0.12950  Biso   1.000  O
  O64      1.0000 0.80030  0.06370  0.38930  Biso   1.000  O
  O65      1.0000 0.68530  0.92170  0.90300  Biso   1.000  O
  O66      1.0000 0.91260  0.30450  0.61600  Biso   1.000  O
  N3       1.0000 0.98779  0.15960  0.37960  Biso   1.000  N
  C11      1.0000 0.99530  0.24770  0.50680  Biso   1.000  C
  C12      1.0000 0.00920  0.22190  0.42090  Biso   1.000  C
  H13      1.0000 0.99920  0.25110  0.36010  Biso   1.000  H
  H14      1.0000 0.04420  0.21840  0.45050  Biso   1.000  H
  C13      1.0000 0.01840  0.10550  0.44120  Biso   1.000  C
  H15      1.0000 0.01280  0.07010  0.39180  Biso   1.000  H
  H16      1.0000 0.05220  0.11710  0.46730  Biso   1.000  H
  C14      1.0000 0.00800  0.08590  0.53650  Biso   1.000  C
  C15      1.0000 0.97730  0.15400  0.26070  Biso   1.000  C
  H17      1.0000 0.95680  0.18870  0.22150  Biso   1.000  H
  H18      1.0000 0.95960  0.11540  0.23240  Biso   1.000  H
  Mo16     1.0000 0.27467  0.71006  0.12303  Biso   1.000  Mo
  Mo17     1.0000 0.41431  0.65243  0.40159  Biso   1.000  Mo
  Mo18     1.0000 0.16867  0.79776  0.03607  Biso   1.000  Mo
  Mo19     1.0000 0.37470  0.79944  0.23652  Biso   1.000  Mo
  Mo20     1.0000 0.27110  0.86950  0.17552  Biso   1.000  Mo
  Na13     1.0000 0.32210  0.53440  0.24170  Biso   1.000  Na
  Na14     1.0000 0.26630  0.46490  0.99900  Biso   1.000  Na
  Na15     1.0000 0.35810  0.87110  0.49160  Biso   1.000  Na
  Na16     1.0000 0.10660  0.73210  0.23410  Biso   1.000  Na
  O67      1.0000 0.51920  0.79090  0.56530  Biso   1.000  O
  O68      1.0000 0.21575  0.70930  0.11680  Biso   1.000  O
  O69      1.0000 0.29860  0.64100  0.18530  Biso   1.000  O
  O70      1.0000 0.39370  0.71430  0.30000  Biso   1.000  O
  O71      1.0000 0.39500  0.83360  0.36310  Biso   1.000  O
  O72      1.0000 0.30277  0.77170  0.23240  Biso   1.000  O
  O73      1.0000 0.24107  0.80779  0.02960  Biso   1.000  O
  O74      1.0000 0.40122  0.58680  0.32380  Biso   1.000  O
  O75      1.0000 0.29310  0.89400  0.30940  Biso   1.000  O
  O76      1.0000 0.33494  0.74210  0.09300  Biso   1.000  O
  O77      1.0000 0.46601  0.60140  0.53300  Biso   1.000  O
  O78      1.0000 0.33081  0.86540  0.15640  Biso   1.000  O
  O79      1.0000 0.24820  0.93500  0.09970  Biso   1.000  O
  O80      1.0000 0.21279  0.83230  0.17540  Biso   1.000  O
  O81      1.0000 0.12684  0.75940  0.06970  Biso   1.000  O
  O82      1.0000 0.53730  0.55460  0.60960  Biso   1.000  O
  O83      1.0000 0.45794  0.72400  0.51460  Biso   1.000  O
  O84      1.0000 0.34550  0.51880  0.10120  Biso   1.000  O
  O85      1.0000 0.24320  0.50440  0.12950  Biso   1.000  O
  O86      1.0000 0.30030  0.56370  0.38930  Biso   1.000  O
  O87      1.0000 0.18530  0.42170  0.90300  Biso   1.000  O
  O88      1.0000 0.41260  0.80450  0.61600  Biso   1.000  O
  N4       1.0000 0.48779  0.65960  0.37960  Biso   1.000  N
  C16      1.0000 0.49530  0.74770  0.50680  Biso   1.000  C
  C17      1.0000 0.50920  0.72190  0.42090  Biso   1.000  C
  H19      1.0000 0.49920  0.75110  0.36010  Biso   1.000  H
  H20      1.0000 0.54420  0.71840  0.45050  Biso   1.000  H
  C18      1.0000 0.51840  0.60550  0.44120  Biso   1.000  C
  H21      1.0000 0.51280  0.57010  0.39180  Biso   1.000  H
  H22      1.0000 0.55220  0.61710  0.46730  Biso   1.000  H
  C19      1.0000 0.50800  0.58590  0.53650  Biso   1.000  C
  C20      1.0000 0.47730  0.65400  0.26070  Biso   1.000  C
  H23      1.0000 0.45680  0.68870  0.22150  Biso   1.000  H
  H24      1.0000 0.45960  0.61540  0.23240  Biso   1.000  H
  Mo21     1.0000 0.77467  0.78994  0.62303  Biso   1.000  Mo
  Mo22     1.0000 0.91431  0.84757  0.90159  Biso   1.000  Mo
  Mo23     1.0000 0.66867  0.70224  0.53607  Biso   1.000  Mo
  Mo24     1.0000 0.87470  0.70056  0.73652  Biso   1.000  Mo
  Mo25     1.0000 0.77110  0.63050  0.67552  Biso   1.000  Mo
  Na17     1.0000 0.82210  0.96560  0.74170  Biso   1.000  Na
  Na18     1.0000 0.76630  0.03510  0.49900  Biso   1.000  Na
  Na19     1.0000 0.85810  0.62890  0.99160  Biso   1.000  Na
  Na20     1.0000 0.60660  0.76790  0.73410  Biso   1.000  Na
  O89      1.0000 0.01920  0.70910  0.06530  Biso   1.000  O
  O90      1.0000 0.71575  0.79070  0.61680  Biso   1.000  O
  O91      1.0000 0.79860  0.85900  0.68530  Biso   1.000  O
  O92      1.0000 0.89370  0.78570  0.80000  Biso   1.000  O
  O93      1.0000 0.89500  0.66640  0.86310  Biso   1.000  O
  O94      1.0000 0.80277  0.72830  0.73240  Biso   1.000  O
  O95      1.0000 0.74107  0.69221  0.52960  Biso   1.000  O
  O96      1.0000 0.90122  0.91320  0.82380  Biso   1.000  O
  O97      1.0000 0.79310  0.60600  0.80940  Biso   1.000  O
  O98      1.0000 0.83494  0.75790  0.59300  Biso   1.000  O
  O99      1.0000 0.96601  0.89860  0.03300  Biso   1.000  O
  O100     1.0000 0.83081  0.63460  0.65640  Biso   1.000  O
  O101     1.0000 0.74820  0.56500  0.59970  Biso   1.000  O
  O102     1.0000 0.71279  0.66770  0.67540  Biso   1.000  O
  O103     1.0000 0.62684  0.74060  0.56970  Biso   1.000  O
  O104     1.0000 0.03730  0.94540  0.10960  Biso   1.000  O
  O105     1.0000 0.95794  0.77600  0.01460  Biso   1.000  O
  O106     1.0000 0.84550  0.98120  0.60120  Biso   1.000  O
  O107     1.0000 0.74320  0.99560  0.62950  Biso   1.000  O
  O108     1.0000 0.80030  0.93630  0.88930  Biso   1.000  O
  O109     1.0000 0.68530  0.07830  0.40300  Biso   1.000  O
  O110     1.0000 0.91260  0.69550  0.11600  Biso   1.000  O
  N5       1.0000 0.98779  0.84040  0.87960  Biso   1.000  N
  C21      1.0000 0.99530  0.75230  0.00680  Biso   1.000  C
  C22      1.0000 0.00920  0.77810  0.92090  Biso   1.000  C
  H25      1.0000 0.99920  0.74890  0.86010  Biso   1.000  H
  H26      1.0000 0.04420  0.78160  0.95050  Biso   1.000  H
  C23      1.0000 0.01840  0.89450  0.94120  Biso   1.000  C
  H27      1.0000 0.01280  0.92990  0.89180  Biso   1.000  H
  H28      1.0000 0.05220  0.88290  0.96730  Biso   1.000  H
  C24      1.0000 0.00800  0.91410  0.03650  Biso   1.000  C
  C25      1.0000 0.97730  0.84600  0.76070  Biso   1.000  C
  H29      1.0000 0.95680  0.81130  0.72150  Biso   1.000  H
  H30      1.0000 0.95960  0.88460  0.73240  Biso   1.000  H
  Mo26     1.0000 0.27467  0.28994  0.62303  Biso   1.000  Mo
  Mo27     1.0000 0.41431  0.34757  0.90159  Biso   1.000  Mo
  Mo28     1.0000 0.16867  0.20224  0.53607  Biso   1.000  Mo
  Mo29     1.0000 0.37470  0.20056  0.73652  Biso   1.000  Mo
  Mo30     1.0000 0.27110  0.13050  0.67552  Biso   1.000  Mo
  Na21     1.0000 0.32210  0.46560  0.74170  Biso   1.000  Na
  Na22     1.0000 0.26630  0.53510  0.49900  Biso   1.000  Na
  Na23     1.0000 0.35810  0.12890  0.99160  Biso   1.000  Na
  Na24     1.0000 0.10660  0.26790  0.73410  Biso   1.000  Na
  O111     1.0000 0.51920  0.20910  0.06530  Biso   1.000  O
  O112     1.0000 0.21575  0.29070  0.61680  Biso   1.000  O
  O113     1.0000 0.29860  0.35900  0.68530  Biso   1.000  O
  O114     1.0000 0.39370  0.28570  0.80000  Biso   1.000  O
  O115     1.0000 0.39500  0.16640  0.86310  Biso   1.000  O
  O116     1.0000 0.30277  0.22830  0.73240  Biso   1.000  O
  O117     1.0000 0.24107  0.19221  0.52960  Biso   1.000  O
  O118     1.0000 0.40122  0.41320  0.82380  Biso   1.000  O
  O119     1.0000 0.29310  0.10600  0.80940  Biso   1.000  O
  O120     1.0000 0.33494  0.25790  0.59300  Biso   1.000  O
  O121     1.0000 0.46601  0.39860  0.03300  Biso   1.000  O
  O122     1.0000 0.33081  0.13460  0.65640  Biso   1.000  O
  O123     1.0000 0.24820  0.06500  0.59970  Biso   1.000  O
  O124     1.0000 0.21279  0.16770  0.67540  Biso   1.000  O
  O125     1.0000 0.12684  0.24060  0.56970  Biso   1.000  O
  O126     1.0000 0.53730  0.44540  0.10960  Biso   1.000  O
  O127     1.0000 0.45794  0.27600  0.01460  Biso   1.000  O
  O128     1.0000 0.34550  0.48120  0.60120  Biso   1.000  O
  O129     1.0000 0.24320  0.49560  0.62950  Biso   1.000  O
  O130     1.0000 0.30030  0.43630  0.88930  Biso   1.000  O
  O131     1.0000 0.18530  0.57830  0.40300  Biso   1.000  O
  O132     1.0000 0.41260  0.19550  0.11600  Biso   1.000  O
  N6       1.0000 0.48779  0.34040  0.87960  Biso   1.000  N
  C26      1.0000 0.49530  0.25230  0.00680  Biso   1.000  C
  C27      1.0000 0.50920  0.27810  0.92090  Biso   1.000  C
  H31      1.0000 0.49920  0.24890  0.86010  Biso   1.000  H
  H32      1.0000 0.54420  0.28160  0.95050  Biso   1.000  H
  C28      1.0000 0.51840  0.39450  0.94120  Biso   1.000  C
  H33      1.0000 0.51280  0.42990  0.89180  Biso   1.000  H
  H34      1.0000 0.55220  0.38290  0.96730  Biso   1.000  H
  C29      1.0000 0.50800  0.41410  0.03650  Biso   1.000  C
  C30      1.0000 0.47730  0.34600  0.76070  Biso   1.000  C
  H35      1.0000 0.45680  0.31130  0.72150  Biso   1.000  H
  H36      1.0000 0.45960  0.38460  0.73240  Biso   1.000  H
  Mo31     1.0000 0.22533  0.78994  0.87697  Biso   1.000  Mo
  Mo32     1.0000 0.08569  0.84757  0.59841  Biso   1.000  Mo
  Mo33     1.0000 0.33133  0.70224  0.96393  Biso   1.000  Mo
  Mo34     1.0000 0.12530  0.70056  0.76348  Biso   1.000  Mo
  Mo35     1.0000 0.22890  0.63050  0.82448  Biso   1.000  Mo
  Na25     1.0000 0.17790  0.96560  0.75830  Biso   1.000  Na
  Na26     1.0000 0.23370  0.03510  0.00100  Biso   1.000  Na
  Na27     1.0000 0.14190  0.62890  0.50840  Biso   1.000  Na
  Na28     1.0000 0.39340  0.76790  0.76590  Biso   1.000  Na
  O133     1.0000 0.98080  0.70910  0.43470  Biso   1.000  O
  O134     1.0000 0.28425  0.79070  0.88320  Biso   1.000  O
  O135     1.0000 0.20140  0.85900  0.81470  Biso   1.000  O
  O136     1.0000 0.10630  0.78570  0.70000  Biso   1.000  O
  O137     1.0000 0.10500  0.66640  0.63690  Biso   1.000  O
  O138     1.0000 0.19723  0.72830  0.76760  Biso   1.000  O
  O139     1.0000 0.25893  0.69221  0.97040  Biso   1.000  O
  O140     1.0000 0.09878  0.91320  0.67620  Biso   1.000  O
  O141     1.0000 0.20690  0.60600  0.69060  Biso   1.000  O
  O142     1.0000 0.16506  0.75790  0.90700  Biso   1.000  O
  O143     1.0000 0.03399  0.89860  0.46700  Biso   1.000  O
  O144     1.0000 0.16919  0.63460  0.84360  Biso   1.000  O
  O145     1.0000 0.25180  0.56500  0.90030  Biso   1.000  O
  O146     1.0000 0.28721  0.66770  0.82460  Biso   1.000  O
  O147     1.0000 0.37316  0.74060  0.93030  Biso   1.000  O
  O148     1.0000 0.96270  0.94540  0.39040  Biso   1.000  O
  O149     1.0000 0.04206  0.77600  0.48540  Biso   1.000  O
  O150     1.0000 0.15450  0.98120  0.89880  Biso   1.000  O
  O151     1.0000 0.25680  0.99560  0.87050  Biso   1.000  O
  O152     1.0000 0.19970  0.93630  0.61070  Biso   1.000  O
  O153     1.0000 0.31470  0.07830  0.09700  Biso   1.000  O
  O154     1.0000 0.08740  0.69550  0.38400  Biso   1.000  O
  N7       1.0000 0.01221  0.84040  0.62040  Biso   1.000  N
  C31      1.0000 0.00470  0.75230  0.49320  Biso   1.000  C
  C32      1.0000 0.99080  0.77810  0.57910  Biso   1.000  C
  H37      1.0000 0.00080  0.74890  0.63990  Biso   1.000  H
  H38      1.0000 0.95580  0.78160  0.54950  Biso   1.000  H
  C33      1.0000 0.98160  0.89450  0.55880  Biso   1.000  C
  H39      1.0000 0.98720  0.92990  0.60820  Biso   1.000  H
  H40      1.0000 0.94780  0.88290  0.53270  Biso   1.000  H
  C34      1.0000 0.99200  0.91410  0.46350  Biso   1.000  C
  C35      1.0000 0.02270  0.84600  0.73930  Biso   1.000  C
  H41      1.0000 0.04320  0.81130  0.77850  Biso   1.000  H
  H42      1.0000 0.04040  0.88460  0.76760  Biso   1.000  H
  Mo36     1.0000 0.72533  0.28994  0.87697  Biso   1.000  Mo
  Mo37     1.0000 0.58569  0.34757  0.59841  Biso   1.000  Mo
  Mo38     1.0000 0.83133  0.20224  0.96393  Biso   1.000  Mo
  Mo39     1.0000 0.62530  0.20056  0.76348  Biso   1.000  Mo
  Mo40     1.0000 0.72890  0.13050  0.82448  Biso   1.000  Mo
  Na29     1.0000 0.67790  0.46560  0.75830  Biso   1.000  Na
  Na30     1.0000 0.73370  0.53510  0.00100  Biso   1.000  Na
  Na31     1.0000 0.64190  0.12890  0.50840  Biso   1.000  Na
  Na32     1.0000 0.89340  0.26790  0.76590  Biso   1.000  Na
  O155     1.0000 0.48080  0.20910  0.43470  Biso   1.000  O
  O156     1.0000 0.78425  0.29070  0.88320  Biso   1.000  O
  O157     1.0000 0.70140  0.35900  0.81470  Biso   1.000  O
  O158     1.0000 0.60630  0.28570  0.70000  Biso   1.000  O
  O159     1.0000 0.60500  0.16640  0.63690  Biso   1.000  O
  O160     1.0000 0.69723  0.22830  0.76760  Biso   1.000  O
  O161     1.0000 0.75893  0.19221  0.97040  Biso   1.000  O
  O162     1.0000 0.59878  0.41320  0.67620  Biso   1.000  O
  O163     1.0000 0.70690  0.10600  0.69060  Biso   1.000  O
  O164     1.0000 0.66506  0.25790  0.90700  Biso   1.000  O
  O165     1.0000 0.53399  0.39860  0.46700  Biso   1.000  O
  O166     1.0000 0.66919  0.13460  0.84360  Biso   1.000  O
  O167     1.0000 0.75180  0.06500  0.90030  Biso   1.000  O
  O168     1.0000 0.78721  0.16770  0.82460  Biso   1.000  O
  O169     1.0000 0.87316  0.24060  0.93030  Biso   1.000  O
  O170     1.0000 0.46270  0.44540  0.39040  Biso   1.000  O
  O171     1.0000 0.54206  0.27600  0.48540  Biso   1.000  O
  O172     1.0000 0.65450  0.48120  0.89880  Biso   1.000  O
  O173     1.0000 0.75680  0.49560  0.87050  Biso   1.000  O
  O174     1.0000 0.69970  0.43630  0.61070  Biso   1.000  O
  O175     1.0000 0.81470  0.57830  0.09700  Biso   1.000  O
  O176     1.0000 0.58740  0.19550  0.38400  Biso   1.000  O
  N8       1.0000 0.51221  0.34040  0.62040  Biso   1.000  N
  C36      1.0000 0.50470  0.25230  0.49320  Biso   1.000  C
  C37      1.0000 0.49080  0.27810  0.57910  Biso   1.000  C
  H43      1.0000 0.50080  0.24890  0.63990  Biso   1.000  H
  H44      1.0000 0.45580  0.28160  0.54950  Biso   1.000  H
  C38      1.0000 0.48160  0.39450  0.55880  Biso   1.000  C
  H45      1.0000 0.48720  0.42990  0.60820  Biso   1.000  H
  H46      1.0000 0.44780  0.38290  0.53270  Biso   1.000  H
  C39      1.0000 0.49200  0.41410  0.46350  Biso   1.000  C
  C40      1.0000 0.52270  0.34600  0.73930  Biso   1.000  C
  H47      1.0000 0.54320  0.31130  0.77850  Biso   1.000  H
  H48      1.0000 0.54040  0.38460  0.76760  Biso   1.000  H
