data_SIZPAT_charged
_audit_creation_date              2014-07-02
_audit_creation_method            'Materials Studio'
_symmetry_space_group_name_H-M    'P1'
_symmetry_Int_Tables_number       1
_symmetry_cell_setting            triclinic
loop_
_symmetry_equiv_pos_as_xyz
  x,y,z
_cell_length_a                    14.1270
_cell_length_b                    15.5320
_cell_length_c                    16.6450
_cell_angle_alpha                 90.0000
_cell_angle_beta                  90.0000
_cell_angle_gamma                 90.0000
loop_
_atom_site_label
_atom_site_type_symbol
_atom_site_fract_x
_atom_site_fract_y
_atom_site_fract_z
_atom_site_U_iso_or_equiv
_atom_site_adp_type
_atom_site_occupancy
Pr1    Pr    0.10912   0.75000   0.75000   0.01267  Uiso   1.00
Pr2    Pr    0.39088   0.25000   0.25000   0.01267  Uiso   1.00
Pr3    Pr    0.89088   0.25000   0.25000   0.01267  Uiso   1.00
Pr4    Pr    0.60912   0.75000   0.75000   0.01267  Uiso   1.00
Ni1    Ni    0.28648   0.56078   0.88479   0.01267  Uiso   1.00
Ni2    Ni    0.28648   0.93922   0.61521   0.01267  Uiso   1.00
Ni3    Ni    0.21352   0.43922   0.38479   0.01267  Uiso   1.00
Ni4    Ni    0.21352   0.06078   0.11521   0.01267  Uiso   1.00
Ni5    Ni    0.71352   0.43922   0.11521   0.01267  Uiso   1.00
Ni6    Ni    0.71352   0.06078   0.38479   0.01267  Uiso   1.00
Ni7    Ni    0.78648   0.56078   0.61521   0.01267  Uiso   1.00
Ni8    Ni    0.78648   0.93922   0.88479   0.01267  Uiso   1.00
H1     H     0.09720   0.73560   0.57360   0.01267  Uiso   1.00
H2     H     0.00850   0.77370   0.59600   0.01267  Uiso   1.00
H3     H     0.29670   0.75710   0.66720   0.01267  Uiso   1.00
H4     H     0.24460   0.69150   0.62510   0.01267  Uiso   1.00
H5     H     0.22240   0.45710   0.69100   0.01267  Uiso   1.00
H6     H     0.17890   0.43530   0.77560   0.01267  Uiso   1.00
H7     H     0.42860   0.49710   0.71690   0.01267  Uiso   1.00
H8     H     0.34300   0.54730   0.67980   0.01267  Uiso   1.00
H9     H     0.30180   0.37100   0.83690   0.01267  Uiso   1.00
H10    H     0.37840   0.37400   0.76850   0.01267  Uiso   1.00
H11    H     0.47770   0.45710   0.84870   0.01267  Uiso   1.00
H12    H     0.45140   0.37270   0.89580   0.01267  Uiso   1.00
H13    H     0.35360   0.36550   0.99290   0.01267  Uiso   1.00
H14    H     0.34950   0.44340   0.05250   0.01267  Uiso   1.00
H15    H     0.49300   0.56490   0.94140   0.01267  Uiso   1.00
H16    H     0.43450   0.56420   0.02130   0.01267  Uiso   1.00
H17    H     0.09720   0.76440   0.92640   0.01267  Uiso   1.00
H18    H     0.00850   0.72630   0.90400   0.01267  Uiso   1.00
H19    H     0.29670   0.74290   0.83280   0.01267  Uiso   1.00
H20    H     0.24460   0.80850   0.87490   0.01267  Uiso   1.00
H21    H     0.22240   0.04290   0.80900   0.01267  Uiso   1.00
H22    H     0.17890   0.06470   0.72440   0.01267  Uiso   1.00
H23    H     0.42860   0.00290   0.78310   0.01267  Uiso   1.00
H24    H     0.34300   0.95270   0.82020   0.01267  Uiso   1.00
H25    H     0.30180   0.12900   0.66310   0.01267  Uiso   1.00
H26    H     0.37840   0.12600   0.73150   0.01267  Uiso   1.00
H27    H     0.47770   0.04290   0.65130   0.01267  Uiso   1.00
H28    H     0.45140   0.12730   0.60420   0.01267  Uiso   1.00
H29    H     0.35360   0.13450   0.50710   0.01267  Uiso   1.00
H30    H     0.34950   0.05660   0.44750   0.01267  Uiso   1.00
H31    H     0.49300   0.93510   0.55860   0.01267  Uiso   1.00
H32    H     0.43450   0.93580   0.47870   0.01267  Uiso   1.00
H33    H     0.40280   0.26440   0.07360   0.01267  Uiso   1.00
H34    H     0.49150   0.22630   0.09600   0.01267  Uiso   1.00
H35    H     0.20330   0.24290   0.16720   0.01267  Uiso   1.00
H36    H     0.25540   0.30850   0.12510   0.01267  Uiso   1.00
H37    H     0.27760   0.54290   0.19100   0.01267  Uiso   1.00
H38    H     0.32110   0.56470   0.27560   0.01267  Uiso   1.00
H39    H     0.07140   0.50290   0.21690   0.01267  Uiso   1.00
H40    H     0.15700   0.45270   0.17980   0.01267  Uiso   1.00
H41    H     0.19820   0.62900   0.33690   0.01267  Uiso   1.00
H42    H     0.12160   0.62600   0.26850   0.01267  Uiso   1.00
H43    H     0.02230   0.54290   0.34870   0.01267  Uiso   1.00
H44    H     0.04860   0.62730   0.39580   0.01267  Uiso   1.00
H45    H     0.14640   0.63450   0.49290   0.01267  Uiso   1.00
H46    H     0.15050   0.55660   0.55250   0.01267  Uiso   1.00
H47    H     0.00700   0.43510   0.44140   0.01267  Uiso   1.00
H48    H     0.06550   0.43580   0.52130   0.01267  Uiso   1.00
H49    H     0.40280   0.23560   0.42640   0.01267  Uiso   1.00
H50    H     0.49150   0.27370   0.40400   0.01267  Uiso   1.00
H51    H     0.20330   0.25710   0.33280   0.01267  Uiso   1.00
H52    H     0.25540   0.19150   0.37490   0.01267  Uiso   1.00
H53    H     0.27760   0.95710   0.30900   0.01267  Uiso   1.00
H54    H     0.32110   0.93530   0.22440   0.01267  Uiso   1.00
H55    H     0.07140   0.99710   0.28310   0.01267  Uiso   1.00
H56    H     0.15700   0.04730   0.32020   0.01267  Uiso   1.00
H57    H     0.19820   0.87100   0.16310   0.01267  Uiso   1.00
H58    H     0.12160   0.87400   0.23150   0.01267  Uiso   1.00
H59    H     0.02230   0.95710   0.15130   0.01267  Uiso   1.00
H60    H     0.04860   0.87270   0.10420   0.01267  Uiso   1.00
H61    H     0.14640   0.86550   0.00710   0.01267  Uiso   1.00
H62    H     0.15050   0.94340   0.94750   0.01267  Uiso   1.00
H63    H     0.00700   0.06490   0.05860   0.01267  Uiso   1.00
H64    H     0.06550   0.06420   0.97870   0.01267  Uiso   1.00
H65    H     0.90280   0.26440   0.42640   0.01267  Uiso   1.00
H66    H     0.99150   0.22630   0.40400   0.01267  Uiso   1.00
H67    H     0.70330   0.24290   0.33280   0.01267  Uiso   1.00
H68    H     0.75540   0.30850   0.37490   0.01267  Uiso   1.00
H69    H     0.77760   0.54290   0.30900   0.01267  Uiso   1.00
H70    H     0.82110   0.56470   0.22440   0.01267  Uiso   1.00
H71    H     0.57140   0.50290   0.28310   0.01267  Uiso   1.00
H72    H     0.65700   0.45270   0.32020   0.01267  Uiso   1.00
H73    H     0.69820   0.62900   0.16310   0.01267  Uiso   1.00
H74    H     0.62160   0.62600   0.23150   0.01267  Uiso   1.00
H75    H     0.52230   0.54290   0.15130   0.01267  Uiso   1.00
H76    H     0.54860   0.62730   0.10420   0.01267  Uiso   1.00
H77    H     0.64640   0.63450   0.00710   0.01267  Uiso   1.00
H78    H     0.65050   0.55660   0.94750   0.01267  Uiso   1.00
H79    H     0.50700   0.43510   0.05860   0.01267  Uiso   1.00
H80    H     0.56550   0.43580   0.97870   0.01267  Uiso   1.00
H81    H     0.90280   0.23560   0.07360   0.01267  Uiso   1.00
H82    H     0.99150   0.27370   0.09600   0.01267  Uiso   1.00
H83    H     0.70330   0.25710   0.16720   0.01267  Uiso   1.00
H84    H     0.75540   0.19150   0.12510   0.01267  Uiso   1.00
H85    H     0.77760   0.95710   0.19100   0.01267  Uiso   1.00
H86    H     0.82110   0.93530   0.27560   0.01267  Uiso   1.00
H87    H     0.57140   0.99710   0.21690   0.01267  Uiso   1.00
H88    H     0.65700   0.04730   0.17980   0.01267  Uiso   1.00
H89    H     0.69820   0.87100   0.33690   0.01267  Uiso   1.00
H90    H     0.62160   0.87400   0.26850   0.01267  Uiso   1.00
H91    H     0.52230   0.95710   0.34870   0.01267  Uiso   1.00
H92    H     0.54860   0.87270   0.39580   0.01267  Uiso   1.00
H93    H     0.64640   0.86550   0.49290   0.01267  Uiso   1.00
H94    H     0.65050   0.94340   0.55250   0.01267  Uiso   1.00
H95    H     0.50700   0.06490   0.44140   0.01267  Uiso   1.00
H96    H     0.56550   0.06420   0.52130   0.01267  Uiso   1.00
H97    H     0.59720   0.73560   0.92640   0.01267  Uiso   1.00
H98    H     0.50850   0.77370   0.90400   0.01267  Uiso   1.00
H99    H     0.79670   0.75710   0.83280   0.01267  Uiso   1.00
H100   H     0.74460   0.69150   0.87490   0.01267  Uiso   1.00
H101   H     0.72240   0.45710   0.80900   0.01267  Uiso   1.00
H102   H     0.67890   0.43530   0.72440   0.01267  Uiso   1.00
H103   H     0.92860   0.49710   0.78310   0.01267  Uiso   1.00
H104   H     0.84300   0.54730   0.82020   0.01267  Uiso   1.00
H105   H     0.80180   0.37100   0.66310   0.01267  Uiso   1.00
H106   H     0.87840   0.37400   0.73150   0.01267  Uiso   1.00
H107   H     0.97770   0.45710   0.65130   0.01267  Uiso   1.00
H108   H     0.95140   0.37270   0.60420   0.01267  Uiso   1.00
H109   H     0.85360   0.36550   0.50710   0.01267  Uiso   1.00
H110   H     0.84950   0.44340   0.44750   0.01267  Uiso   1.00
H111   H     0.99300   0.56490   0.55860   0.01267  Uiso   1.00
H112   H     0.93450   0.56420   0.47870   0.01267  Uiso   1.00
H113   H     0.59720   0.76440   0.57360   0.01267  Uiso   1.00
H114   H     0.50850   0.72630   0.59600   0.01267  Uiso   1.00
H115   H     0.79670   0.74290   0.66720   0.01267  Uiso   1.00
H116   H     0.74460   0.80850   0.62510   0.01267  Uiso   1.00
H117   H     0.72240   0.04290   0.69100   0.01267  Uiso   1.00
H118   H     0.67890   0.06470   0.77560   0.01267  Uiso   1.00
H119   H     0.92860   0.00290   0.71690   0.01267  Uiso   1.00
H120   H     0.84300   0.95270   0.67980   0.01267  Uiso   1.00
H121   H     0.80180   0.12900   0.83690   0.01267  Uiso   1.00
H122   H     0.87840   0.12600   0.76850   0.01267  Uiso   1.00
H123   H     0.97770   0.04290   0.84870   0.01267  Uiso   1.00
H124   H     0.95140   0.12730   0.89580   0.01267  Uiso   1.00
H125   H     0.85360   0.13450   0.99290   0.01267  Uiso   1.00
H126   H     0.84950   0.05660   0.05250   0.01267  Uiso   1.00
H127   H     0.99300   0.93510   0.94140   0.01267  Uiso   1.00
H128   H     0.93450   0.93580   0.02130   0.01267  Uiso   1.00
C1     C     0.16720   0.56370   0.74730   0.01267  Uiso   1.00
C2     C     0.21600   0.47710   0.74590   0.01267  Uiso   1.00
C3     C     0.37540   0.53420   0.72970   0.01267  Uiso   1.00
C4     C     0.41300   0.61730   0.76520   0.01267  Uiso   1.00
C5     C     0.35090   0.40610   0.81270   0.01267  Uiso   1.00
C6     C     0.42620   0.42610   0.87430   0.01267  Uiso   1.00
C7     C     0.33340   0.42490   0.99860   0.01267  Uiso   1.00
C8     C     0.22770   0.42890   0.98880   0.01267  Uiso   1.00
C9     C     0.46280   0.52770   0.98060   0.01267  Uiso   1.00
C10    C     0.23480   0.65980   0.02990   0.01267  Uiso   1.00
C11    C     0.16720   0.93630   0.75270   0.01267  Uiso   1.00
C12    C     0.21600   0.02290   0.75410   0.01267  Uiso   1.00
C13    C     0.37540   0.96580   0.77030   0.01267  Uiso   1.00
C14    C     0.41300   0.88270   0.73480   0.01267  Uiso   1.00
C15    C     0.35090   0.09390   0.68730   0.01267  Uiso   1.00
C16    C     0.42620   0.07390   0.62570   0.01267  Uiso   1.00
C17    C     0.33340   0.07510   0.50140   0.01267  Uiso   1.00
C18    C     0.22770   0.07110   0.51120   0.01267  Uiso   1.00
C19    C     0.46280   0.97230   0.51940   0.01267  Uiso   1.00
C20    C     0.23480   0.84020   0.47010   0.01267  Uiso   1.00
C21    C     0.33280   0.43630   0.24730   0.01267  Uiso   1.00
C22    C     0.28400   0.52290   0.24590   0.01267  Uiso   1.00
C23    C     0.12460   0.46580   0.22970   0.01267  Uiso   1.00
C24    C     0.08700   0.38270   0.26520   0.01267  Uiso   1.00
C25    C     0.14910   0.59390   0.31270   0.01267  Uiso   1.00
C26    C     0.07380   0.57390   0.37430   0.01267  Uiso   1.00
C27    C     0.16660   0.57510   0.49860   0.01267  Uiso   1.00
C28    C     0.27230   0.57110   0.48880   0.01267  Uiso   1.00
C29    C     0.03720   0.47230   0.48060   0.01267  Uiso   1.00
C30    C     0.26520   0.34020   0.52990   0.01267  Uiso   1.00
C31    C     0.33280   0.06370   0.25270   0.01267  Uiso   1.00
C32    C     0.28400   0.97710   0.25410   0.01267  Uiso   1.00
C33    C     0.12460   0.03420   0.27030   0.01267  Uiso   1.00
C34    C     0.08700   0.11730   0.23480   0.01267  Uiso   1.00
C35    C     0.14910   0.90610   0.18730   0.01267  Uiso   1.00
C36    C     0.07380   0.92610   0.12570   0.01267  Uiso   1.00
C37    C     0.16660   0.92490   0.00140   0.01267  Uiso   1.00
C38    C     0.27230   0.92890   0.01120   0.01267  Uiso   1.00
C39    C     0.03720   0.02770   0.01940   0.01267  Uiso   1.00
C40    C     0.26520   0.15980   0.97010   0.01267  Uiso   1.00
C41    C     0.83280   0.43630   0.25270   0.01267  Uiso   1.00
C42    C     0.78400   0.52290   0.25410   0.01267  Uiso   1.00
C43    C     0.62460   0.46580   0.27030   0.01267  Uiso   1.00
C44    C     0.58700   0.38270   0.23480   0.01267  Uiso   1.00
C45    C     0.64910   0.59390   0.18730   0.01267  Uiso   1.00
C46    C     0.57380   0.57390   0.12570   0.01267  Uiso   1.00
C47    C     0.66660   0.57510   0.00140   0.01267  Uiso   1.00
C48    C     0.77230   0.57110   0.01120   0.01267  Uiso   1.00
C49    C     0.53720   0.47230   0.01940   0.01267  Uiso   1.00
C50    C     0.76520   0.34020   0.97010   0.01267  Uiso   1.00
C51    C     0.83280   0.06370   0.24730   0.01267  Uiso   1.00
C52    C     0.78400   0.97710   0.24590   0.01267  Uiso   1.00
C53    C     0.62460   0.03420   0.22970   0.01267  Uiso   1.00
C54    C     0.58700   0.11730   0.26520   0.01267  Uiso   1.00
C55    C     0.64910   0.90610   0.31270   0.01267  Uiso   1.00
C56    C     0.57380   0.92610   0.37430   0.01267  Uiso   1.00
C57    C     0.66660   0.92490   0.49860   0.01267  Uiso   1.00
C58    C     0.77230   0.92890   0.48880   0.01267  Uiso   1.00
C59    C     0.53720   0.02770   0.48060   0.01267  Uiso   1.00
C60    C     0.76520   0.15980   0.52990   0.01267  Uiso   1.00
C61    C     0.66720   0.56370   0.75270   0.01267  Uiso   1.00
C62    C     0.71600   0.47710   0.75410   0.01267  Uiso   1.00
C63    C     0.87540   0.53420   0.77030   0.01267  Uiso   1.00
C64    C     0.91300   0.61730   0.73480   0.01267  Uiso   1.00
C65    C     0.85090   0.40610   0.68730   0.01267  Uiso   1.00
C66    C     0.92620   0.42610   0.62570   0.01267  Uiso   1.00
C67    C     0.83340   0.42490   0.50140   0.01267  Uiso   1.00
C68    C     0.72770   0.42890   0.51120   0.01267  Uiso   1.00
C69    C     0.96280   0.52770   0.51940   0.01267  Uiso   1.00
C70    C     0.73480   0.65980   0.47010   0.01267  Uiso   1.00
C71    C     0.66720   0.93630   0.74730   0.01267  Uiso   1.00
C72    C     0.71600   0.02290   0.74590   0.01267  Uiso   1.00
C73    C     0.87540   0.96580   0.72970   0.01267  Uiso   1.00
C74    C     0.91300   0.88270   0.76520   0.01267  Uiso   1.00
C75    C     0.85090   0.09390   0.81270   0.01267  Uiso   1.00
C76    C     0.92620   0.07390   0.87430   0.01267  Uiso   1.00
C77    C     0.83340   0.07510   0.99860   0.01267  Uiso   1.00
C78    C     0.72770   0.07110   0.98880   0.01267  Uiso   1.00
C79    C     0.96280   0.97230   0.98060   0.01267  Uiso   1.00
C80    C     0.73480   0.84020   0.02990   0.01267  Uiso   1.00
S1     S     0.18500   0.70100   0.11700   0.01267  Uiso   1.00
S2     S     0.18500   0.79900   0.38300   0.01267  Uiso   1.00
S3     S     0.31500   0.29900   0.61700   0.01267  Uiso   1.00
S4     S     0.31500   0.20100   0.88300   0.01267  Uiso   1.00
S5     S     0.81500   0.29900   0.88300   0.01267  Uiso   1.00
S6     S     0.81500   0.20100   0.61700   0.01267  Uiso   1.00
S7     S     0.68500   0.70100   0.38300   0.01267  Uiso   1.00
S8     S     0.68500   0.79900   0.11700   0.01267  Uiso   1.00
N1     N     0.30990   0.48680   0.78280   0.01267  Uiso   1.00
N2     N     0.38710   0.47840   0.94030   0.01267  Uiso   1.00
N3     N     0.26780   0.63930   0.97510   0.01267  Uiso   1.00
N4     N     0.30990   0.01320   0.71720   0.01267  Uiso   1.00
N5     N     0.38710   0.02160   0.55970   0.01267  Uiso   1.00
N6     N     0.26780   0.86070   0.52490   0.01267  Uiso   1.00
N7     N     0.19010   0.51320   0.28280   0.01267  Uiso   1.00
N8     N     0.11290   0.52160   0.44030   0.01267  Uiso   1.00
N9     N     0.23220   0.36070   0.47510   0.01267  Uiso   1.00
N10    N     0.19010   0.98680   0.21720   0.01267  Uiso   1.00
N11    N     0.11290   0.97840   0.05970   0.01267  Uiso   1.00
N12    N     0.23220   0.13930   0.02490   0.01267  Uiso   1.00
N13    N     0.69010   0.51320   0.21720   0.01267  Uiso   1.00
N14    N     0.61290   0.52160   0.05970   0.01267  Uiso   1.00
N15    N     0.73220   0.36070   0.02490   0.01267  Uiso   1.00
N16    N     0.69010   0.98680   0.28280   0.01267  Uiso   1.00
N17    N     0.61290   0.97840   0.44030   0.01267  Uiso   1.00
N18    N     0.73220   0.13930   0.47510   0.01267  Uiso   1.00
N19    N     0.80990   0.48680   0.71720   0.01267  Uiso   1.00
N20    N     0.88710   0.47840   0.55970   0.01267  Uiso   1.00
N21    N     0.76780   0.63930   0.52490   0.01267  Uiso   1.00
N22    N     0.80990   0.01320   0.78280   0.01267  Uiso   1.00
N23    N     0.88710   0.02160   0.94030   0.01267  Uiso   1.00
N24    N     0.76780   0.86070   0.97510   0.01267  Uiso   1.00
O1     O     0.18220   0.61170   0.80870   0.01267  Uiso   1.00
O2     O     0.11670   0.58680   0.69090   0.01267  Uiso   1.00
O3     O     0.38530   0.63980   0.83410   0.01267  Uiso   1.00
O4     O     0.47000   0.65830   0.72370   0.01267  Uiso   1.00
O5     O     0.19360   0.47460   0.93400   0.01267  Uiso   1.00
O6     O     0.18140   0.38590   0.03820   0.01267  Uiso   1.00
O7     O     0.05120   0.73770   0.60690   0.01267  Uiso   1.00
O8     O     0.25710   0.71740   0.66840   0.01267  Uiso   1.00
O9     O     0.18220   0.88830   0.69130   0.01267  Uiso   1.00
O10    O     0.11670   0.91320   0.80910   0.01267  Uiso   1.00
O11    O     0.38530   0.86020   0.66590   0.01267  Uiso   1.00
O12    O     0.47000   0.84170   0.77630   0.01267  Uiso   1.00
O13    O     0.19360   0.02540   0.56600   0.01267  Uiso   1.00
O14    O     0.18140   0.11410   0.46180   0.01267  Uiso   1.00
O15    O     0.05120   0.76230   0.89310   0.01267  Uiso   1.00
O16    O     0.25710   0.78260   0.83160   0.01267  Uiso   1.00
O17    O     0.31780   0.38830   0.30870   0.01267  Uiso   1.00
O18    O     0.38330   0.41320   0.19090   0.01267  Uiso   1.00
O19    O     0.11470   0.36020   0.33410   0.01267  Uiso   1.00
O20    O     0.03000   0.34170   0.22370   0.01267  Uiso   1.00
O21    O     0.30640   0.52540   0.43400   0.01267  Uiso   1.00
O22    O     0.31860   0.61410   0.53820   0.01267  Uiso   1.00
O23    O     0.44880   0.26230   0.10690   0.01267  Uiso   1.00
O24    O     0.24290   0.28260   0.16840   0.01267  Uiso   1.00
O25    O     0.31780   0.11170   0.19130   0.01267  Uiso   1.00
O26    O     0.38330   0.08680   0.30910   0.01267  Uiso   1.00
O27    O     0.11470   0.13980   0.16590   0.01267  Uiso   1.00
O28    O     0.03000   0.15830   0.27630   0.01267  Uiso   1.00
O29    O     0.30640   0.97460   0.06600   0.01267  Uiso   1.00
O30    O     0.31860   0.88590   0.96180   0.01267  Uiso   1.00
O31    O     0.44880   0.23770   0.39310   0.01267  Uiso   1.00
O32    O     0.24290   0.21740   0.33160   0.01267  Uiso   1.00
O33    O     0.81780   0.38830   0.19130   0.01267  Uiso   1.00
O34    O     0.88330   0.41320   0.30910   0.01267  Uiso   1.00
O35    O     0.61470   0.36020   0.16590   0.01267  Uiso   1.00
O36    O     0.53000   0.34170   0.27630   0.01267  Uiso   1.00
O37    O     0.80640   0.52540   0.06600   0.01267  Uiso   1.00
O38    O     0.81860   0.61410   0.96180   0.01267  Uiso   1.00
O39    O     0.94880   0.26230   0.39310   0.01267  Uiso   1.00
O40    O     0.74290   0.28260   0.33160   0.01267  Uiso   1.00
O41    O     0.81780   0.11170   0.30870   0.01267  Uiso   1.00
O42    O     0.88330   0.08680   0.19090   0.01267  Uiso   1.00
O43    O     0.61470   0.13980   0.33410   0.01267  Uiso   1.00
O44    O     0.53000   0.15830   0.22370   0.01267  Uiso   1.00
O45    O     0.80640   0.97460   0.43400   0.01267  Uiso   1.00
O46    O     0.81860   0.88590   0.53820   0.01267  Uiso   1.00
O47    O     0.94880   0.23770   0.10690   0.01267  Uiso   1.00
O48    O     0.74290   0.21740   0.16840   0.01267  Uiso   1.00
O49    O     0.68220   0.61170   0.69130   0.01267  Uiso   1.00
O50    O     0.61670   0.58680   0.80910   0.01267  Uiso   1.00
O51    O     0.88530   0.63980   0.66590   0.01267  Uiso   1.00
O52    O     0.97000   0.65830   0.77630   0.01267  Uiso   1.00
O53    O     0.69360   0.47460   0.56600   0.01267  Uiso   1.00
O54    O     0.68140   0.38590   0.46180   0.01267  Uiso   1.00
O55    O     0.55120   0.73770   0.89310   0.01267  Uiso   1.00
O56    O     0.75710   0.71740   0.83160   0.01267  Uiso   1.00
O57    O     0.68220   0.88830   0.80870   0.01267  Uiso   1.00
O58    O     0.61670   0.91320   0.69090   0.01267  Uiso   1.00
O59    O     0.88530   0.86020   0.83410   0.01267  Uiso   1.00
O60    O     0.97000   0.84170   0.72370   0.01267  Uiso   1.00
O61    O     0.69360   0.02540   0.93400   0.01267  Uiso   1.00
O62    O     0.68140   0.11410   0.03820   0.01267  Uiso   1.00
O63    O     0.55120   0.76230   0.60690   0.01267  Uiso   1.00
O64    O     0.75710   0.78260   0.66840   0.01267  Uiso   1.00
