data_SIZPEX_charged
_audit_creation_date              2014-07-02
_audit_creation_method            'Materials Studio'
_symmetry_space_group_name_H-M    'P1'
_symmetry_Int_Tables_number       1
_symmetry_cell_setting            triclinic
loop_
_symmetry_equiv_pos_as_xyz
  x,y,z
_cell_length_a                    13.5630
_cell_length_b                    15.0300
_cell_length_c                    16.1930
_cell_angle_alpha                 90.0000
_cell_angle_beta                  90.0000
_cell_angle_gamma                 90.0000
loop_
_atom_site_label
_atom_site_type_symbol
_atom_site_fract_x
_atom_site_fract_y
_atom_site_fract_z
_atom_site_U_iso_or_equiv
_atom_site_adp_type
_atom_site_occupancy
Ce1    Ce    0.10727   0.75000   0.75000   0.01267  Uiso   1.00
Ce2    Ce    0.39273   0.25000   0.25000   0.01267  Uiso   1.00
Ce3    Ce    0.89273   0.25000   0.25000   0.01267  Uiso   1.00
Ce4    Ce    0.60727   0.75000   0.75000   0.01267  Uiso   1.00
Ni1    Ni    0.28516   0.56033   0.88495   0.01267  Uiso   1.00
Ni2    Ni    0.28516   0.93967   0.61505   0.01267  Uiso   1.00
Ni3    Ni    0.21484   0.43967   0.38495   0.01267  Uiso   1.00
Ni4    Ni    0.21484   0.06033   0.11505   0.01267  Uiso   1.00
Ni5    Ni    0.71484   0.43967   0.11505   0.01267  Uiso   1.00
Ni6    Ni    0.71484   0.06033   0.38495   0.01267  Uiso   1.00
Ni7    Ni    0.78516   0.56033   0.61505   0.01267  Uiso   1.00
Ni8    Ni    0.78516   0.93967   0.88495   0.01267  Uiso   1.00
H1     H     0.09440   0.73480   0.57240   0.01267  Uiso   1.00
H2     H     0.00570   0.77280   0.59470   0.01267  Uiso   1.00
H3     H     0.29680   0.75670   0.66680   0.01267  Uiso   1.00
H4     H     0.24460   0.69110   0.62470   0.01267  Uiso   1.00
H5     H     0.21970   0.45450   0.69080   0.01267  Uiso   1.00
H6     H     0.17440   0.43360   0.77820   0.01267  Uiso   1.00
H7     H     0.43050   0.49400   0.71770   0.01267  Uiso   1.00
H8     H     0.34120   0.54470   0.67820   0.01267  Uiso   1.00
H9     H     0.29850   0.36870   0.83800   0.01267  Uiso   1.00
H10    H     0.37860   0.37210   0.76800   0.01267  Uiso   1.00
H11    H     0.47970   0.45640   0.84920   0.01267  Uiso   1.00
H12    H     0.45130   0.36960   0.89770   0.01267  Uiso   1.00
H13    H     0.35240   0.36380   0.99360   0.01267  Uiso   1.00
H14    H     0.34960   0.44470   0.05460   0.01267  Uiso   1.00
H15    H     0.49250   0.56690   0.94080   0.01267  Uiso   1.00
H16    H     0.43220   0.56490   0.02330   0.01267  Uiso   1.00
H17    H     0.09440   0.76520   0.92760   0.01267  Uiso   1.00
H18    H     0.00570   0.72720   0.90530   0.01267  Uiso   1.00
H19    H     0.29680   0.74330   0.83320   0.01267  Uiso   1.00
H20    H     0.24460   0.80890   0.87530   0.01267  Uiso   1.00
H21    H     0.21970   0.04550   0.80920   0.01267  Uiso   1.00
H22    H     0.17440   0.06640   0.72180   0.01267  Uiso   1.00
H23    H     0.43050   0.00600   0.78230   0.01267  Uiso   1.00
H24    H     0.34120   0.95530   0.82180   0.01267  Uiso   1.00
H25    H     0.29850   0.13130   0.66200   0.01267  Uiso   1.00
H26    H     0.37860   0.12790   0.73200   0.01267  Uiso   1.00
H27    H     0.47970   0.04360   0.65080   0.01267  Uiso   1.00
H28    H     0.45130   0.13040   0.60230   0.01267  Uiso   1.00
H29    H     0.35240   0.13620   0.50640   0.01267  Uiso   1.00
H30    H     0.34960   0.05530   0.44540   0.01267  Uiso   1.00
H31    H     0.49250   0.93310   0.55920   0.01267  Uiso   1.00
H32    H     0.43220   0.93510   0.47670   0.01267  Uiso   1.00
H33    H     0.40560   0.26520   0.07240   0.01267  Uiso   1.00
H34    H     0.49430   0.22720   0.09470   0.01267  Uiso   1.00
H35    H     0.20320   0.24330   0.16680   0.01267  Uiso   1.00
H36    H     0.25540   0.30890   0.12470   0.01267  Uiso   1.00
H37    H     0.28030   0.54550   0.19080   0.01267  Uiso   1.00
H38    H     0.32560   0.56640   0.27820   0.01267  Uiso   1.00
H39    H     0.06950   0.50600   0.21770   0.01267  Uiso   1.00
H40    H     0.15880   0.45530   0.17820   0.01267  Uiso   1.00
H41    H     0.20150   0.63130   0.33800   0.01267  Uiso   1.00
H42    H     0.12140   0.62790   0.26800   0.01267  Uiso   1.00
H43    H     0.02030   0.54360   0.34920   0.01267  Uiso   1.00
H44    H     0.04870   0.63040   0.39770   0.01267  Uiso   1.00
H45    H     0.14760   0.63620   0.49360   0.01267  Uiso   1.00
H46    H     0.15040   0.55530   0.55460   0.01267  Uiso   1.00
H47    H     0.00750   0.43310   0.44080   0.01267  Uiso   1.00
H48    H     0.06780   0.43510   0.52330   0.01267  Uiso   1.00
H49    H     0.40560   0.23480   0.42760   0.01267  Uiso   1.00
H50    H     0.49430   0.27280   0.40530   0.01267  Uiso   1.00
H51    H     0.20320   0.25670   0.33320   0.01267  Uiso   1.00
H52    H     0.25540   0.19110   0.37530   0.01267  Uiso   1.00
H53    H     0.28030   0.95450   0.30920   0.01267  Uiso   1.00
H54    H     0.32560   0.93360   0.22180   0.01267  Uiso   1.00
H55    H     0.06950   0.99400   0.28230   0.01267  Uiso   1.00
H56    H     0.15880   0.04470   0.32180   0.01267  Uiso   1.00
H57    H     0.20150   0.86870   0.16200   0.01267  Uiso   1.00
H58    H     0.12140   0.87210   0.23200   0.01267  Uiso   1.00
H59    H     0.02030   0.95640   0.15080   0.01267  Uiso   1.00
H60    H     0.04870   0.86960   0.10230   0.01267  Uiso   1.00
H61    H     0.14760   0.86380   0.00640   0.01267  Uiso   1.00
H62    H     0.15040   0.94470   0.94540   0.01267  Uiso   1.00
H63    H     0.00750   0.06690   0.05920   0.01267  Uiso   1.00
H64    H     0.06780   0.06490   0.97670   0.01267  Uiso   1.00
H65    H     0.90560   0.26520   0.42760   0.01267  Uiso   1.00
H66    H     0.99430   0.22720   0.40530   0.01267  Uiso   1.00
H67    H     0.70320   0.24330   0.33320   0.01267  Uiso   1.00
H68    H     0.75540   0.30890   0.37530   0.01267  Uiso   1.00
H69    H     0.78030   0.54550   0.30920   0.01267  Uiso   1.00
H70    H     0.82560   0.56640   0.22180   0.01267  Uiso   1.00
H71    H     0.56950   0.50600   0.28230   0.01267  Uiso   1.00
H72    H     0.65880   0.45530   0.32180   0.01267  Uiso   1.00
H73    H     0.70150   0.63130   0.16200   0.01267  Uiso   1.00
H74    H     0.62140   0.62790   0.23200   0.01267  Uiso   1.00
H75    H     0.52030   0.54360   0.15080   0.01267  Uiso   1.00
H76    H     0.54870   0.63040   0.10230   0.01267  Uiso   1.00
H77    H     0.64760   0.63620   0.00640   0.01267  Uiso   1.00
H78    H     0.65040   0.55530   0.94540   0.01267  Uiso   1.00
H79    H     0.50750   0.43310   0.05920   0.01267  Uiso   1.00
H80    H     0.56780   0.43510   0.97670   0.01267  Uiso   1.00
H81    H     0.90560   0.23480   0.07240   0.01267  Uiso   1.00
H82    H     0.99430   0.27280   0.09470   0.01267  Uiso   1.00
H83    H     0.70320   0.25670   0.16680   0.01267  Uiso   1.00
H84    H     0.75540   0.19110   0.12470   0.01267  Uiso   1.00
H85    H     0.78030   0.95450   0.19080   0.01267  Uiso   1.00
H86    H     0.82560   0.93360   0.27820   0.01267  Uiso   1.00
H87    H     0.56950   0.99400   0.21770   0.01267  Uiso   1.00
H88    H     0.65880   0.04470   0.17820   0.01267  Uiso   1.00
H89    H     0.70150   0.86870   0.33800   0.01267  Uiso   1.00
H90    H     0.62140   0.87210   0.26800   0.01267  Uiso   1.00
H91    H     0.52030   0.95640   0.34920   0.01267  Uiso   1.00
H92    H     0.54870   0.86960   0.39770   0.01267  Uiso   1.00
H93    H     0.64760   0.86380   0.49360   0.01267  Uiso   1.00
H94    H     0.65040   0.94470   0.55460   0.01267  Uiso   1.00
H95    H     0.50750   0.06690   0.44080   0.01267  Uiso   1.00
H96    H     0.56780   0.06490   0.52330   0.01267  Uiso   1.00
H97    H     0.59440   0.73480   0.92760   0.01267  Uiso   1.00
H98    H     0.50570   0.77280   0.90530   0.01267  Uiso   1.00
H99    H     0.79680   0.75670   0.83320   0.01267  Uiso   1.00
H100   H     0.74460   0.69110   0.87530   0.01267  Uiso   1.00
H101   H     0.71970   0.45450   0.80920   0.01267  Uiso   1.00
H102   H     0.67440   0.43360   0.72180   0.01267  Uiso   1.00
H103   H     0.93050   0.49400   0.78230   0.01267  Uiso   1.00
H104   H     0.84120   0.54470   0.82180   0.01267  Uiso   1.00
H105   H     0.79850   0.36870   0.66200   0.01267  Uiso   1.00
H106   H     0.87860   0.37210   0.73200   0.01267  Uiso   1.00
H107   H     0.97970   0.45640   0.65080   0.01267  Uiso   1.00
H108   H     0.95130   0.36960   0.60230   0.01267  Uiso   1.00
H109   H     0.85240   0.36380   0.50640   0.01267  Uiso   1.00
H110   H     0.84960   0.44470   0.44540   0.01267  Uiso   1.00
H111   H     0.99250   0.56690   0.55920   0.01267  Uiso   1.00
H112   H     0.93220   0.56490   0.47670   0.01267  Uiso   1.00
H113   H     0.59440   0.76520   0.57240   0.01267  Uiso   1.00
H114   H     0.50570   0.72720   0.59470   0.01267  Uiso   1.00
H115   H     0.79680   0.74330   0.66680   0.01267  Uiso   1.00
H116   H     0.74460   0.80890   0.62470   0.01267  Uiso   1.00
H117   H     0.71970   0.04550   0.69080   0.01267  Uiso   1.00
H118   H     0.67440   0.06640   0.77820   0.01267  Uiso   1.00
H119   H     0.93050   0.00600   0.71770   0.01267  Uiso   1.00
H120   H     0.84120   0.95530   0.67820   0.01267  Uiso   1.00
H121   H     0.79850   0.13130   0.83800   0.01267  Uiso   1.00
H122   H     0.87860   0.12790   0.76800   0.01267  Uiso   1.00
H123   H     0.97970   0.04360   0.84920   0.01267  Uiso   1.00
H124   H     0.95130   0.13040   0.89770   0.01267  Uiso   1.00
H125   H     0.85240   0.13620   0.99360   0.01267  Uiso   1.00
H126   H     0.84960   0.05530   0.05460   0.01267  Uiso   1.00
H127   H     0.99250   0.93310   0.94080   0.01267  Uiso   1.00
H128   H     0.93220   0.93510   0.02330   0.01267  Uiso   1.00
C1     C     0.16560   0.56280   0.74760   0.01267  Uiso   1.00
C2     C     0.21330   0.47600   0.74700   0.01267  Uiso   1.00
C3     C     0.37470   0.53230   0.72990   0.01267  Uiso   1.00
C4     C     0.41140   0.61640   0.76480   0.01267  Uiso   1.00
C5     C     0.34980   0.40510   0.81340   0.01267  Uiso   1.00
C6     C     0.42570   0.42480   0.87520   0.01267  Uiso   1.00
C7     C     0.33220   0.42540   0.99930   0.01267  Uiso   1.00
C8     C     0.22610   0.43060   0.99000   0.01267  Uiso   1.00
C9     C     0.46170   0.52780   0.98100   0.01267  Uiso   1.00
C10    C     0.22950   0.65790   0.02590   0.01267  Uiso   1.00
C11    C     0.16560   0.93720   0.75240   0.01267  Uiso   1.00
C12    C     0.21330   0.02400   0.75300   0.01267  Uiso   1.00
C13    C     0.37470   0.96770   0.77010   0.01267  Uiso   1.00
C14    C     0.41140   0.88360   0.73520   0.01267  Uiso   1.00
C15    C     0.34980   0.09490   0.68660   0.01267  Uiso   1.00
C16    C     0.42570   0.07520   0.62480   0.01267  Uiso   1.00
C17    C     0.33220   0.07460   0.50070   0.01267  Uiso   1.00
C18    C     0.22610   0.06940   0.51000   0.01267  Uiso   1.00
C19    C     0.46170   0.97220   0.51900   0.01267  Uiso   1.00
C20    C     0.22950   0.84210   0.47410   0.01267  Uiso   1.00
C21    C     0.33440   0.43720   0.24760   0.01267  Uiso   1.00
C22    C     0.28670   0.52400   0.24700   0.01267  Uiso   1.00
C23    C     0.12530   0.46770   0.22990   0.01267  Uiso   1.00
C24    C     0.08860   0.38360   0.26480   0.01267  Uiso   1.00
C25    C     0.15020   0.59490   0.31340   0.01267  Uiso   1.00
C26    C     0.07430   0.57520   0.37520   0.01267  Uiso   1.00
C27    C     0.16780   0.57460   0.49930   0.01267  Uiso   1.00
C28    C     0.27390   0.56940   0.49000   0.01267  Uiso   1.00
C29    C     0.03830   0.47220   0.48100   0.01267  Uiso   1.00
C30    C     0.27050   0.34210   0.52590   0.01267  Uiso   1.00
C31    C     0.33440   0.06280   0.25240   0.01267  Uiso   1.00
C32    C     0.28670   0.97600   0.25300   0.01267  Uiso   1.00
C33    C     0.12530   0.03230   0.27010   0.01267  Uiso   1.00
C34    C     0.08860   0.11640   0.23520   0.01267  Uiso   1.00
C35    C     0.15020   0.90510   0.18660   0.01267  Uiso   1.00
C36    C     0.07430   0.92480   0.12480   0.01267  Uiso   1.00
C37    C     0.16780   0.92540   0.00070   0.01267  Uiso   1.00
C38    C     0.27390   0.93060   0.01000   0.01267  Uiso   1.00
C39    C     0.03830   0.02780   0.01900   0.01267  Uiso   1.00
C40    C     0.27050   0.15790   0.97410   0.01267  Uiso   1.00
C41    C     0.83440   0.43720   0.25240   0.01267  Uiso   1.00
C42    C     0.78670   0.52400   0.25300   0.01267  Uiso   1.00
C43    C     0.62530   0.46770   0.27010   0.01267  Uiso   1.00
C44    C     0.58860   0.38360   0.23520   0.01267  Uiso   1.00
C45    C     0.65020   0.59490   0.18660   0.01267  Uiso   1.00
C46    C     0.57430   0.57520   0.12480   0.01267  Uiso   1.00
C47    C     0.66780   0.57460   0.00070   0.01267  Uiso   1.00
C48    C     0.77390   0.56940   0.01000   0.01267  Uiso   1.00
C49    C     0.53830   0.47220   0.01900   0.01267  Uiso   1.00
C50    C     0.77050   0.34210   0.97410   0.01267  Uiso   1.00
C51    C     0.83440   0.06280   0.24760   0.01267  Uiso   1.00
C52    C     0.78670   0.97600   0.24700   0.01267  Uiso   1.00
C53    C     0.62530   0.03230   0.22990   0.01267  Uiso   1.00
C54    C     0.58860   0.11640   0.26480   0.01267  Uiso   1.00
C55    C     0.65020   0.90510   0.31340   0.01267  Uiso   1.00
C56    C     0.57430   0.92480   0.37520   0.01267  Uiso   1.00
C57    C     0.66780   0.92540   0.49930   0.01267  Uiso   1.00
C58    C     0.77390   0.93060   0.49000   0.01267  Uiso   1.00
C59    C     0.53830   0.02780   0.48100   0.01267  Uiso   1.00
C60    C     0.77050   0.15790   0.52590   0.01267  Uiso   1.00
C61    C     0.66560   0.56280   0.75240   0.01267  Uiso   1.00
C62    C     0.71330   0.47600   0.75300   0.01267  Uiso   1.00
C63    C     0.87470   0.53230   0.77010   0.01267  Uiso   1.00
C64    C     0.91140   0.61640   0.73520   0.01267  Uiso   1.00
C65    C     0.84980   0.40510   0.68660   0.01267  Uiso   1.00
C66    C     0.92570   0.42480   0.62480   0.01267  Uiso   1.00
C67    C     0.83220   0.42540   0.50070   0.01267  Uiso   1.00
C68    C     0.72610   0.43060   0.51000   0.01267  Uiso   1.00
C69    C     0.96170   0.52780   0.51900   0.01267  Uiso   1.00
C70    C     0.72950   0.65790   0.47410   0.01267  Uiso   1.00
C71    C     0.66560   0.93720   0.74760   0.01267  Uiso   1.00
C72    C     0.71330   0.02400   0.74700   0.01267  Uiso   1.00
C73    C     0.87470   0.96770   0.72990   0.01267  Uiso   1.00
C74    C     0.91140   0.88360   0.76480   0.01267  Uiso   1.00
C75    C     0.84980   0.09490   0.81340   0.01267  Uiso   1.00
C76    C     0.92570   0.07520   0.87520   0.01267  Uiso   1.00
C77    C     0.83220   0.07460   0.99930   0.01267  Uiso   1.00
C78    C     0.72610   0.06940   0.99000   0.01267  Uiso   1.00
C79    C     0.96170   0.97220   0.98100   0.01267  Uiso   1.00
C80    C     0.72950   0.84210   0.02590   0.01267  Uiso   1.00
S1     S     0.18050   0.69960   0.11730   0.01267  Uiso   1.00
S2     S     0.18050   0.80040   0.38270   0.01267  Uiso   1.00
S3     S     0.31950   0.30040   0.61730   0.01267  Uiso   1.00
S4     S     0.31950   0.19960   0.88270   0.01267  Uiso   1.00
S5     S     0.81950   0.30040   0.88270   0.01267  Uiso   1.00
S6     S     0.81950   0.19960   0.61730   0.01267  Uiso   1.00
S7     S     0.68050   0.69960   0.38270   0.01267  Uiso   1.00
S8     S     0.68050   0.80040   0.11730   0.01267  Uiso   1.00
N1     N     0.30840   0.48580   0.78360   0.01267  Uiso   1.00
N2     N     0.38560   0.47810   0.94090   0.01267  Uiso   1.00
N3     N     0.26800   0.63860   0.97190   0.01267  Uiso   1.00
N4     N     0.30840   0.01420   0.71640   0.01267  Uiso   1.00
N5     N     0.38560   0.02190   0.55910   0.01267  Uiso   1.00
N6     N     0.26800   0.86140   0.52810   0.01267  Uiso   1.00
N7     N     0.19160   0.51420   0.28360   0.01267  Uiso   1.00
N8     N     0.11440   0.52190   0.44090   0.01267  Uiso   1.00
N9     N     0.23200   0.36140   0.47190   0.01267  Uiso   1.00
N10    N     0.19160   0.98580   0.21640   0.01267  Uiso   1.00
N11    N     0.11440   0.97810   0.05910   0.01267  Uiso   1.00
N12    N     0.23200   0.13860   0.02810   0.01267  Uiso   1.00
N13    N     0.69160   0.51420   0.21640   0.01267  Uiso   1.00
N14    N     0.61440   0.52190   0.05910   0.01267  Uiso   1.00
N15    N     0.73200   0.36140   0.02810   0.01267  Uiso   1.00
N16    N     0.69160   0.98580   0.28360   0.01267  Uiso   1.00
N17    N     0.61440   0.97810   0.44090   0.01267  Uiso   1.00
N18    N     0.73200   0.13860   0.47190   0.01267  Uiso   1.00
N19    N     0.80840   0.48580   0.71640   0.01267  Uiso   1.00
N20    N     0.88560   0.47810   0.55910   0.01267  Uiso   1.00
N21    N     0.76800   0.63860   0.52810   0.01267  Uiso   1.00
N22    N     0.80840   0.01420   0.78360   0.01267  Uiso   1.00
N23    N     0.88560   0.02190   0.94090   0.01267  Uiso   1.00
N24    N     0.76800   0.86140   0.97190   0.01267  Uiso   1.00
O1     O     0.18040   0.61090   0.80900   0.01267  Uiso   1.00
O2     O     0.11470   0.58530   0.69140   0.01267  Uiso   1.00
O3     O     0.38470   0.63850   0.83350   0.01267  Uiso   1.00
O4     O     0.46670   0.65820   0.72270   0.01267  Uiso   1.00
O5     O     0.19090   0.47530   0.93490   0.01267  Uiso   1.00
O6     O     0.17820   0.38760   0.03930   0.01267  Uiso   1.00
O7     O     0.04840   0.73680   0.60570   0.01267  Uiso   1.00
O8     O     0.25710   0.71700   0.66790   0.01267  Uiso   1.00
O9     O     0.18040   0.88910   0.69100   0.01267  Uiso   1.00
O10    O     0.11470   0.91470   0.80860   0.01267  Uiso   1.00
O11    O     0.38470   0.86150   0.66650   0.01267  Uiso   1.00
O12    O     0.46670   0.84180   0.77730   0.01267  Uiso   1.00
O13    O     0.19090   0.02470   0.56510   0.01267  Uiso   1.00
O14    O     0.17820   0.11240   0.46070   0.01267  Uiso   1.00
O15    O     0.04840   0.76320   0.89430   0.01267  Uiso   1.00
O16    O     0.25710   0.78300   0.83210   0.01267  Uiso   1.00
O17    O     0.31960   0.38910   0.30900   0.01267  Uiso   1.00
O18    O     0.38530   0.41470   0.19140   0.01267  Uiso   1.00
O19    O     0.11530   0.36150   0.33350   0.01267  Uiso   1.00
O20    O     0.03330   0.34180   0.22270   0.01267  Uiso   1.00
O21    O     0.30910   0.52470   0.43490   0.01267  Uiso   1.00
O22    O     0.32180   0.61240   0.53930   0.01267  Uiso   1.00
O23    O     0.45160   0.26320   0.10570   0.01267  Uiso   1.00
O24    O     0.24290   0.28300   0.16790   0.01267  Uiso   1.00
O25    O     0.31960   0.11090   0.19100   0.01267  Uiso   1.00
O26    O     0.38530   0.08530   0.30860   0.01267  Uiso   1.00
O27    O     0.11530   0.13850   0.16650   0.01267  Uiso   1.00
O28    O     0.03330   0.15820   0.27730   0.01267  Uiso   1.00
O29    O     0.30910   0.97530   0.06510   0.01267  Uiso   1.00
O30    O     0.32180   0.88760   0.96070   0.01267  Uiso   1.00
O31    O     0.45160   0.23680   0.39430   0.01267  Uiso   1.00
O32    O     0.24290   0.21700   0.33210   0.01267  Uiso   1.00
O33    O     0.81960   0.38910   0.19100   0.01267  Uiso   1.00
O34    O     0.88530   0.41470   0.30860   0.01267  Uiso   1.00
O35    O     0.61530   0.36150   0.16650   0.01267  Uiso   1.00
O36    O     0.53330   0.34180   0.27730   0.01267  Uiso   1.00
O37    O     0.80910   0.52470   0.06510   0.01267  Uiso   1.00
O38    O     0.82180   0.61240   0.96070   0.01267  Uiso   1.00
O39    O     0.95160   0.26320   0.39430   0.01267  Uiso   1.00
O40    O     0.74290   0.28300   0.33210   0.01267  Uiso   1.00
O41    O     0.81960   0.11090   0.30900   0.01267  Uiso   1.00
O42    O     0.88530   0.08530   0.19140   0.01267  Uiso   1.00
O43    O     0.61530   0.13850   0.33350   0.01267  Uiso   1.00
O44    O     0.53330   0.15820   0.22270   0.01267  Uiso   1.00
O45    O     0.80910   0.97530   0.43490   0.01267  Uiso   1.00
O46    O     0.82180   0.88760   0.53930   0.01267  Uiso   1.00
O47    O     0.95160   0.23680   0.10570   0.01267  Uiso   1.00
O48    O     0.74290   0.21700   0.16790   0.01267  Uiso   1.00
O49    O     0.68040   0.61090   0.69100   0.01267  Uiso   1.00
O50    O     0.61470   0.58530   0.80860   0.01267  Uiso   1.00
O51    O     0.88470   0.63850   0.66650   0.01267  Uiso   1.00
O52    O     0.96670   0.65820   0.77730   0.01267  Uiso   1.00
O53    O     0.69090   0.47530   0.56510   0.01267  Uiso   1.00
O54    O     0.67820   0.38760   0.46070   0.01267  Uiso   1.00
O55    O     0.54840   0.73680   0.89430   0.01267  Uiso   1.00
O56    O     0.75710   0.71700   0.83210   0.01267  Uiso   1.00
O57    O     0.68040   0.88910   0.80900   0.01267  Uiso   1.00
O58    O     0.61470   0.91470   0.69140   0.01267  Uiso   1.00
O59    O     0.88470   0.86150   0.83350   0.01267  Uiso   1.00
O60    O     0.96670   0.84180   0.72270   0.01267  Uiso   1.00
O61    O     0.69090   0.02470   0.93490   0.01267  Uiso   1.00
O62    O     0.67820   0.11240   0.03930   0.01267  Uiso   1.00
O63    O     0.54840   0.76320   0.60570   0.01267  Uiso   1.00
O64    O     0.75710   0.78300   0.66790   0.01267  Uiso   1.00
