data_image0
_cell_length_a       16.52
_cell_length_b       34.6
_cell_length_c       9.361
_cell_angle_alpha    90
_cell_angle_beta     112.4
_cell_angle_gamma    90

_symmetry_space_group_name_H-M    "P 1"
_symmetry_int_tables_number       1

loop_
  _symmetry_equiv_pos_as_xyz
  'x, y, z'

loop_
  _atom_site_label
  _atom_site_occupancy
  _atom_site_fract_x
  _atom_site_fract_y
  _atom_site_fract_z
  _atom_site_thermal_displace_type
  _atom_site_B_iso_or_equiv
  _atom_site_type_symbol
  N1       1.0000 0.88700  0.01600  0.83000  Biso   1.000  N
  N2       1.0000 0.97200  0.94500  0.94500  Biso   1.000  N
  C1       1.0000 0.82700  0.99000  0.72900  Biso   1.000  C
  C2       1.0000 0.82800  0.95300  0.72300  Biso   1.000  C
  C3       1.0000 0.89500  0.92900  0.82100  Biso   1.000  C
  C4       1.0000 0.90400  0.88800  0.80800  Biso   1.000  C
  C5       1.0000 0.98000  0.87600  0.93100  Biso   1.000  C
  C6       1.0000 0.02100  0.91300  0.99400  Biso   1.000  C
  C7       1.0000 0.09400  0.91600  0.15100  Biso   1.000  C
  C8       1.0000 0.86100  0.05200  0.78500  Biso   1.000  C
  C9       1.0000 0.77800  0.05100  0.64800  Biso   1.000  C
  C10      1.0000 0.75500  0.01700  0.62200  Biso   1.000  C
  C11      1.0000 0.74400  0.93100  0.63100  Biso   1.000  C
  C12      1.0000 0.70000  0.90400  0.66700  Biso   1.000  C
  C13      1.0000 0.62500  0.88200  0.56800  Biso   1.000  C
  C14      1.0000 0.64900  0.92100  0.37700  Biso   1.000  C
  C15      1.0000 0.72400  0.94100  0.45800  Biso   1.000  C
  C16      1.0000 0.13700  0.87600  0.20400  Biso   1.000  C
  C17      1.0000 0.18400  0.85100  0.16900  Biso   1.000  C
  C18      1.0000 0.22100  0.81600  0.23500  Biso   1.000  C
  C19      1.0000 0.15800  0.83100  0.41500  Biso   1.000  C
  C20      1.0000 0.13100  0.86800  0.33700  Biso   1.000  C
  N3       1.0000 0.60700  0.89300  0.40800  Biso   1.000  N
  N4       1.0000 0.20500  0.80600  0.37000  Biso   1.000  N
  N5       1.0000 0.38700  0.51600  0.83000  Biso   1.000  N
  N6       1.0000 0.47200  0.44500  0.94500  Biso   1.000  N
  C21      1.0000 0.32700  0.49000  0.72900  Biso   1.000  C
  C22      1.0000 0.32800  0.45300  0.72300  Biso   1.000  C
  C23      1.0000 0.39500  0.42900  0.82100  Biso   1.000  C
  C24      1.0000 0.40400  0.38800  0.80800  Biso   1.000  C
  C25      1.0000 0.48000  0.37600  0.93100  Biso   1.000  C
  C26      1.0000 0.52100  0.41300  0.99400  Biso   1.000  C
  C27      1.0000 0.59400  0.41600  0.15100  Biso   1.000  C
  C28      1.0000 0.36100  0.55200  0.78500  Biso   1.000  C
  C29      1.0000 0.27800  0.55100  0.64800  Biso   1.000  C
  C30      1.0000 0.25500  0.51700  0.62200  Biso   1.000  C
  C31      1.0000 0.24400  0.43100  0.63100  Biso   1.000  C
  C32      1.0000 0.20000  0.40400  0.66700  Biso   1.000  C
  C33      1.0000 0.12500  0.38200  0.56800  Biso   1.000  C
  C34      1.0000 0.14900  0.42100  0.37700  Biso   1.000  C
  C35      1.0000 0.22400  0.44100  0.45800  Biso   1.000  C
  C36      1.0000 0.63700  0.37600  0.20400  Biso   1.000  C
  C37      1.0000 0.68400  0.35100  0.16900  Biso   1.000  C
  C38      1.0000 0.72100  0.31600  0.23500  Biso   1.000  C
  C39      1.0000 0.65800  0.33100  0.41500  Biso   1.000  C
  C40      1.0000 0.63100  0.36800  0.33700  Biso   1.000  C
  N7       1.0000 0.10700  0.39300  0.40800  Biso   1.000  N
  N8       1.0000 0.70500  0.30600  0.37000  Biso   1.000  N
  N9       1.0000 0.11300  0.01600  0.67000  Biso   1.000  N
  N10      1.0000 0.02800  0.94500  0.55500  Biso   1.000  N
  C41      1.0000 0.17300  0.99000  0.77100  Biso   1.000  C
  C42      1.0000 0.17200  0.95300  0.77700  Biso   1.000  C
  C43      1.0000 0.10500  0.92900  0.67900  Biso   1.000  C
  C44      1.0000 0.09600  0.88800  0.69200  Biso   1.000  C
  C45      1.0000 0.02000  0.87600  0.56900  Biso   1.000  C
  C46      1.0000 0.97900  0.91300  0.50600  Biso   1.000  C
  C47      1.0000 0.90600  0.91600  0.34900  Biso   1.000  C
  C48      1.0000 0.13900  0.05200  0.71500  Biso   1.000  C
  C49      1.0000 0.22200  0.05100  0.85200  Biso   1.000  C
  C50      1.0000 0.24500  0.01700  0.87800  Biso   1.000  C
  C51      1.0000 0.25600  0.93100  0.86900  Biso   1.000  C
  C52      1.0000 0.30000  0.90400  0.83300  Biso   1.000  C
  C53      1.0000 0.37500  0.88200  0.93200  Biso   1.000  C
  C54      1.0000 0.35100  0.92100  0.12300  Biso   1.000  C
  C55      1.0000 0.27600  0.94100  0.04200  Biso   1.000  C
  C56      1.0000 0.86300  0.87600  0.29600  Biso   1.000  C
  C57      1.0000 0.81600  0.85100  0.33100  Biso   1.000  C
  C58      1.0000 0.77900  0.81600  0.26500  Biso   1.000  C
  C59      1.0000 0.84200  0.83100  0.08500  Biso   1.000  C
  C60      1.0000 0.86900  0.86800  0.16300  Biso   1.000  C
  N11      1.0000 0.39300  0.89300  0.09200  Biso   1.000  N
  N12      1.0000 0.79500  0.80600  0.13000  Biso   1.000  N
  N13      1.0000 0.61300  0.51600  0.67000  Biso   1.000  N
  N14      1.0000 0.52800  0.44500  0.55500  Biso   1.000  N
  C61      1.0000 0.67300  0.49000  0.77100  Biso   1.000  C
  C62      1.0000 0.67200  0.45300  0.77700  Biso   1.000  C
  C63      1.0000 0.60500  0.42900  0.67900  Biso   1.000  C
  C64      1.0000 0.59600  0.38800  0.69200  Biso   1.000  C
  C65      1.0000 0.52000  0.37600  0.56900  Biso   1.000  C
  C66      1.0000 0.47900  0.41300  0.50600  Biso   1.000  C
  C67      1.0000 0.40600  0.41600  0.34900  Biso   1.000  C
  C68      1.0000 0.63900  0.55200  0.71500  Biso   1.000  C
  C69      1.0000 0.72200  0.55100  0.85200  Biso   1.000  C
  C70      1.0000 0.74500  0.51700  0.87800  Biso   1.000  C
  C71      1.0000 0.75600  0.43100  0.86900  Biso   1.000  C
  C72      1.0000 0.80000  0.40400  0.83300  Biso   1.000  C
  C73      1.0000 0.87500  0.38200  0.93200  Biso   1.000  C
  C74      1.0000 0.85100  0.42100  0.12300  Biso   1.000  C
  C75      1.0000 0.77600  0.44100  0.04200  Biso   1.000  C
  C76      1.0000 0.36300  0.37600  0.29600  Biso   1.000  C
  C77      1.0000 0.31600  0.35100  0.33100  Biso   1.000  C
  C78      1.0000 0.27900  0.31600  0.26500  Biso   1.000  C
  C79      1.0000 0.34200  0.33100  0.08500  Biso   1.000  C
  C80      1.0000 0.36900  0.36800  0.16300  Biso   1.000  C
  N15      1.0000 0.89300  0.39300  0.09200  Biso   1.000  N
  N16      1.0000 0.29500  0.30600  0.13000  Biso   1.000  N
  N17      1.0000 0.11300  0.98400  0.17000  Biso   1.000  N
  N18      1.0000 0.02800  0.05500  0.05500  Biso   1.000  N
  C81      1.0000 0.17300  0.01000  0.27100  Biso   1.000  C
  C82      1.0000 0.17200  0.04700  0.27700  Biso   1.000  C
  C83      1.0000 0.10500  0.07100  0.17900  Biso   1.000  C
  C84      1.0000 0.09600  0.11200  0.19200  Biso   1.000  C
  C85      1.0000 0.02000  0.12400  0.06900  Biso   1.000  C
  C86      1.0000 0.97900  0.08700  0.00600  Biso   1.000  C
  C87      1.0000 0.90600  0.08400  0.84900  Biso   1.000  C
  C88      1.0000 0.13900  0.94800  0.21500  Biso   1.000  C
  C89      1.0000 0.22200  0.94900  0.35200  Biso   1.000  C
  C90      1.0000 0.24500  0.98300  0.37800  Biso   1.000  C
  C91      1.0000 0.25600  0.06900  0.36900  Biso   1.000  C
  C92      1.0000 0.30000  0.09600  0.33300  Biso   1.000  C
  C93      1.0000 0.37500  0.11800  0.43200  Biso   1.000  C
  C94      1.0000 0.35100  0.07900  0.62300  Biso   1.000  C
  C95      1.0000 0.27600  0.05900  0.54200  Biso   1.000  C
  C96      1.0000 0.86300  0.12400  0.79600  Biso   1.000  C
  C97      1.0000 0.81600  0.14900  0.83100  Biso   1.000  C
  C98      1.0000 0.77900  0.18400  0.76500  Biso   1.000  C
  C99      1.0000 0.84200  0.16900  0.58500  Biso   1.000  C
  C100     1.0000 0.86900  0.13200  0.66300  Biso   1.000  C
  N19      1.0000 0.39300  0.10700  0.59200  Biso   1.000  N
  N20      1.0000 0.79500  0.19400  0.63000  Biso   1.000  N
  N21      1.0000 0.61300  0.48400  0.17000  Biso   1.000  N
  N22      1.0000 0.52800  0.55500  0.05500  Biso   1.000  N
  C101     1.0000 0.67300  0.51000  0.27100  Biso   1.000  C
  C102     1.0000 0.67200  0.54700  0.27700  Biso   1.000  C
  C103     1.0000 0.60500  0.57100  0.17900  Biso   1.000  C
  C104     1.0000 0.59600  0.61200  0.19200  Biso   1.000  C
  C105     1.0000 0.52000  0.62400  0.06900  Biso   1.000  C
  C106     1.0000 0.47900  0.58700  0.00600  Biso   1.000  C
  C107     1.0000 0.40600  0.58400  0.84900  Biso   1.000  C
  C108     1.0000 0.63900  0.44800  0.21500  Biso   1.000  C
  C109     1.0000 0.72200  0.44900  0.35200  Biso   1.000  C
  C110     1.0000 0.74500  0.48300  0.37800  Biso   1.000  C
  C111     1.0000 0.75600  0.56900  0.36900  Biso   1.000  C
  C112     1.0000 0.80000  0.59600  0.33300  Biso   1.000  C
  C113     1.0000 0.87500  0.61800  0.43200  Biso   1.000  C
  C114     1.0000 0.85100  0.57900  0.62300  Biso   1.000  C
  C115     1.0000 0.77600  0.55900  0.54200  Biso   1.000  C
  C116     1.0000 0.36300  0.62400  0.79600  Biso   1.000  C
  C117     1.0000 0.31600  0.64900  0.83100  Biso   1.000  C
  C118     1.0000 0.27900  0.68400  0.76500  Biso   1.000  C
  C119     1.0000 0.34200  0.66900  0.58500  Biso   1.000  C
  C120     1.0000 0.36900  0.63200  0.66300  Biso   1.000  C
  N23      1.0000 0.89300  0.60700  0.59200  Biso   1.000  N
  N24      1.0000 0.29500  0.69400  0.63000  Biso   1.000  N
  N25      1.0000 0.88700  0.98400  0.33000  Biso   1.000  N
  N26      1.0000 0.97200  0.05500  0.44500  Biso   1.000  N
  C121     1.0000 0.82700  0.01000  0.22900  Biso   1.000  C
  C122     1.0000 0.82800  0.04700  0.22300  Biso   1.000  C
  C123     1.0000 0.89500  0.07100  0.32100  Biso   1.000  C
  C124     1.0000 0.90400  0.11200  0.30800  Biso   1.000  C
  C125     1.0000 0.98000  0.12400  0.43100  Biso   1.000  C
  C126     1.0000 0.02100  0.08700  0.49400  Biso   1.000  C
  C127     1.0000 0.09400  0.08400  0.65100  Biso   1.000  C
  C128     1.0000 0.86100  0.94800  0.28500  Biso   1.000  C
  C129     1.0000 0.77800  0.94900  0.14800  Biso   1.000  C
  C130     1.0000 0.75500  0.98300  0.12200  Biso   1.000  C
  C131     1.0000 0.74400  0.06900  0.13100  Biso   1.000  C
  C132     1.0000 0.70000  0.09600  0.16700  Biso   1.000  C
  C133     1.0000 0.62500  0.11800  0.06800  Biso   1.000  C
  C134     1.0000 0.64900  0.07900  0.87700  Biso   1.000  C
  C135     1.0000 0.72400  0.05900  0.95800  Biso   1.000  C
  C136     1.0000 0.13700  0.12400  0.70400  Biso   1.000  C
  C137     1.0000 0.18400  0.14900  0.66900  Biso   1.000  C
  C138     1.0000 0.22100  0.18400  0.73500  Biso   1.000  C
  C139     1.0000 0.15800  0.16900  0.91500  Biso   1.000  C
  C140     1.0000 0.13100  0.13200  0.83700  Biso   1.000  C
  N27      1.0000 0.60700  0.10700  0.90800  Biso   1.000  N
  N28      1.0000 0.20500  0.19400  0.87000  Biso   1.000  N
  N29      1.0000 0.38700  0.48400  0.33000  Biso   1.000  N
  N30      1.0000 0.47200  0.55500  0.44500  Biso   1.000  N
  C141     1.0000 0.32700  0.51000  0.22900  Biso   1.000  C
  C142     1.0000 0.32800  0.54700  0.22300  Biso   1.000  C
  C143     1.0000 0.39500  0.57100  0.32100  Biso   1.000  C
  C144     1.0000 0.40400  0.61200  0.30800  Biso   1.000  C
  C145     1.0000 0.48000  0.62400  0.43100  Biso   1.000  C
  C146     1.0000 0.52100  0.58700  0.49400  Biso   1.000  C
  C147     1.0000 0.59400  0.58400  0.65100  Biso   1.000  C
  C148     1.0000 0.36100  0.44800  0.28500  Biso   1.000  C
  C149     1.0000 0.27800  0.44900  0.14800  Biso   1.000  C
  C150     1.0000 0.25500  0.48300  0.12200  Biso   1.000  C
  C151     1.0000 0.24400  0.56900  0.13100  Biso   1.000  C
  C152     1.0000 0.20000  0.59600  0.16700  Biso   1.000  C
  C153     1.0000 0.12500  0.61800  0.06800  Biso   1.000  C
  C154     1.0000 0.14900  0.57900  0.87700  Biso   1.000  C
  C155     1.0000 0.22400  0.55900  0.95800  Biso   1.000  C
  C156     1.0000 0.63700  0.62400  0.70400  Biso   1.000  C
  C157     1.0000 0.68400  0.64900  0.66900  Biso   1.000  C
  C158     1.0000 0.72100  0.68400  0.73500  Biso   1.000  C
  C159     1.0000 0.65800  0.66900  0.91500  Biso   1.000  C
  C160     1.0000 0.63100  0.63200  0.83700  Biso   1.000  C
  N31      1.0000 0.10700  0.60700  0.90800  Biso   1.000  N
  N32      1.0000 0.70500  0.69400  0.87000  Biso   1.000  N
  Cd1      1.0000 0.50000  0.14840  0.75000  Biso   1.000  Cd
  Cd2      1.0000 0.00000  0.64840  0.75000  Biso   1.000  Cd
  Cd3      1.0000 0.50000  0.85160  0.25000  Biso   1.000  Cd
  Cd4      1.0000 0.00000  0.35160  0.25000  Biso   1.000  Cd
  Cd5      1.0000 0.25000  0.75000  0.50000  Biso   1.000  Cd
  Cd6      1.0000 0.75000  0.75000  0.00000  Biso   1.000  Cd
  Cd7      1.0000 0.75000  0.25000  0.50000  Biso   1.000  Cd
  Cd8      1.0000 0.25000  0.25000  0.00000  Biso   1.000  Cd
  Pd1      1.0000 0.00000  0.00000  0.00000  Biso   1.000  Pd
  Pd2      1.0000 0.50000  0.50000  0.00000  Biso   1.000  Pd
  Pd3      1.0000 0.00000  0.00000  0.50000  Biso   1.000  Pd
  Pd4      1.0000 0.50000  0.50000  0.50000  Biso   1.000  Pd
