data_SOBZEQ_clean
_audit_creation_date              2015-10-16
_audit_creation_method            'Materials Studio'
_symmetry_space_group_name_H-M    'P1'
_symmetry_Int_Tables_number       1
_symmetry_cell_setting            triclinic
loop_
_symmetry_equiv_pos_as_xyz
  x,y,z
_cell_length_a                    13.9129
_cell_length_b                    14.2767
_cell_length_c                    18.6230
_cell_angle_alpha                 94.1910
_cell_angle_beta                  90.0000
_cell_angle_gamma                 90.0000
loop_
_atom_site_label
_atom_site_type_symbol
_atom_site_fract_x
_atom_site_fract_y
_atom_site_fract_z
_atom_site_U_iso_or_equiv
_atom_site_adp_type
_atom_site_occupancy
Ca1    Ca    0.70195   0.58458   0.37205   0.01267  Uiso   1.00
Ca2    Ca    0.29805   0.41542   0.62795   0.01267  Uiso   1.00
Ca3    Ca    0.20195   0.91542   0.12795   0.01267  Uiso   1.00
Ca4    Ca    0.79805   0.08458   0.87205   0.01267  Uiso   1.00
Cd1    Cd    0.54301   0.50258   0.22642   0.01267  Uiso   1.00
Cd2    Cd    0.95699   0.00258   0.72642   0.01267  Uiso   1.00
Cd3    Cd    0.45699   0.49742   0.77358   0.01267  Uiso   1.00
Cd4    Cd    0.04301   0.99742   0.27358   0.01267  Uiso   1.00
H1     H     0.78030   0.23650   0.24880   0.01267  Uiso   1.00
H2     H     0.82000   0.12900   0.43930   0.01267  Uiso   1.00
H3     H     0.68000   0.62900   0.93930   0.01267  Uiso   1.00
H4     H     0.18000   0.87100   0.56070   0.01267  Uiso   1.00
H5     H     0.91800   0.81510   0.02480   0.01267  Uiso   1.00
H6     H     0.14150   0.15410   0.07570   0.01267  Uiso   1.00
H7     H     0.19140   0.85120   0.45090   0.01267  Uiso   1.00
H8     H     0.84920   0.73620   0.22040   0.01267  Uiso   1.00
H9     H     0.30860   0.35120   0.95090   0.01267  Uiso   1.00
H10    H     0.69140   0.64880   0.04910   0.01267  Uiso   1.00
H11    H     0.28030   0.26350   0.25120   0.01267  Uiso   1.00
H12    H     0.65080   0.23620   0.72040   0.01267  Uiso   1.00
H13    H     0.80860   0.14880   0.54910   0.01267  Uiso   1.00
H14    H     0.08200   0.18490   0.97520   0.01267  Uiso   1.00
H15    H     0.15080   0.26380   0.77960   0.01267  Uiso   1.00
H16    H     0.35850   0.65410   0.57570   0.01267  Uiso   1.00
H17    H     0.34920   0.76380   0.27960   0.01267  Uiso   1.00
H18    H     0.71970   0.73650   0.74880   0.01267  Uiso   1.00
H19    H     0.85850   0.84590   0.92430   0.01267  Uiso   1.00
H20    H     0.41800   0.68490   0.47520   0.01267  Uiso   1.00
H21    H     0.58200   0.31510   0.52480   0.01267  Uiso   1.00
H22    H     0.64150   0.34590   0.42430   0.01267  Uiso   1.00
H23    H     0.32000   0.37100   0.06070   0.01267  Uiso   1.00
H24    H     0.21970   0.76350   0.75120   0.01267  Uiso   1.00
C1     C     0.31640   0.69860   0.59680   0.01267  Uiso   1.00
C2     C     0.87740   0.78280   0.05409   0.01267  Uiso   1.00
C3     C     0.79900   0.73290   0.02343   0.01267  Uiso   1.00
C4     C     0.52440   0.34630   0.65947   0.01267  Uiso   1.00
C5     C     0.72480   0.23540   0.44532   0.01267  Uiso   1.00
C6     C     0.26120   0.81710   0.35848   0.01267  Uiso   1.00
C7     C     0.79600   0.80170   0.83047   0.01267  Uiso   1.00
C8     C     0.18360   0.19860   0.09680   0.01267  Uiso   1.00
C9     C     0.18570   0.82490   0.66000   0.01267  Uiso   1.00
C10    C     0.19750   0.87290   0.31259   0.01267  Uiso   1.00
C11    C     0.23880   0.31710   0.85848   0.01267  Uiso   1.00
C12    C     0.69750   0.62710   0.18741   0.01267  Uiso   1.00
C13    C     0.89540   0.78490   0.12735   0.01267  Uiso   1.00
C14    C     0.81430   0.17510   0.34000   0.01267  Uiso   1.00
C15    C     0.80250   0.12710   0.68741   0.01267  Uiso   1.00
C16    C     0.20920   0.82680   0.58778   0.01267  Uiso   1.00
C17    C     0.65620   0.37280   0.28704   0.01267  Uiso   1.00
C18    C     0.97560   0.84630   0.15947   0.01267  Uiso   1.00
C19    C     0.76830   0.23760   0.29802   0.01267  Uiso   1.00
C20    C     0.25690   0.31670   0.93152   0.01267  Uiso   1.00
C21    C     0.66270   0.23490   0.67125   0.01267  Uiso   1.00
C22    C     0.89270   0.11150   0.30919   0.01267  Uiso   1.00
C23    C     0.77520   0.73540   0.94532   0.01267  Uiso   1.00
C24    C     0.60460   0.28490   0.62735   0.01267  Uiso   1.00
C25    C     0.73880   0.18290   0.64152   0.01267  Uiso   1.00
C26    C     0.15620   0.12720   0.21296   0.01267  Uiso   1.00
C27    C     0.73170   0.73760   0.79802   0.01267  Uiso   1.00
C28    C     0.70100   0.23290   0.52343   0.01267  Uiso   1.00
C29    C     0.70920   0.67320   0.91222   0.01267  Uiso   1.00
C30    C     0.34380   0.62720   0.71296   0.01267  Uiso   1.00
C31    C     0.33730   0.76510   0.32875   0.01267  Uiso   1.00
C32    C     0.76120   0.68290   0.14152   0.01267  Uiso   1.00
C33    C     0.83730   0.73490   0.17125   0.01267  Uiso   1.00
C34    C     0.29080   0.32680   0.08778   0.01267  Uiso   1.00
C35    C     0.23170   0.76240   0.70198   0.01267  Uiso   1.00
C36    C     0.84380   0.87280   0.78704   0.01267  Uiso   1.00
C37    C     0.22480   0.26460   0.05468   0.01267  Uiso   1.00
C38    C     0.10730   0.88850   0.69081   0.01267  Uiso   1.00
C39    C     0.30250   0.37290   0.81259   0.01267  Uiso   1.00
C40    C     0.29600   0.69830   0.66953   0.01267  Uiso   1.00
C41    C     0.26830   0.26240   0.20198   0.01267  Uiso   1.00
C42    C     0.24310   0.81670   0.43152   0.01267  Uiso   1.00
C43    C     0.62260   0.28280   0.55409   0.01267  Uiso   1.00
C44    C     0.70400   0.30170   0.33047   0.01267  Uiso   1.00
C45    C     0.20100   0.26710   0.97657   0.01267  Uiso   1.00
C46    C     0.12260   0.21720   0.94591   0.01267  Uiso   1.00
C47    C     0.16270   0.26510   0.82875   0.01267  Uiso   1.00
C48    C     0.39270   0.38850   0.19081   0.01267  Uiso   1.00
C49    C     0.20400   0.19830   0.16953   0.01267  Uiso   1.00
C50    C     0.29900   0.76710   0.47657   0.01267  Uiso   1.00
C51    C     0.75690   0.18330   0.56848   0.01267  Uiso   1.00
C52    C     0.27520   0.76460   0.55468   0.01267  Uiso   1.00
C53    C     0.81640   0.80140   0.90320   0.01267  Uiso   1.00
C54    C     0.68570   0.67510   0.84000   0.01267  Uiso   1.00
C55    C     0.31430   0.32490   0.16000   0.01267  Uiso   1.00
C56    C     0.79080   0.17320   0.41222   0.01267  Uiso   1.00
C57    C     0.74310   0.68330   0.06848   0.01267  Uiso   1.00
C58    C     0.47560   0.65370   0.34053   0.01267  Uiso   1.00
C59    C     0.02440   0.15370   0.84053   0.01267  Uiso   1.00
C60    C     0.10460   0.21510   0.87265   0.01267  Uiso   1.00
C61    C     0.37740   0.71720   0.44591   0.01267  Uiso   1.00
C62    C     0.60730   0.61150   0.80919   0.01267  Uiso   1.00
C63    C     0.39540   0.71510   0.37265   0.01267  Uiso   1.00
C64    C     0.68360   0.30140   0.40320   0.01267  Uiso   1.00
O1     O     0.91236   0.11098   0.24362   0.01267  Uiso   1.00
O2     O     0.95658   0.13408   0.87989   0.01267  Uiso   1.00
O3     O     0.64669   0.35836   0.22084   0.01267  Uiso   1.00
O4     O     0.78934   0.13009   0.75380   0.01267  Uiso   1.00
O5     O     0.03466   0.12609   0.77565   0.01267  Uiso   1.00
O6     O     0.93607   0.06242   0.35190   0.01267  Uiso   1.00
O7     O     0.85331   0.85836   0.72084   0.01267  Uiso   1.00
O8     O     0.04342   0.86592   0.12011   0.01267  Uiso   1.00
O9     O     0.87526   0.94785   0.82118   0.01267  Uiso   1.00
O10    O     0.21066   0.86991   0.24620   0.01267  Uiso   1.00
O11    O     0.45658   0.36592   0.62011   0.01267  Uiso   1.00
O12    O     0.14669   0.14164   0.27916   0.01267  Uiso   1.00
O13    O     0.35331   0.64164   0.77916   0.01267  Uiso   1.00
O14    O     0.41236   0.38902   0.25638   0.01267  Uiso   1.00
O15    O     0.37526   0.55215   0.67882   0.01267  Uiso   1.00
O16    O     0.63311   0.57936   0.15469   0.01267  Uiso   1.00
O17    O     0.12474   0.05215   0.17882   0.01267  Uiso   1.00
O18    O     0.36689   0.42064   0.84531   0.01267  Uiso   1.00
O19    O     0.08764   0.88902   0.75638   0.01267  Uiso   1.00
O20    O     0.28934   0.36991   0.74620   0.01267  Uiso   1.00
O21    O     0.58764   0.61098   0.74362   0.01267  Uiso   1.00
O22    O     0.86689   0.07936   0.65469   0.01267  Uiso   1.00
O23    O     0.43607   0.43758   0.14810   0.01267  Uiso   1.00
O24    O     0.96534   0.87391   0.22435   0.01267  Uiso   1.00
O25    O     0.54342   0.63408   0.37989   0.01267  Uiso   1.00
O26    O     0.06393   0.93758   0.64810   0.01267  Uiso   1.00
O27    O     0.56393   0.56242   0.85190   0.01267  Uiso   1.00
O28    O     0.53466   0.37391   0.72435   0.01267  Uiso   1.00
O29    O     0.13311   0.92064   0.34531   0.01267  Uiso   1.00
O30    O     0.71066   0.63009   0.25380   0.01267  Uiso   1.00
O31    O     0.46534   0.62609   0.27565   0.01267  Uiso   1.00
O32    O     0.62474   0.44785   0.32118   0.01267  Uiso   1.00
