data_image0
_cell_length_a       8.301
_cell_length_b       11.146
_cell_length_c       13.363
_cell_angle_alpha    86.427
_cell_angle_beta     84.122
_cell_angle_gamma    83.573

_symmetry_space_group_name_H-M    "P 1"
_symmetry_int_tables_number       1

loop_
  _symmetry_equiv_pos_as_xyz
  'x, y, z'

loop_
  _atom_site_label
  _atom_site_occupancy
  _atom_site_fract_x
  _atom_site_fract_y
  _atom_site_fract_z
  _atom_site_thermal_displace_type
  _atom_site_B_iso_or_equiv
  _atom_site_type_symbol
  Zn1      1.0000 0.94382  0.31197  0.79517  Biso   1.000  Zn
  C1       1.0000 0.57230  0.51150  0.97980  Biso   1.000  C
  H1       1.0000 0.59460  0.59160  0.97110  Biso   1.000  H
  C2       1.0000 0.59290  0.29670  0.75610  Biso   1.000  C
  H2       1.0000 0.55730  0.36950  0.78580  Biso   1.000  H
  C3       1.0000 0.49670  0.22400  0.72040  Biso   1.000  C
  H3       1.0000 0.38410  0.23670  0.72060  Biso   1.000  H
  C4       1.0000 0.74920  0.14560  0.69730  Biso   1.000  C
  H4       1.0000 0.84070  0.09330  0.67770  Biso   1.000  H
  C5       1.0000 0.54700  0.02460  0.63450  Biso   1.000  C
  H5       1.0000 0.44380  0.00340  0.66770  Biso   1.000  H
  H6       1.0000 0.62730  0.95520  0.64190  Biso   1.000  H
  C6       1.0000 0.52980  0.05310  0.52420  Biso   1.000  C
  H7       1.0000 0.63420  0.07030  0.49010  Biso   1.000  H
  H8       1.0000 0.45300  0.12450  0.51640  Biso   1.000  H
  C7       1.0000 0.09840  0.28790  0.99050  Biso   1.000  C
  H9       1.0000 0.06900  0.36910  0.00240  Biso   1.000  H
  C8       1.0000 0.17430  0.20710  0.05360  Biso   1.000  C
  H10      1.0000 0.20700  0.22170  0.11580  Biso   1.000  H
  C9       1.0000 0.13020  0.11890  0.92000  Biso   1.000  C
  H11      1.0000 0.12810  0.05960  0.87430  Biso   1.000  H
  C10      1.0000 0.27340  0.98360  0.04670  Biso   1.000  C
  H12      1.0000 0.25530  0.92000  0.00410  Biso   1.000  H
  H13      1.0000 0.22410  0.96490  0.11400  Biso   1.000  H
  C11      1.0000 0.45490  0.98610  0.04990  Biso   1.000  C
  H14      1.0000 0.47200  0.04620  0.09610  Biso   1.000  H
  H15      1.0000 0.50060  0.90810  0.07650  Biso   1.000  H
  C12      1.0000 0.12380  0.53240  0.75300  Biso   1.000  C
  H16      1.0000 0.10670  0.55190  0.82020  Biso   1.000  H
  C13      1.0000 0.20580  0.59450  0.67950  Biso   1.000  C
  H17      1.0000 0.25620  0.66350  0.68660  Biso   1.000  H
  C14      1.0000 0.11910  0.44330  0.61730  Biso   1.000  C
  H18      1.0000 0.09920  0.38870  0.57130  Biso   1.000  H
  C15      1.0000 0.27890  0.57290  0.49310  Biso   1.000  C
  H19      1.0000 0.24010  0.65580  0.47450  Biso   1.000  H
  H20      1.0000 0.24900  0.52140  0.44360  Biso   1.000  H
  C16      1.0000 0.46520  0.56050  0.49300  Biso   1.000  C
  H21      1.0000 0.51210  0.59430  0.42940  Biso   1.000  H
  H22      1.0000 0.49340  0.60730  0.54620  Biso   1.000  H
  C17      1.0000 0.70290  0.41490  0.94710  Biso   1.000  C
  O1       1.0000 0.80680  0.44720  0.87562  Biso   1.000  O
  O2       1.0000 0.70300  0.31150  0.98539  Biso   1.000  O
  N1       1.0000 0.75370  0.24700  0.74206  Biso   1.000  N
  N2       1.0000 0.59690  0.12720  0.68363  Biso   1.000  N
  N3       1.0000 0.07060  0.23250  0.90574  Biso   1.000  N
  N4       1.0000 0.19390  0.09920  0.00802  Biso   1.000  N
  N5       1.0000 0.06930  0.43570  0.71382  Biso   1.000  N
  N6       1.0000 0.20150  0.53860  0.59340  Biso   1.000  N
  Zn2      1.0000 0.05618  0.68803  0.20483  Biso   1.000  Zn
  C18      1.0000 0.42770  0.48850  0.02020  Biso   1.000  C
  H23      1.0000 0.40540  0.40840  0.02890  Biso   1.000  H
  C19      1.0000 0.40710  0.70330  0.24390  Biso   1.000  C
  H24      1.0000 0.44270  0.63050  0.21420  Biso   1.000  H
  C20      1.0000 0.50330  0.77600  0.27960  Biso   1.000  C
  H25      1.0000 0.61590  0.76330  0.27940  Biso   1.000  H
  C21      1.0000 0.25080  0.85440  0.30270  Biso   1.000  C
  H26      1.0000 0.15930  0.90670  0.32230  Biso   1.000  H
  C22      1.0000 0.45300  0.97540  0.36550  Biso   1.000  C
  H27      1.0000 0.55620  0.99660  0.33230  Biso   1.000  H
  H28      1.0000 0.37270  0.04480  0.35810  Biso   1.000  H
  C23      1.0000 0.47020  0.94690  0.47580  Biso   1.000  C
  H29      1.0000 0.36580  0.92970  0.50990  Biso   1.000  H
  H30      1.0000 0.54700  0.87550  0.48360  Biso   1.000  H
  C24      1.0000 0.90160  0.71210  0.00950  Biso   1.000  C
  H31      1.0000 0.93100  0.63090  0.99760  Biso   1.000  H
  C25      1.0000 0.82570  0.79290  0.94640  Biso   1.000  C
  H32      1.0000 0.79300  0.77830  0.88420  Biso   1.000  H
  C26      1.0000 0.86980  0.88110  0.08000  Biso   1.000  C
  H33      1.0000 0.87190  0.94040  0.12570  Biso   1.000  H
  C27      1.0000 0.72660  0.01640  0.95330  Biso   1.000  C
  H34      1.0000 0.74470  0.08000  0.99590  Biso   1.000  H
  H35      1.0000 0.77590  0.03510  0.88600  Biso   1.000  H
  C28      1.0000 0.54510  0.01390  0.95010  Biso   1.000  C
  H36      1.0000 0.52800  0.95380  0.90390  Biso   1.000  H
  H37      1.0000 0.49940  0.09190  0.92350  Biso   1.000  H
  C29      1.0000 0.87620  0.46760  0.24700  Biso   1.000  C
  H38      1.0000 0.89330  0.44810  0.17980  Biso   1.000  H
  C30      1.0000 0.79420  0.40550  0.32050  Biso   1.000  C
  H39      1.0000 0.74380  0.33650  0.31340  Biso   1.000  H
  C31      1.0000 0.88090  0.55670  0.38270  Biso   1.000  C
  H40      1.0000 0.90080  0.61130  0.42870  Biso   1.000  H
  C32      1.0000 0.72110  0.42710  0.50690  Biso   1.000  C
  H41      1.0000 0.75990  0.34420  0.52550  Biso   1.000  H
  H42      1.0000 0.75100  0.47860  0.55640  Biso   1.000  H
  C33      1.0000 0.53480  0.43950  0.50700  Biso   1.000  C
  H43      1.0000 0.48790  0.40570  0.57060  Biso   1.000  H
  H44      1.0000 0.50660  0.39270  0.45380  Biso   1.000  H
  C34      1.0000 0.29710  0.58510  0.05290  Biso   1.000  C
  O3       1.0000 0.19320  0.55280  0.12438  Biso   1.000  O
  O4       1.0000 0.29700  0.68850  0.01461  Biso   1.000  O
  N7       1.0000 0.24630  0.75300  0.25794  Biso   1.000  N
  N8       1.0000 0.40310  0.87280  0.31637  Biso   1.000  N
  N9       1.0000 0.92940  0.76750  0.09426  Biso   1.000  N
  N10      1.0000 0.80610  0.90080  0.99198  Biso   1.000  N
  N11      1.0000 0.93070  0.56430  0.28618  Biso   1.000  N
  N12      1.0000 0.79850  0.46140  0.40660  Biso   1.000  N
