data_SOCPOQ_charged
_audit_creation_date              2014-07-02
_audit_creation_method            'Materials Studio'
_symmetry_space_group_name_H-M    'P1'
_symmetry_Int_Tables_number       1
_symmetry_cell_setting            triclinic
loop_
_symmetry_equiv_pos_as_xyz
  x,y,z
_cell_length_a                    21.4457
_cell_length_b                    21.4457
_cell_length_c                    21.4457
_cell_angle_alpha                 109.4710
_cell_angle_beta                  109.4710
_cell_angle_gamma                 109.4710
loop_
_atom_site_label
_atom_site_type_symbol
_atom_site_fract_x
_atom_site_fract_y
_atom_site_fract_z
_atom_site_U_iso_or_equiv
_atom_site_adp_type
_atom_site_occupancy
Cd1    Cd    0.50000   0.50000  -0.00000   0.01267  Uiso   1.00
Cd2    Cd    0.00000   0.50000   0.50000   0.01267  Uiso   1.00
Cd3    Cd    0.50000   0.00000   0.50000   0.01267  Uiso   1.00
Cd4    Cd    0.00000   0.00000   0.00000   0.01267  Uiso   1.00
H1     H     0.86120   0.54080   0.15440   0.01267  Uiso   1.00
H2     H     0.58010   0.42120   0.08770   0.01267  Uiso   1.00
H3     H     0.68900   0.41700   0.13720   0.01267  Uiso   1.00
H4     H     0.79290   0.58960   0.10290   0.01267  Uiso   1.00
H5     H     0.67940   0.58920   0.05420   0.01267  Uiso   1.00
H6     H     0.97250   0.59970   0.26640   0.01267  Uiso   1.00
H7     H     0.88640   0.70680   0.34560   0.01267  Uiso   1.00
H8     H     0.83350   0.49240   0.41230   0.01267  Uiso   1.00
H9     H     0.77980   0.55180   0.36280   0.01267  Uiso   1.00
H10    H     0.98670   0.69000   0.39710   0.01267  Uiso   1.00
H11    H     0.03500   0.62520   0.44580   0.01267  Uiso   1.00
H12    H     0.83330   0.70610   0.23360   0.01267  Uiso   1.00
H13    H     0.61360   0.95920   0.82040   0.01267  Uiso   1.00
H14    H     0.66650   0.07880   0.65890   0.01267  Uiso   1.00
H15    H     0.72020   0.08300   0.77200   0.01267  Uiso   1.00
H16    H     0.51330   0.91040   0.70330   0.01267  Uiso   1.00
H17    H     0.46500   0.91080   0.59020   0.01267  Uiso   1.00
H18    H     0.66670   0.90030   0.87280   0.01267  Uiso   1.00
H19    H     0.63880   0.79320   0.67960   0.01267  Uiso   1.00
H20    H     0.91990   0.00760   0.84110   0.01267  Uiso   1.00
H21    H     0.81100   0.94820   0.72800   0.01267  Uiso   1.00
H22    H     0.70710   0.81000   0.79670   0.01267  Uiso   1.00
H23    H     0.82060   0.87480   0.90980   0.01267  Uiso   1.00
H24    H     0.52750   0.79390   0.62720   0.01267  Uiso   1.00
H25    H     0.32040   0.61360   0.45920   0.01267  Uiso   1.00
H26    H     0.15890   0.66650   0.57880   0.01267  Uiso   1.00
H27    H     0.27200   0.72020   0.58300   0.01267  Uiso   1.00
H28    H     0.20330   0.51330   0.41040   0.01267  Uiso   1.00
H29    H     0.09020   0.46500   0.41080   0.01267  Uiso   1.00
H30    H     0.37280   0.66670   0.40030   0.01267  Uiso   1.00
H31    H     0.17960   0.63880   0.29320   0.01267  Uiso   1.00
H32    H     0.34110   0.91990   0.50760   0.01267  Uiso   1.00
H33    H     0.22800   0.81100   0.44820   0.01267  Uiso   1.00
H34    H     0.29670   0.70710   0.31000   0.01267  Uiso   1.00
H35    H     0.40980   0.82060   0.37480   0.01267  Uiso   1.00
H36    H     0.12720   0.52750   0.29390   0.01267  Uiso   1.00
H37    H     0.65440   0.86120   0.04080   0.01267  Uiso   1.00
H38    H     0.58770   0.58010   0.92120   0.01267  Uiso   1.00
H39    H     0.63720   0.68900   0.91700   0.01267  Uiso   1.00
H40    H     0.60290   0.79290   0.08960   0.01267  Uiso   1.00
H41    H     0.55420   0.67940   0.08920   0.01267  Uiso   1.00
H42    H     0.76640   0.97250   0.09970   0.01267  Uiso   1.00
H43    H     0.84560   0.88640   0.20680   0.01267  Uiso   1.00
H44    H     0.91230   0.83350   0.99240   0.01267  Uiso   1.00
H45    H     0.86280   0.77980   0.05180   0.01267  Uiso   1.00
H46    H     0.89710   0.98670   0.19000   0.01267  Uiso   1.00
H47    H     0.94580   0.03500   0.12520   0.01267  Uiso   1.00
H48    H     0.73360   0.83330   0.20610   0.01267  Uiso   1.00
H49    H     0.70680   0.84560   0.38640   0.01267  Uiso   1.00
H50    H     0.49240   0.91230   0.33350   0.01267  Uiso   1.00
H51    H     0.55180   0.86280   0.27980   0.01267  Uiso   1.00
H52    H     0.69000   0.89710   0.48670   0.01267  Uiso   1.00
H53    H     0.62520   0.94580   0.53500   0.01267  Uiso   1.00
H54    H     0.70610   0.73360   0.33330   0.01267  Uiso   1.00
H55    H     0.54080   0.65440   0.36120   0.01267  Uiso   1.00
H56    H     0.42120   0.58770   0.08010   0.01267  Uiso   1.00
H57    H     0.41700   0.63720   0.18900   0.01267  Uiso   1.00
H58    H     0.58960   0.60290   0.29290   0.01267  Uiso   1.00
H59    H     0.58920   0.55420   0.17940   0.01267  Uiso   1.00
H60    H     0.59970   0.76640   0.47250   0.01267  Uiso   1.00
H61    H     0.79320   0.17960   0.13880   0.01267  Uiso   1.00
H62    H     0.00760   0.34110   0.41990   0.01267  Uiso   1.00
H63    H     0.94820   0.22800   0.31100   0.01267  Uiso   1.00
H64    H     0.81000   0.29670   0.20710   0.01267  Uiso   1.00
H65    H     0.87480   0.40980   0.32060   0.01267  Uiso   1.00
H66    H     0.79390   0.12720   0.02750   0.01267  Uiso   1.00
H67    H     0.95920   0.32040   0.11360   0.01267  Uiso   1.00
H68    H     0.07880   0.15890   0.16650   0.01267  Uiso   1.00
H69    H     0.08300   0.27200   0.22020   0.01267  Uiso   1.00
H70    H     0.91040   0.20330   0.01330   0.01267  Uiso   1.00
H71    H     0.91080   0.09020   0.96500   0.01267  Uiso   1.00
H72    H     0.90030   0.37280   0.16670   0.01267  Uiso   1.00
H73    H     0.13880   0.45920   0.84560   0.01267  Uiso   1.00
H74    H     0.41990   0.57880   0.91230   0.01267  Uiso   1.00
H75    H     0.31100   0.58300   0.86280   0.01267  Uiso   1.00
H76    H     0.20710   0.41040   0.89710   0.01267  Uiso   1.00
H77    H     0.32060   0.41080   0.94580   0.01267  Uiso   1.00
H78    H     0.02750   0.40030   0.73360   0.01267  Uiso   1.00
H79    H     0.11360   0.29320   0.65440   0.01267  Uiso   1.00
H80    H     0.16650   0.50760   0.58770   0.01267  Uiso   1.00
H81    H     0.22020   0.44820   0.63720   0.01267  Uiso   1.00
H82    H     0.01330   0.31000   0.60290   0.01267  Uiso   1.00
H83    H     0.96500   0.37480   0.55420   0.01267  Uiso   1.00
H84    H     0.16670   0.29390   0.76640   0.01267  Uiso   1.00
H85    H     0.38640   0.04080   0.17960   0.01267  Uiso   1.00
H86    H     0.33350   0.92120   0.34110   0.01267  Uiso   1.00
H87    H     0.27980   0.91700   0.22800   0.01267  Uiso   1.00
H88    H     0.48670   0.08960   0.29670   0.01267  Uiso   1.00
H89    H     0.53500   0.08920   0.40980   0.01267  Uiso   1.00
H90    H     0.33330   0.09970   0.12720   0.01267  Uiso   1.00
H91    H     0.36120   0.20680   0.32040   0.01267  Uiso   1.00
H92    H     0.08010   0.99240   0.15890   0.01267  Uiso   1.00
H93    H     0.18900   0.05180   0.27200   0.01267  Uiso   1.00
H94    H     0.29290   0.19000   0.20330   0.01267  Uiso   1.00
H95    H     0.17940   0.12520   0.09020   0.01267  Uiso   1.00
H96    H     0.47250   0.20610   0.37280   0.01267  Uiso   1.00
H97    H     0.67960   0.38640   0.54080   0.01267  Uiso   1.00
H98    H     0.84110   0.33350   0.42120   0.01267  Uiso   1.00
H99    H     0.72800   0.27980   0.41700   0.01267  Uiso   1.00
H100   H     0.79670   0.48670   0.58960   0.01267  Uiso   1.00
H101   H     0.90980   0.53500   0.58920   0.01267  Uiso   1.00
H102   H     0.62720   0.33330   0.59970   0.01267  Uiso   1.00
H103   H     0.82040   0.36120   0.70680   0.01267  Uiso   1.00
H104   H     0.65890   0.08010   0.49240   0.01267  Uiso   1.00
H105   H     0.77200   0.18900   0.55180   0.01267  Uiso   1.00
H106   H     0.70330   0.29290   0.69000   0.01267  Uiso   1.00
H107   H     0.59020   0.17940   0.62520   0.01267  Uiso   1.00
H108   H     0.87280   0.47250   0.70610   0.01267  Uiso   1.00
H109   H     0.34560   0.13880   0.95920   0.01267  Uiso   1.00
H110   H     0.41230   0.41990   0.07880   0.01267  Uiso   1.00
H111   H     0.36280   0.31100   0.08300   0.01267  Uiso   1.00
H112   H     0.39710   0.20710   0.91040   0.01267  Uiso   1.00
H113   H     0.44580   0.32060   0.91080   0.01267  Uiso   1.00
H114   H     0.23360   0.02750   0.90030   0.01267  Uiso   1.00
H115   H     0.15440   0.11360   0.79320   0.01267  Uiso   1.00
H116   H     0.08770   0.16650   0.00760   0.01267  Uiso   1.00
H117   H     0.13720   0.22020   0.94820   0.01267  Uiso   1.00
H118   H     0.10290   0.01330   0.81000   0.01267  Uiso   1.00
H119   H     0.05420   0.96500   0.87480   0.01267  Uiso   1.00
H120   H     0.26640   0.16670   0.79390   0.01267  Uiso   1.00
H121   H     0.29320   0.15440   0.61360   0.01267  Uiso   1.00
H122   H     0.50760   0.08770   0.66650   0.01267  Uiso   1.00
H123   H     0.44820   0.13720   0.72020   0.01267  Uiso   1.00
H124   H     0.31000   0.10290   0.51330   0.01267  Uiso   1.00
H125   H     0.37480   0.05420   0.46500   0.01267  Uiso   1.00
H126   H     0.29390   0.26640   0.66670   0.01267  Uiso   1.00
H127   H     0.45920   0.34560   0.63880   0.01267  Uiso   1.00
H128   H     0.57880   0.41230   0.91990   0.01267  Uiso   1.00
H129   H     0.58300   0.36280   0.81100   0.01267  Uiso   1.00
H130   H     0.41040   0.39710   0.70710   0.01267  Uiso   1.00
H131   H     0.41080   0.44580   0.82060   0.01267  Uiso   1.00
H132   H     0.40030   0.23360   0.52750   0.01267  Uiso   1.00
H133   H     0.20680   0.82040   0.86120   0.01267  Uiso   1.00
H134   H     0.99240   0.65890   0.58010   0.01267  Uiso   1.00
H135   H     0.05180   0.77200   0.68900   0.01267  Uiso   1.00
H136   H     0.19000   0.70330   0.79290   0.01267  Uiso   1.00
H137   H     0.12520   0.59020   0.67940   0.01267  Uiso   1.00
H138   H     0.20610   0.87280   0.97250   0.01267  Uiso   1.00
H139   H     0.04080   0.67960   0.88640   0.01267  Uiso   1.00
H140   H     0.92120   0.84110   0.83350   0.01267  Uiso   1.00
H141   H     0.91700   0.72800   0.77980   0.01267  Uiso   1.00
H142   H     0.08960   0.79670   0.98670   0.01267  Uiso   1.00
H143   H     0.08920   0.90980   0.03500   0.01267  Uiso   1.00
H144   H     0.09970   0.62720   0.83330   0.01267  Uiso   1.00
C1     C     0.62339   0.45692   0.09007   0.01267  Uiso   1.00
C2     C     0.68902   0.45362   0.12080   0.01267  Uiso   1.00
C3     C     0.75444   0.50435   0.12641   0.01267  Uiso   1.00
C4     C     0.74899   0.55449   0.10030   0.01267  Uiso   1.00
C5     C     0.68070   0.55319   0.07111   0.01267  Uiso   1.00
C6     C     0.84322   0.46429   0.18313   0.01267  Uiso   1.00
C7     C     0.92506   0.48388   0.21244   0.01267  Uiso   1.00
C8     C     0.98379   0.55886   0.25703   0.01267  Uiso   1.00
C9     C     0.86685   0.53332   0.40993   0.01267  Uiso   1.00
C10    C     0.83282   0.56822   0.37920   0.01267  Uiso   1.00
C11    C     0.87794   0.62803   0.37359   0.01267  Uiso   1.00
C12    C     0.95419   0.64869   0.39970   0.01267  Uiso   1.00
C13    C     0.98208   0.60959   0.42889   0.01267  Uiso   1.00
C14    C     0.78116   0.66009   0.31687   0.01267  Uiso   1.00
C15    C     0.77144   0.71262   0.28756   0.01267  Uiso   1.00
C16    C     0.80183   0.72676   0.24297   0.01267  Uiso   1.00
C17    C     0.63315   0.04308   0.66647   0.01267  Uiso   1.00
C18    C     0.66718   0.04638   0.73540   0.01267  Uiso   1.00
C19    C     0.62206   0.99565   0.75009   0.01267  Uiso   1.00
C20    C     0.54581   0.94551   0.69450   0.01267  Uiso   1.00
C21    C     0.51792   0.94681   0.62751   0.01267  Uiso   1.00
C22    C     0.71884   0.03571   0.87893   0.01267  Uiso   1.00
C23    C     0.72856   0.01612   0.94118   0.01267  Uiso   1.00
C24    C     0.69817   0.94114   0.92493   0.01267  Uiso   1.00
C25    C     0.87661   0.96668   0.83353   0.01267  Uiso   1.00
C26    C     0.81098   0.93178   0.76460   0.01267  Uiso   1.00
C27    C     0.74556   0.87197   0.74991   0.01267  Uiso   1.00
C28    C     0.75101   0.85131   0.80550   0.01267  Uiso   1.00
C29    C     0.81930   0.89041   0.87249   0.01267  Uiso   1.00
C30    C     0.65678   0.83991   0.62107   0.01267  Uiso   1.00
C31    C     0.57494   0.78738   0.55882   0.01267  Uiso   1.00
C32    C     0.51621   0.77324   0.57507   0.01267  Uiso   1.00
C33    C     0.16647   0.63315   0.54308   0.01267  Uiso   1.00
C34    C     0.23540   0.66718   0.54638   0.01267  Uiso   1.00
C35    C     0.25009   0.62206   0.49565   0.01267  Uiso   1.00
C36    C     0.19450   0.54581   0.44551   0.01267  Uiso   1.00
C37    C     0.12751   0.51792   0.44681   0.01267  Uiso   1.00
C38    C     0.37893   0.71884   0.53571   0.01267  Uiso   1.00
C39    C     0.44118   0.72856   0.51612   0.01267  Uiso   1.00
C40    C     0.42493   0.69817   0.44114   0.01267  Uiso   1.00
C41    C     0.33353   0.87661   0.46668   0.01267  Uiso   1.00
C42    C     0.26460   0.81098   0.43178   0.01267  Uiso   1.00
C43    C     0.24991   0.74556   0.37197   0.01267  Uiso   1.00
C44    C     0.30550   0.75101   0.35131   0.01267  Uiso   1.00
C45    C     0.37249   0.81930   0.39041   0.01267  Uiso   1.00
C46    C     0.12107   0.65678   0.33991   0.01267  Uiso   1.00
C47    C     0.05882   0.57494   0.28738   0.01267  Uiso   1.00
C48    C     0.07507   0.51621   0.27324   0.01267  Uiso   1.00
C49    C     0.59007   0.62339   0.95692   0.01267  Uiso   1.00
C50    C     0.62080   0.68902   0.95362   0.01267  Uiso   1.00
C51    C     0.62641   0.75444   0.00435   0.01267  Uiso   1.00
C52    C     0.60030   0.74899   0.05449   0.01267  Uiso   1.00
C53    C     0.57111   0.68070   0.05319   0.01267  Uiso   1.00
C54    C     0.68313   0.84322   0.96429   0.01267  Uiso   1.00
C55    C     0.71244   0.92506   0.98388   0.01267  Uiso   1.00
C56    C     0.75703   0.98379   0.05886   0.01267  Uiso   1.00
C57    C     0.90993   0.86685   0.03332   0.01267  Uiso   1.00
C58    C     0.87920   0.83282   0.06822   0.01267  Uiso   1.00
C59    C     0.87359   0.87794   0.12803   0.01267  Uiso   1.00
C60    C     0.89970   0.95419   0.14869   0.01267  Uiso   1.00
C61    C     0.92889   0.98208   0.10959   0.01267  Uiso   1.00
C62    C     0.81687   0.78116   0.16009   0.01267  Uiso   1.00
C63    C     0.78756   0.77144   0.21262   0.01267  Uiso   1.00
C64    C     0.74297   0.80183   0.22676   0.01267  Uiso   1.00
C65    C     0.53332   0.90993   0.36685   0.01267  Uiso   1.00
C66    C     0.56822   0.87920   0.33282   0.01267  Uiso   1.00
C67    C     0.62803   0.87359   0.37794   0.01267  Uiso   1.00
C68    C     0.64869   0.89970   0.45419   0.01267  Uiso   1.00
C69    C     0.60959   0.92889   0.48208   0.01267  Uiso   1.00
C70    C     0.66009   0.81687   0.28116   0.01267  Uiso   1.00
C71    C     0.71262   0.78756   0.27144   0.01267  Uiso   1.00
C72    C     0.72676   0.74297   0.30183   0.01267  Uiso   1.00
C73    C     0.45692   0.59007   0.12339   0.01267  Uiso   1.00
C74    C     0.45362   0.62080   0.18902   0.01267  Uiso   1.00
C75    C     0.50435   0.62641   0.25444   0.01267  Uiso   1.00
C76    C     0.55449   0.60030   0.24899   0.01267  Uiso   1.00
C77    C     0.55319   0.57111   0.18070   0.01267  Uiso   1.00
C78    C     0.46429   0.68313   0.34322   0.01267  Uiso   1.00
C79    C     0.48388   0.71244   0.42506   0.01267  Uiso   1.00
C80    C     0.55886   0.75703   0.48379   0.01267  Uiso   1.00
C81    C     0.96668   0.33353   0.37661   0.01267  Uiso   1.00
C82    C     0.93178   0.26460   0.31098   0.01267  Uiso   1.00
C83    C     0.87197   0.24991   0.24556   0.01267  Uiso   1.00
C84    C     0.85131   0.30550   0.25101   0.01267  Uiso   1.00
C85    C     0.89041   0.37249   0.31930   0.01267  Uiso   1.00
C86    C     0.83991   0.12107   0.15678   0.01267  Uiso   1.00
C87    C     0.78738   0.05882   0.07494   0.01267  Uiso   1.00
C88    C     0.77324   0.07507   0.01621   0.01267  Uiso   1.00
C89    C     0.04308   0.16647   0.13315   0.01267  Uiso   1.00
C90    C     0.04638   0.23540   0.16718   0.01267  Uiso   1.00
C91    C     0.99565   0.25009   0.12206   0.01267  Uiso   1.00
C92    C     0.94551   0.19450   0.04581   0.01267  Uiso   1.00
C93    C     0.94681   0.12751   0.01792   0.01267  Uiso   1.00
C94    C     0.03571   0.37893   0.21884   0.01267  Uiso   1.00
C95    C     0.01612   0.44118   0.22856   0.01267  Uiso   1.00
C96    C     0.94114   0.42493   0.19817   0.01267  Uiso   1.00
C97    C     0.37661   0.54308   0.90993   0.01267  Uiso   1.00
C98    C     0.31098   0.54638   0.87920   0.01267  Uiso   1.00
C99    C     0.24556   0.49565   0.87359   0.01267  Uiso   1.00
C100   C     0.25101   0.44551   0.89970   0.01267  Uiso   1.00
C101   C     0.31930   0.44681   0.92889   0.01267  Uiso   1.00
C102   C     0.15678   0.53571   0.81687   0.01267  Uiso   1.00
C103   C     0.07494   0.51612   0.78756   0.01267  Uiso   1.00
C104   C     0.01621   0.44114   0.74297   0.01267  Uiso   1.00
C105   C     0.13315   0.46668   0.59007   0.01267  Uiso   1.00
C106   C     0.16718   0.43178   0.62080   0.01267  Uiso   1.00
C107   C     0.12206   0.37197   0.62641   0.01267  Uiso   1.00
C108   C     0.04581   0.35131   0.60030   0.01267  Uiso   1.00
C109   C     0.01792   0.39041   0.57111   0.01267  Uiso   1.00
C110   C     0.21884   0.33991   0.68313   0.01267  Uiso   1.00
C111   C     0.22856   0.28738   0.71244   0.01267  Uiso   1.00
C112   C     0.19817   0.27324   0.75703   0.01267  Uiso   1.00
C113   C     0.36685   0.95692   0.33353   0.01267  Uiso   1.00
C114   C     0.33282   0.95362   0.26460   0.01267  Uiso   1.00
C115   C     0.37794   0.00435   0.24991   0.01267  Uiso   1.00
C116   C     0.45419   0.05449   0.30550   0.01267  Uiso   1.00
C117   C     0.48208   0.05319   0.37249   0.01267  Uiso   1.00
C118   C     0.28116   0.96429   0.12107   0.01267  Uiso   1.00
C119   C     0.27144   0.98388   0.05882   0.01267  Uiso   1.00
C120   C     0.30183   0.05886   0.07507   0.01267  Uiso   1.00
C121   C     0.12339   0.03332   0.16647   0.01267  Uiso   1.00
C122   C     0.18902   0.06822   0.23540   0.01267  Uiso   1.00
C123   C     0.25444   0.12803   0.25009   0.01267  Uiso   1.00
C124   C     0.24899   0.14869   0.19450   0.01267  Uiso   1.00
C125   C     0.18070   0.10959   0.12751   0.01267  Uiso   1.00
C126   C     0.34322   0.16009   0.37893   0.01267  Uiso   1.00
C127   C     0.42506   0.21262   0.44118   0.01267  Uiso   1.00
C128   C     0.48379   0.22676   0.42493   0.01267  Uiso   1.00
C129   C     0.83353   0.36685   0.45692   0.01267  Uiso   1.00
C130   C     0.76460   0.33282   0.45362   0.01267  Uiso   1.00
C131   C     0.74991   0.37794   0.50435   0.01267  Uiso   1.00
C132   C     0.80550   0.45419   0.55449   0.01267  Uiso   1.00
C133   C     0.87249   0.48208   0.55319   0.01267  Uiso   1.00
C134   C     0.62107   0.28116   0.46429   0.01267  Uiso   1.00
C135   C     0.55882   0.27144   0.48388   0.01267  Uiso   1.00
C136   C     0.57507   0.30183   0.55886   0.01267  Uiso   1.00
C137   C     0.66647   0.12339   0.53332   0.01267  Uiso   1.00
C138   C     0.73540   0.18902   0.56822   0.01267  Uiso   1.00
C139   C     0.75009   0.25444   0.62803   0.01267  Uiso   1.00
C140   C     0.69450   0.24899   0.64869   0.01267  Uiso   1.00
C141   C     0.62751   0.18070   0.60959   0.01267  Uiso   1.00
C142   C     0.87893   0.34322   0.66009   0.01267  Uiso   1.00
C143   C     0.94118   0.42506   0.71262   0.01267  Uiso   1.00
C144   C     0.92493   0.48379   0.72676   0.01267  Uiso   1.00
C145   C     0.40993   0.37661   0.04308   0.01267  Uiso   1.00
C146   C     0.37920   0.31098   0.04638   0.01267  Uiso   1.00
C147   C     0.37359   0.24556   0.99565   0.01267  Uiso   1.00
C148   C     0.39970   0.25101   0.94551   0.01267  Uiso   1.00
C149   C     0.42889   0.31930   0.94681   0.01267  Uiso   1.00
C150   C     0.31687   0.15678   0.03571   0.01267  Uiso   1.00
C151   C     0.28756   0.07494   0.01612   0.01267  Uiso   1.00
C152   C     0.24297   0.01621   0.94114   0.01267  Uiso   1.00
C153   C     0.09007   0.13315   0.96668   0.01267  Uiso   1.00
C154   C     0.12080   0.16718   0.93178   0.01267  Uiso   1.00
C155   C     0.12641   0.12206   0.87197   0.01267  Uiso   1.00
C156   C     0.10030   0.04581   0.85131   0.01267  Uiso   1.00
C157   C     0.07111   0.01792   0.89041   0.01267  Uiso   1.00
C158   C     0.18313   0.21884   0.83991   0.01267  Uiso   1.00
C159   C     0.21244   0.22856   0.78738   0.01267  Uiso   1.00
C160   C     0.25703   0.19817   0.77324   0.01267  Uiso   1.00
C161   C     0.46668   0.09007   0.63315   0.01267  Uiso   1.00
C162   C     0.43178   0.12080   0.66718   0.01267  Uiso   1.00
C163   C     0.37197   0.12641   0.62206   0.01267  Uiso   1.00
C164   C     0.35131   0.10030   0.54581   0.01267  Uiso   1.00
C165   C     0.39041   0.07111   0.51792   0.01267  Uiso   1.00
C166   C     0.33991   0.18313   0.71884   0.01267  Uiso   1.00
C167   C     0.28738   0.21244   0.72856   0.01267  Uiso   1.00
C168   C     0.27324   0.25703   0.69817   0.01267  Uiso   1.00
C169   C     0.54308   0.40993   0.87661   0.01267  Uiso   1.00
C170   C     0.54638   0.37920   0.81098   0.01267  Uiso   1.00
C171   C     0.49565   0.37359   0.74556   0.01267  Uiso   1.00
C172   C     0.44551   0.39970   0.75101   0.01267  Uiso   1.00
C173   C     0.44681   0.42889   0.81930   0.01267  Uiso   1.00
C174   C     0.53571   0.31687   0.65678   0.01267  Uiso   1.00
C175   C     0.51612   0.28756   0.57494   0.01267  Uiso   1.00
C176   C     0.44114   0.24297   0.51621   0.01267  Uiso   1.00
C177   C     0.03332   0.66647   0.62339   0.01267  Uiso   1.00
C178   C     0.06822   0.73540   0.68902   0.01267  Uiso   1.00
C179   C     0.12803   0.75009   0.75444   0.01267  Uiso   1.00
C180   C     0.14869   0.69450   0.74899   0.01267  Uiso   1.00
C181   C     0.10959   0.62751   0.68070   0.01267  Uiso   1.00
C182   C     0.16009   0.87893   0.84322   0.01267  Uiso   1.00
C183   C     0.21262   0.94118   0.92506   0.01267  Uiso   1.00
C184   C     0.22676   0.92493   0.98379   0.01267  Uiso   1.00
C185   C     0.95692   0.83353   0.86685   0.01267  Uiso   1.00
C186   C     0.95362   0.76460   0.83282   0.01267  Uiso   1.00
C187   C     0.00435   0.74991   0.87794   0.01267  Uiso   1.00
C188   C     0.05449   0.80550   0.95419   0.01267  Uiso   1.00
C189   C     0.05319   0.87249   0.98208   0.01267  Uiso   1.00
C190   C     0.96429   0.62107   0.78116   0.01267  Uiso   1.00
C191   C     0.98388   0.55882   0.77144   0.01267  Uiso   1.00
C192   C     0.05886   0.57507   0.80183   0.01267  Uiso   1.00
N1     N     0.61702   0.50438   0.06466   0.01267  Uiso   1.00
N2     N     0.82455   0.50705   0.15488   0.01267  Uiso   1.00
N3     N     0.93972   0.55236   0.43534   0.01267  Uiso   1.00
N4     N     0.85217   0.66967   0.34512   0.01267  Uiso   1.00
N5     N     0.56028   0.99562   0.61264   0.01267  Uiso   1.00
N6     N     0.64783   0.99295   0.81750   0.01267  Uiso   1.00
N7     N     0.88298   0.94764   0.88736   0.01267  Uiso   1.00
N8     N     0.67545   0.83033   0.68250   0.01267  Uiso   1.00
N9     N     0.11264   0.56028   0.49562   0.01267  Uiso   1.00
N10    N     0.31750   0.64783   0.49295   0.01267  Uiso   1.00
N11    N     0.38736   0.88298   0.44764   0.01267  Uiso   1.00
N12    N     0.18250   0.67545   0.33033   0.01267  Uiso   1.00
N13    N     0.56466   0.61702   0.00438   0.01267  Uiso   1.00
N14    N     0.65488   0.82455   0.00705   0.01267  Uiso   1.00
N15    N     0.93534   0.93972   0.05236   0.01267  Uiso   1.00
N16    N     0.84512   0.85217   0.16967   0.01267  Uiso   1.00
N17    N     0.55236   0.93534   0.43972   0.01267  Uiso   1.00
N18    N     0.66967   0.84512   0.35217   0.01267  Uiso   1.00
N19    N     0.50438   0.56466   0.11702   0.01267  Uiso   1.00
N20    N     0.50705   0.65488   0.32455   0.01267  Uiso   1.00
N21    N     0.94764   0.38736   0.38298   0.01267  Uiso   1.00
N22    N     0.83033   0.18250   0.17545   0.01267  Uiso   1.00
N23    N     0.99562   0.11264   0.06028   0.01267  Uiso   1.00
N24    N     0.99295   0.31750   0.14783   0.01267  Uiso   1.00
N25    N     0.38298   0.49562   0.93534   0.01267  Uiso   1.00
N26    N     0.17545   0.49295   0.84512   0.01267  Uiso   1.00
N27    N     0.06028   0.44764   0.56466   0.01267  Uiso   1.00
N28    N     0.14783   0.33033   0.65488   0.01267  Uiso   1.00
N29    N     0.43972   0.00438   0.38736   0.01267  Uiso   1.00
N30    N     0.35217   0.00705   0.18250   0.01267  Uiso   1.00
N31    N     0.11702   0.05236   0.11264   0.01267  Uiso   1.00
N32    N     0.32455   0.16967   0.31750   0.01267  Uiso   1.00
N33    N     0.88736   0.43972   0.50438   0.01267  Uiso   1.00
N34    N     0.68250   0.35217   0.50705   0.01267  Uiso   1.00
N35    N     0.61264   0.11702   0.55236   0.01267  Uiso   1.00
N36    N     0.81750   0.32455   0.66967   0.01267  Uiso   1.00
N37    N     0.43534   0.38298   0.99562   0.01267  Uiso   1.00
N38    N     0.34512   0.17545   0.99295   0.01267  Uiso   1.00
N39    N     0.06466   0.06028   0.94764   0.01267  Uiso   1.00
N40    N     0.15488   0.14783   0.83033   0.01267  Uiso   1.00
N41    N     0.44764   0.06466   0.56028   0.01267  Uiso   1.00
N42    N     0.33033   0.15488   0.64783   0.01267  Uiso   1.00
N43    N     0.49562   0.43534   0.88298   0.01267  Uiso   1.00
N44    N     0.49295   0.34512   0.67545   0.01267  Uiso   1.00
N45    N     0.05236   0.61264   0.61702   0.01267  Uiso   1.00
N46    N     0.16967   0.81750   0.82455   0.01267  Uiso   1.00
N47    N     0.00438   0.88736   0.93972   0.01267  Uiso   1.00
N48    N     0.00705   0.68250   0.85217   0.01267  Uiso   1.00
O1     O     0.79853   0.41309   0.18544   0.01267  Uiso   1.00
O2     O     0.72765   0.61309   0.31456   0.01267  Uiso   1.00
O3     O     0.77235   0.08691   0.88544   0.01267  Uiso   1.00
O4     O     0.70147   0.88691   0.61456   0.01267  Uiso   1.00
O5     O     0.38544   0.77235   0.58691   0.01267  Uiso   1.00
O6     O     0.11456   0.70147   0.38691   0.01267  Uiso   1.00
O7     O     0.68544   0.79853   0.91309   0.01267  Uiso   1.00
O8     O     0.81456   0.72765   0.11309   0.01267  Uiso   1.00
O9     O     0.61309   0.81456   0.22765   0.01267  Uiso   1.00
O10    O     0.41309   0.68544   0.29853   0.01267  Uiso   1.00
O11    O     0.88691   0.11456   0.20147   0.01267  Uiso   1.00
O12    O     0.08691   0.38544   0.27235   0.01267  Uiso   1.00
O13    O     0.20147   0.58691   0.81456   0.01267  Uiso   1.00
O14    O     0.27235   0.38691   0.68544   0.01267  Uiso   1.00
O15    O     0.22765   0.91309   0.11456   0.01267  Uiso   1.00
O16    O     0.29853   0.11309   0.38544   0.01267  Uiso   1.00
O17    O     0.61456   0.22765   0.41309   0.01267  Uiso   1.00
O18    O     0.88544   0.29853   0.61309   0.01267  Uiso   1.00
O19    O     0.31456   0.20147   0.08691   0.01267  Uiso   1.00
O20    O     0.18544   0.27235   0.88691   0.01267  Uiso   1.00
O21    O     0.38691   0.18544   0.77235   0.01267  Uiso   1.00
O22    O     0.58691   0.31456   0.70147   0.01267  Uiso   1.00
O23    O     0.11309   0.88544   0.79853   0.01267  Uiso   1.00
O24    O     0.91309   0.61456   0.72765   0.01267  Uiso   1.00
Cl1    Cl    0.49904   0.24904   0.25000   0.01267  Uiso   1.00
O25    O     0.54950   0.30730   0.32740   0.01267  Uiso   1.00
O26    O     0.54300   0.21580   0.23280   0.01267  Uiso   1.00
O27    O     0.47990   0.22210   0.17260   0.01267  Uiso   1.00
O28    O     0.48300   0.31020   0.26720   0.01267  Uiso   1.00
Cl2    Cl    0.00096   0.25096   0.75000   0.01267  Uiso   1.00
O29    O     0.02010   0.19270   0.74220   0.01267  Uiso   1.00
O30    O     0.01700   0.28420   0.82720   0.01267  Uiso   1.00
O31    O     0.95050   0.27790   0.75780   0.01267  Uiso   1.00
O32    O     0.95700   0.18980   0.67280   0.01267  Uiso   1.00
Cl3    Cl    0.25000   0.00096   0.75096   0.01267  Uiso   1.00
O33    O     0.24220   0.02010   0.69270   0.01267  Uiso   1.00
O34    O     0.32720   0.01700   0.78420   0.01267  Uiso   1.00
O35    O     0.25780   0.95050   0.77790   0.01267  Uiso   1.00
O36    O     0.17280   0.95700   0.68980   0.01267  Uiso   1.00
Cl4    Cl    0.75000   0.49904   0.74904   0.01267  Uiso   1.00
O37    O     0.82740   0.54950   0.80730   0.01267  Uiso   1.00
O38    O     0.73280   0.54300   0.71580   0.01267  Uiso   1.00
O39    O     0.67260   0.47990   0.72210   0.01267  Uiso   1.00
O40    O     0.76720   0.48300   0.81020   0.01267  Uiso   1.00
Cl5    Cl    0.24904   0.75000   0.99904   0.01267  Uiso   1.00
O41    O     0.22210   0.67260   0.97990   0.01267  Uiso   1.00
O42    O     0.31020   0.76720   0.98300   0.01267  Uiso   1.00
O43    O     0.30730   0.82740   0.04950   0.01267  Uiso   1.00
O44    O     0.21580   0.73280   0.04300   0.01267  Uiso   1.00
Cl6    Cl    0.25096   0.25000   0.50096   0.01267  Uiso   1.00
O45    O     0.27790   0.25780   0.45050   0.01267  Uiso   1.00
O46    O     0.18980   0.17280   0.45700   0.01267  Uiso   1.00
O47    O     0.19270   0.24220   0.52010   0.01267  Uiso   1.00
O48    O     0.28420   0.32720   0.51700   0.01267  Uiso   1.00
Cl7    Cl    0.50096   0.75096   0.75000   0.01267  Uiso   1.00
O49    O     0.45050   0.69270   0.67260   0.01267  Uiso   1.00
O50    O     0.45700   0.78420   0.76720   0.01267  Uiso   1.00
O51    O     0.52010   0.77790   0.82740   0.01267  Uiso   1.00
O52    O     0.51700   0.68980   0.73280   0.01267  Uiso   1.00
Cl8    Cl    0.99904   0.74904   0.25000   0.01267  Uiso   1.00
O53    O     0.97990   0.80730   0.25780   0.01267  Uiso   1.00
O54    O     0.98300   0.71580   0.17280   0.01267  Uiso   1.00
O55    O     0.04950   0.72210   0.24220   0.01267  Uiso   1.00
O56    O     0.04300   0.81020   0.32720   0.01267  Uiso   1.00
Cl9    Cl    0.75000   0.99904   0.24904   0.01267  Uiso   1.00
O57    O     0.75780   0.97990   0.30730   0.01267  Uiso   1.00
O58    O     0.67280   0.98300   0.21580   0.01267  Uiso   1.00
O59    O     0.74220   0.04950   0.22210   0.01267  Uiso   1.00
O60    O     0.82720   0.04300   0.31020   0.01267  Uiso   1.00
Cl10   Cl    0.25000   0.50096   0.25096   0.01267  Uiso   1.00
O61    O     0.17260   0.45050   0.19270   0.01267  Uiso   1.00
O62    O     0.26720   0.45700   0.28420   0.01267  Uiso   1.00
O63    O     0.32740   0.52010   0.27790   0.01267  Uiso   1.00
O64    O     0.23280   0.51700   0.18980   0.01267  Uiso   1.00
Cl11   Cl    0.75096   0.25000   0.00096   0.01267  Uiso   1.00
O65    O     0.77790   0.32740   0.02010   0.01267  Uiso   1.00
O66    O     0.68980   0.23280   0.01700   0.01267  Uiso   1.00
O67    O     0.69270   0.17260   0.95050   0.01267  Uiso   1.00
O68    O     0.78420   0.26720   0.95700   0.01267  Uiso   1.00
Cl12   Cl    0.74904   0.75000   0.49904   0.01267  Uiso   1.00
O69    O     0.72210   0.74220   0.54950   0.01267  Uiso   1.00
O70    O     0.81020   0.82720   0.54300   0.01267  Uiso   1.00
O71    O     0.80730   0.75780   0.47990   0.01267  Uiso   1.00
O72    O     0.71580   0.67280   0.48300   0.01267  Uiso   1.00
