data_image0
_cell_length_a       13.6823
_cell_length_b       12.6063
_cell_length_c       12.7535
_cell_angle_alpha    90
_cell_angle_beta     116.988
_cell_angle_gamma    90

_symmetry_space_group_name_H-M    "P 1"
_symmetry_int_tables_number       1

loop_
  _symmetry_equiv_pos_as_xyz
  'x, y, z'

loop_
  _atom_site_label
  _atom_site_occupancy
  _atom_site_fract_x
  _atom_site_fract_y
  _atom_site_fract_z
  _atom_site_thermal_displace_type
  _atom_site_B_iso_or_equiv
  _atom_site_type_symbol
  F1       1.0000 0.18940  0.09120  0.12580  Biso   1.000  F
  F2       1.0000 0.16700  0.40200  0.13890  Biso   1.000  F
  Fe1      1.0000 0.18006  0.24542  0.12798  Biso   1.000  Fe
  Fe2      1.0000 0.69238  0.25105  0.30898  Biso   1.000  Fe
  Fe3      1.0000 0.26061  0.99931  0.04243  Biso   1.000  Fe
  Co1      1.0000 0.25234  0.49943  0.28919  Biso   1.000  Co
  O1       1.0000 0.20300  0.23060  0.29370  Biso   1.000  O
  O2       1.0000 0.15930  0.23580  0.46490  Biso   1.000  O
  O3       1.0000 0.34170  0.25290  0.18690  Biso   1.000  O
  O4       1.0000 0.01950  0.23730  0.07310  Biso   1.000  O
  O5       1.0000 0.31250  0.73210  0.84780  Biso   1.000  O
  O6       1.0000 0.53600  0.22640  0.24140  Biso   1.000  O
  O7       1.0000 0.29400  0.73730  0.03080  Biso   1.000  O
  O8       1.0000 0.85480  0.22920  0.87780  Biso   1.000  O
  F3       1.0000 0.32490  0.90290  0.19060  Biso   1.000  F
  F4       1.0000 0.27570  0.59960  0.18160  Biso   1.000  F
  O9       1.0000 0.32100  0.90940  0.94330  Biso   1.000  O
  O10      1.0000 0.88200  0.08960  0.03550  Biso   1.000  O
  O11      1.0000 0.40570  0.08040  0.13300  Biso   1.000  O
  O12      1.0000 0.20330  0.40610  0.38890  Biso   1.000  O
  P1       1.0000 0.15311  0.29538  0.35831  Biso   1.000  P
  P2       1.0000 0.34674  0.79149  0.96213  Biso   1.000  P
  P3       1.0000 0.93561  0.16221  0.98099  Biso   1.000  P
  P4       1.0000 0.42255  0.19829  0.15185  Biso   1.000  P
  H1       1.0000 0.04800  0.30800  0.28500  Biso   1.000  H
  H2       1.0000 0.45400  0.78170  0.02500  Biso   1.000  H
  H3       1.0000 0.99000  0.10200  0.94100  Biso   1.000  H
  H4       1.0000 0.40800  0.23300  0.04900  Biso   1.000  H
  O13      1.0000 0.02700  0.30600  0.26700  Biso   1.000  O
  O14      1.0000 0.46900  0.77500  0.02500  Biso   1.000  O
  O15      1.0000 0.97500  0.10300  0.90400  Biso   1.000  O
  F5       1.0000 0.81060  0.59120  0.37420  Biso   1.000  F
  F6       1.0000 0.83300  0.90200  0.36110  Biso   1.000  F
  Fe4      1.0000 0.81994  0.74542  0.37202  Biso   1.000  Fe
  Fe5      1.0000 0.30762  0.75105  0.19102  Biso   1.000  Fe
  Fe6      1.0000 0.73939  0.49931  0.45757  Biso   1.000  Fe
  Co2      1.0000 0.74766  0.99943  0.21081  Biso   1.000  Co
  O16      1.0000 0.79700  0.73060  0.20630  Biso   1.000  O
  O17      1.0000 0.84070  0.73580  0.03510  Biso   1.000  O
  O18      1.0000 0.65830  0.75290  0.31310  Biso   1.000  O
  O19      1.0000 0.98050  0.73730  0.42690  Biso   1.000  O
  O20      1.0000 0.68750  0.23210  0.65220  Biso   1.000  O
  O21      1.0000 0.46400  0.72640  0.25860  Biso   1.000  O
  O22      1.0000 0.70600  0.23730  0.46920  Biso   1.000  O
  O23      1.0000 0.14520  0.72920  0.62220  Biso   1.000  O
  F7       1.0000 0.67510  0.40290  0.30940  Biso   1.000  F
  F8       1.0000 0.72430  0.09960  0.31840  Biso   1.000  F
  O24      1.0000 0.67900  0.40940  0.55670  Biso   1.000  O
  O25      1.0000 0.11800  0.58960  0.46450  Biso   1.000  O
  O26      1.0000 0.59430  0.58040  0.36700  Biso   1.000  O
  O27      1.0000 0.79670  0.90610  0.11110  Biso   1.000  O
  P5       1.0000 0.84689  0.79538  0.14169  Biso   1.000  P
  P6       1.0000 0.65326  0.29149  0.53787  Biso   1.000  P
  P7       1.0000 0.06439  0.66221  0.51901  Biso   1.000  P
  P8       1.0000 0.57745  0.69829  0.34815  Biso   1.000  P
  H5       1.0000 0.95200  0.80800  0.21500  Biso   1.000  H
  H6       1.0000 0.54600  0.28170  0.47500  Biso   1.000  H
  H7       1.0000 0.01000  0.60200  0.55900  Biso   1.000  H
  H8       1.0000 0.59200  0.73300  0.45100  Biso   1.000  H
  O28      1.0000 0.97300  0.80600  0.23300  Biso   1.000  O
  O29      1.0000 0.53100  0.27500  0.47500  Biso   1.000  O
  O30      1.0000 0.02500  0.60300  0.59600  Biso   1.000  O
  F9       1.0000 0.81060  0.90880  0.87420  Biso   1.000  F
  F10      1.0000 0.83300  0.59800  0.86110  Biso   1.000  F
  Fe7      1.0000 0.81994  0.75458  0.87202  Biso   1.000  Fe
  Fe8      1.0000 0.30762  0.74895  0.69102  Biso   1.000  Fe
  Fe9      1.0000 0.73939  0.00069  0.95757  Biso   1.000  Fe
  Co3      1.0000 0.74766  0.50057  0.71081  Biso   1.000  Co
  O31      1.0000 0.79700  0.76940  0.70630  Biso   1.000  O
  O32      1.0000 0.84070  0.76420  0.53510  Biso   1.000  O
  O33      1.0000 0.65830  0.74710  0.81310  Biso   1.000  O
  O34      1.0000 0.98050  0.76270  0.92690  Biso   1.000  O
  O35      1.0000 0.68750  0.26790  0.15220  Biso   1.000  O
  O36      1.0000 0.46400  0.77360  0.75860  Biso   1.000  O
  O37      1.0000 0.70600  0.26270  0.96920  Biso   1.000  O
  O38      1.0000 0.14520  0.77080  0.12220  Biso   1.000  O
  F11      1.0000 0.67510  0.09710  0.80940  Biso   1.000  F
  F12      1.0000 0.72430  0.40040  0.81840  Biso   1.000  F
  O39      1.0000 0.67900  0.09060  0.05670  Biso   1.000  O
  O40      1.0000 0.11800  0.91040  0.96450  Biso   1.000  O
  O41      1.0000 0.59430  0.91960  0.86700  Biso   1.000  O
  O42      1.0000 0.79670  0.59390  0.61110  Biso   1.000  O
  P9       1.0000 0.84689  0.70462  0.64169  Biso   1.000  P
  P10      1.0000 0.65326  0.20851  0.03787  Biso   1.000  P
  P11      1.0000 0.06439  0.83779  0.01901  Biso   1.000  P
  P12      1.0000 0.57745  0.80171  0.84815  Biso   1.000  P
  H9       1.0000 0.95200  0.69200  0.71500  Biso   1.000  H
  H10      1.0000 0.54600  0.21830  0.97500  Biso   1.000  H
  H11      1.0000 0.01000  0.89800  0.05900  Biso   1.000  H
  H12      1.0000 0.59200  0.76700  0.95100  Biso   1.000  H
  O43      1.0000 0.97300  0.69400  0.73300  Biso   1.000  O
  O44      1.0000 0.53100  0.22500  0.97500  Biso   1.000  O
  O45      1.0000 0.02500  0.89700  0.09600  Biso   1.000  O
  F13      1.0000 0.18940  0.40880  0.62580  Biso   1.000  F
  F14      1.0000 0.16700  0.09800  0.63890  Biso   1.000  F
  Fe10     1.0000 0.18006  0.25458  0.62798  Biso   1.000  Fe
  Fe11     1.0000 0.69238  0.24895  0.80898  Biso   1.000  Fe
  Fe12     1.0000 0.26061  0.50069  0.54243  Biso   1.000  Fe
  Co4      1.0000 0.25234  0.00057  0.78919  Biso   1.000  Co
  O46      1.0000 0.20300  0.26940  0.79370  Biso   1.000  O
  O47      1.0000 0.15930  0.26420  0.96490  Biso   1.000  O
  O48      1.0000 0.34170  0.24710  0.68690  Biso   1.000  O
  O49      1.0000 0.01950  0.26270  0.57310  Biso   1.000  O
  O50      1.0000 0.31250  0.76790  0.34780  Biso   1.000  O
  O51      1.0000 0.53600  0.27360  0.74140  Biso   1.000  O
  O52      1.0000 0.29400  0.76270  0.53080  Biso   1.000  O
  O53      1.0000 0.85480  0.27080  0.37780  Biso   1.000  O
  F15      1.0000 0.32490  0.59710  0.69060  Biso   1.000  F
  F16      1.0000 0.27570  0.90040  0.68160  Biso   1.000  F
  O54      1.0000 0.32100  0.59060  0.44330  Biso   1.000  O
  O55      1.0000 0.88200  0.41040  0.53550  Biso   1.000  O
  O56      1.0000 0.40570  0.41960  0.63300  Biso   1.000  O
  O57      1.0000 0.20330  0.09390  0.88890  Biso   1.000  O
  P13      1.0000 0.15311  0.20462  0.85831  Biso   1.000  P
  P14      1.0000 0.34674  0.70851  0.46213  Biso   1.000  P
  P15      1.0000 0.93561  0.33779  0.48099  Biso   1.000  P
  P16      1.0000 0.42255  0.30171  0.65185  Biso   1.000  P
  H13      1.0000 0.04800  0.19200  0.78500  Biso   1.000  H
  H14      1.0000 0.45400  0.71830  0.52500  Biso   1.000  H
  H15      1.0000 0.99000  0.39800  0.44100  Biso   1.000  H
  H16      1.0000 0.40800  0.26700  0.54900  Biso   1.000  H
  O58      1.0000 0.02700  0.19400  0.76700  Biso   1.000  O
  O59      1.0000 0.46900  0.72500  0.52500  Biso   1.000  O
  O60      1.0000 0.97500  0.39700  0.40400  Biso   1.000  O
