data_image0
_cell_length_a       13.6808
_cell_length_b       12.634
_cell_length_c       12.783
_cell_angle_alpha    90
_cell_angle_beta     116.983
_cell_angle_gamma    90

_symmetry_space_group_name_H-M    "P 1"
_symmetry_int_tables_number       1

loop_
  _symmetry_equiv_pos_as_xyz
  'x, y, z'

loop_
  _atom_site_label
  _atom_site_occupancy
  _atom_site_fract_x
  _atom_site_fract_y
  _atom_site_fract_z
  _atom_site_thermal_displace_type
  _atom_site_B_iso_or_equiv
  _atom_site_type_symbol
  F1       1.0000 0.18830  0.09190  0.12680  Biso   1.000  F
  F2       1.0000 0.16710  0.40120  0.13710  Biso   1.000  F
  Fe1      1.0000 0.17997  0.24552  0.12799  Biso   1.000  Fe
  Fe2      1.0000 0.69209  0.25117  0.30927  Biso   1.000  Fe
  Fe3      1.0000 0.26008  0.99938  0.04216  Biso   1.000  Fe
  Fe4      1.0000 0.25529  0.49893  0.28870  Biso   1.000  Fe
  O1       1.0000 0.20120  0.23040  0.29360  Biso   1.000  O
  O2       1.0000 0.16290  0.23800  0.46790  Biso   1.000  O
  O3       1.0000 0.34160  0.25240  0.18790  Biso   1.000  O
  O4       1.0000 0.01990  0.23780  0.07280  Biso   1.000  O
  O5       1.0000 0.31180  0.73330  0.84800  Biso   1.000  O
  O6       1.0000 0.53530  0.22720  0.24030  Biso   1.000  O
  O7       1.0000 0.29760  0.73910  0.03390  Biso   1.000  O
  O8       1.0000 0.85410  0.22990  0.87870  Biso   1.000  O
  F3       1.0000 0.32600  0.90270  0.19240  Biso   1.000  F
  F4       1.0000 0.27510  0.59930  0.17920  Biso   1.000  F
  O9       1.0000 0.32340  0.90950  0.94370  Biso   1.000  O
  O10      1.0000 0.88350  0.08970  0.03600  Biso   1.000  O
  O11      1.0000 0.40540  0.08010  0.13240  Biso   1.000  O
  O12      1.0000 0.40900  0.43260  0.32650  Biso   1.000  O
  O13      1.0000 0.20320  0.40720  0.38730  Biso   1.000  O
  P1       1.0000 0.15290  0.29570  0.35840  Biso   1.000  P
  P2       1.0000 0.34810  0.79200  0.96190  Biso   1.000  P
  P3       1.0000 0.93560  0.16260  0.98110  Biso   1.000  P
  P4       1.0000 0.42260  0.19830  0.15280  Biso   1.000  P
  H1       1.0000 0.04800  0.30800  0.28900  Biso   1.000  H
  H2       1.0000 0.45400  0.78150  0.02200  Biso   1.000  H
  H3       1.0000 0.99000  0.10400  0.94000  Biso   1.000  H
  H4       1.0000 0.40400  0.23400  0.04800  Biso   1.000  H
  H5       1.0000 0.43500  0.41400  0.28300  Biso   1.000  H
  O14      1.0000 0.03000  0.30600  0.26900  Biso   1.000  O
  O15      1.0000 0.46800  0.76700  0.02300  Biso   1.000  O
  O16      1.0000 0.97200  0.10500  0.90300  Biso   1.000  O
  F5       1.0000 0.81170  0.59190  0.37320  Biso   1.000  F
  F6       1.0000 0.83290  0.90120  0.36290  Biso   1.000  F
  Fe5      1.0000 0.82003  0.74552  0.37201  Biso   1.000  Fe
  Fe6      1.0000 0.30791  0.75117  0.19073  Biso   1.000  Fe
  Fe7      1.0000 0.73992  0.49938  0.45784  Biso   1.000  Fe
  Fe8      1.0000 0.74471  0.99893  0.21130  Biso   1.000  Fe
  O17      1.0000 0.79880  0.73040  0.20640  Biso   1.000  O
  O18      1.0000 0.83710  0.73800  0.03210  Biso   1.000  O
  O19      1.0000 0.65840  0.75240  0.31210  Biso   1.000  O
  O20      1.0000 0.98010  0.73780  0.42720  Biso   1.000  O
  O21      1.0000 0.68820  0.23330  0.65200  Biso   1.000  O
  O22      1.0000 0.46470  0.72720  0.25970  Biso   1.000  O
  O23      1.0000 0.70240  0.23910  0.46610  Biso   1.000  O
  O24      1.0000 0.14590  0.72990  0.62130  Biso   1.000  O
  F7       1.0000 0.67400  0.40270  0.30760  Biso   1.000  F
  F8       1.0000 0.72490  0.09930  0.32080  Biso   1.000  F
  O25      1.0000 0.67660  0.40950  0.55630  Biso   1.000  O
  O26      1.0000 0.11650  0.58970  0.46400  Biso   1.000  O
  O27      1.0000 0.59460  0.58010  0.36760  Biso   1.000  O
  O28      1.0000 0.59100  0.93260  0.17350  Biso   1.000  O
  O29      1.0000 0.79680  0.90720  0.11270  Biso   1.000  O
  P5       1.0000 0.84710  0.79570  0.14160  Biso   1.000  P
  P6       1.0000 0.65190  0.29200  0.53810  Biso   1.000  P
  P7       1.0000 0.06440  0.66260  0.51890  Biso   1.000  P
  P8       1.0000 0.57740  0.69830  0.34720  Biso   1.000  P
  H6       1.0000 0.95200  0.80800  0.21100  Biso   1.000  H
  H7       1.0000 0.54600  0.28150  0.47800  Biso   1.000  H
  H8       1.0000 0.01000  0.60400  0.56000  Biso   1.000  H
  H9       1.0000 0.59600  0.73400  0.45200  Biso   1.000  H
  H10      1.0000 0.56500  0.91400  0.21700  Biso   1.000  H
  O30      1.0000 0.97000  0.80600  0.23100  Biso   1.000  O
  O31      1.0000 0.53200  0.26700  0.47700  Biso   1.000  O
  O32      1.0000 0.02800  0.60500  0.59700  Biso   1.000  O
  F9       1.0000 0.81170  0.90810  0.87320  Biso   1.000  F
  F10      1.0000 0.83290  0.59880  0.86290  Biso   1.000  F
  Fe9      1.0000 0.82003  0.75448  0.87201  Biso   1.000  Fe
  Fe10     1.0000 0.30791  0.74883  0.69073  Biso   1.000  Fe
  Fe11     1.0000 0.73992  0.00062  0.95784  Biso   1.000  Fe
  Fe12     1.0000 0.74471  0.50107  0.71130  Biso   1.000  Fe
  O33      1.0000 0.79880  0.76960  0.70640  Biso   1.000  O
  O34      1.0000 0.83710  0.76200  0.53210  Biso   1.000  O
  O35      1.0000 0.65840  0.74760  0.81210  Biso   1.000  O
  O36      1.0000 0.98010  0.76220  0.92720  Biso   1.000  O
  O37      1.0000 0.68820  0.26670  0.15200  Biso   1.000  O
  O38      1.0000 0.46470  0.77280  0.75970  Biso   1.000  O
  O39      1.0000 0.70240  0.26090  0.96610  Biso   1.000  O
  O40      1.0000 0.14590  0.77010  0.12130  Biso   1.000  O
  F11      1.0000 0.67400  0.09730  0.80760  Biso   1.000  F
  F12      1.0000 0.72490  0.40070  0.82080  Biso   1.000  F
  O41      1.0000 0.67660  0.09050  0.05630  Biso   1.000  O
  O42      1.0000 0.11650  0.91030  0.96400  Biso   1.000  O
  O43      1.0000 0.59460  0.91990  0.86760  Biso   1.000  O
  O44      1.0000 0.59100  0.56740  0.67350  Biso   1.000  O
  O45      1.0000 0.79680  0.59280  0.61270  Biso   1.000  O
  P9       1.0000 0.84710  0.70430  0.64160  Biso   1.000  P
  P10      1.0000 0.65190  0.20800  0.03810  Biso   1.000  P
  P11      1.0000 0.06440  0.83740  0.01890  Biso   1.000  P
  P12      1.0000 0.57740  0.80170  0.84720  Biso   1.000  P
  H11      1.0000 0.95200  0.69200  0.71100  Biso   1.000  H
  H12      1.0000 0.54600  0.21850  0.97800  Biso   1.000  H
  H13      1.0000 0.01000  0.89600  0.06000  Biso   1.000  H
  H14      1.0000 0.59600  0.76600  0.95200  Biso   1.000  H
  H15      1.0000 0.56500  0.58600  0.71700  Biso   1.000  H
  O46      1.0000 0.97000  0.69400  0.73100  Biso   1.000  O
  O47      1.0000 0.53200  0.23300  0.97700  Biso   1.000  O
  O48      1.0000 0.02800  0.89500  0.09700  Biso   1.000  O
  F13      1.0000 0.18830  0.40810  0.62680  Biso   1.000  F
  F14      1.0000 0.16710  0.09880  0.63710  Biso   1.000  F
  Fe13     1.0000 0.17997  0.25448  0.62799  Biso   1.000  Fe
  Fe14     1.0000 0.69209  0.24883  0.80927  Biso   1.000  Fe
  Fe15     1.0000 0.26008  0.50062  0.54216  Biso   1.000  Fe
  Fe16     1.0000 0.25529  0.00107  0.78870  Biso   1.000  Fe
  O49      1.0000 0.20120  0.26960  0.79360  Biso   1.000  O
  O50      1.0000 0.16290  0.26200  0.96790  Biso   1.000  O
  O51      1.0000 0.34160  0.24760  0.68790  Biso   1.000  O
  O52      1.0000 0.01990  0.26220  0.57280  Biso   1.000  O
  O53      1.0000 0.31180  0.76670  0.34800  Biso   1.000  O
  O54      1.0000 0.53530  0.27280  0.74030  Biso   1.000  O
  O55      1.0000 0.29760  0.76090  0.53390  Biso   1.000  O
  O56      1.0000 0.85410  0.27010  0.37870  Biso   1.000  O
  F15      1.0000 0.32600  0.59730  0.69240  Biso   1.000  F
  F16      1.0000 0.27510  0.90070  0.67920  Biso   1.000  F
  O57      1.0000 0.32340  0.59050  0.44370  Biso   1.000  O
  O58      1.0000 0.88350  0.41030  0.53600  Biso   1.000  O
  O59      1.0000 0.40540  0.41990  0.63240  Biso   1.000  O
  O60      1.0000 0.40900  0.06740  0.82650  Biso   1.000  O
  O61      1.0000 0.20320  0.09280  0.88730  Biso   1.000  O
  P13      1.0000 0.15290  0.20430  0.85840  Biso   1.000  P
  P14      1.0000 0.34810  0.70800  0.46190  Biso   1.000  P
  P15      1.0000 0.93560  0.33740  0.48110  Biso   1.000  P
  P16      1.0000 0.42260  0.30170  0.65280  Biso   1.000  P
  H16      1.0000 0.04800  0.19200  0.78900  Biso   1.000  H
  H17      1.0000 0.45400  0.71850  0.52200  Biso   1.000  H
  H18      1.0000 0.99000  0.39600  0.44000  Biso   1.000  H
  H19      1.0000 0.40400  0.26600  0.54800  Biso   1.000  H
  H20      1.0000 0.43500  0.08600  0.78300  Biso   1.000  H
  O62      1.0000 0.03000  0.19400  0.76900  Biso   1.000  O
  O63      1.0000 0.46800  0.73300  0.52300  Biso   1.000  O
  O64      1.0000 0.97200  0.39500  0.40300  Biso   1.000  O
