data_image0
_cell_length_a       13.908
_cell_length_b       8.409
_cell_length_c       13.042
_cell_angle_alpha    90
_cell_angle_beta     90
_cell_angle_gamma    90

_symmetry_space_group_name_H-M    "P 1"
_symmetry_int_tables_number       1

loop_
  _symmetry_equiv_pos_as_xyz
  'x, y, z'

loop_
  _atom_site_label
  _atom_site_occupancy
  _atom_site_fract_x
  _atom_site_fract_y
  _atom_site_fract_z
  _atom_site_thermal_displace_type
  _atom_site_B_iso_or_equiv
  _atom_site_type_symbol
  C1       1.0000 0.11290  0.03150  0.08060  Biso   1.000  C
  C2       1.0000 0.03910  0.06360  0.99620  Biso   1.000  C
  H1       1.0000 0.01050  0.16880  0.00670  Biso   1.000  H
  C3       1.0000 0.08850  0.05860  0.89130  Biso   1.000  C
  H2       1.0000 0.04010  0.06880  0.83820  Biso   1.000  H
  H3       1.0000 0.11930  0.95590  0.88290  Biso   1.000  H
  C4       1.0000 0.16290  0.18770  0.87700  Biso   1.000  C
  O1       1.0000 0.12420  0.12410  0.15260  Biso   1.000  O
  O2       1.0000 0.16190  0.90580  0.07730  Biso   1.000  O
  O3       1.0000 0.16320  0.30150  0.93670  Biso   1.000  O
  O4       1.0000 0.22040  0.17370  0.80320  Biso   1.000  O
  O5       1.0000 0.21210  0.46170  0.28240  Biso   1.000  O
  C5       1.0000 0.38710  0.96850  0.08060  Biso   1.000  C
  C6       1.0000 0.46090  0.93640  0.99620  Biso   1.000  C
  H4       1.0000 0.48950  0.83120  0.00670  Biso   1.000  H
  C7       1.0000 0.41150  0.94140  0.89130  Biso   1.000  C
  H5       1.0000 0.45990  0.93120  0.83820  Biso   1.000  H
  H6       1.0000 0.38070  0.04410  0.88290  Biso   1.000  H
  C8       1.0000 0.33710  0.81230  0.87700  Biso   1.000  C
  O6       1.0000 0.37580  0.87590  0.15260  Biso   1.000  O
  O7       1.0000 0.33810  0.09420  0.07730  Biso   1.000  O
  O8       1.0000 0.33680  0.69850  0.93670  Biso   1.000  O
  O9       1.0000 0.27960  0.82630  0.80320  Biso   1.000  O
  O10      1.0000 0.28790  0.53830  0.28240  Biso   1.000  O
  C9       1.0000 0.88710  0.03150  0.41940  Biso   1.000  C
  C10      1.0000 0.96090  0.06360  0.50380  Biso   1.000  C
  H7       1.0000 0.98950  0.16880  0.49330  Biso   1.000  H
  C11      1.0000 0.91150  0.05860  0.60870  Biso   1.000  C
  H8       1.0000 0.95990  0.06880  0.66180  Biso   1.000  H
  H9       1.0000 0.88070  0.95590  0.61710  Biso   1.000  H
  C12      1.0000 0.83710  0.18770  0.62300  Biso   1.000  C
  O11      1.0000 0.87580  0.12410  0.34740  Biso   1.000  O
  O12      1.0000 0.83810  0.90580  0.42270  Biso   1.000  O
  O13      1.0000 0.83680  0.30150  0.56330  Biso   1.000  O
  O14      1.0000 0.77960  0.17370  0.69680  Biso   1.000  O
  O15      1.0000 0.78790  0.46170  0.21760  Biso   1.000  O
  C13      1.0000 0.61290  0.96850  0.41940  Biso   1.000  C
  C14      1.0000 0.53910  0.93640  0.50380  Biso   1.000  C
  H10      1.0000 0.51050  0.83120  0.49330  Biso   1.000  H
  C15      1.0000 0.58850  0.94140  0.60870  Biso   1.000  C
  H11      1.0000 0.54010  0.93120  0.66180  Biso   1.000  H
  H12      1.0000 0.61930  0.04410  0.61710  Biso   1.000  H
  C16      1.0000 0.66290  0.81230  0.62300  Biso   1.000  C
  O16      1.0000 0.62420  0.87590  0.34740  Biso   1.000  O
  O17      1.0000 0.66190  0.09420  0.42270  Biso   1.000  O
  O18      1.0000 0.66320  0.69850  0.56330  Biso   1.000  O
  O19      1.0000 0.72040  0.82630  0.69680  Biso   1.000  O
  O20      1.0000 0.71210  0.53830  0.21760  Biso   1.000  O
  C17      1.0000 0.88710  0.96850  0.91940  Biso   1.000  C
  C18      1.0000 0.96090  0.93640  0.00380  Biso   1.000  C
  H13      1.0000 0.98950  0.83120  0.99330  Biso   1.000  H
  C19      1.0000 0.91150  0.94140  0.10870  Biso   1.000  C
  H14      1.0000 0.95990  0.93120  0.16180  Biso   1.000  H
  H15      1.0000 0.88070  0.04410  0.11710  Biso   1.000  H
  C20      1.0000 0.83710  0.81230  0.12300  Biso   1.000  C
  O21      1.0000 0.87580  0.87590  0.84740  Biso   1.000  O
  O22      1.0000 0.83810  0.09420  0.92270  Biso   1.000  O
  O23      1.0000 0.83680  0.69850  0.06330  Biso   1.000  O
  O24      1.0000 0.77960  0.82630  0.19680  Biso   1.000  O
  O25      1.0000 0.78790  0.53830  0.71760  Biso   1.000  O
  C21      1.0000 0.61290  0.03150  0.91940  Biso   1.000  C
  C22      1.0000 0.53910  0.06360  0.00380  Biso   1.000  C
  H16      1.0000 0.51050  0.16880  0.99330  Biso   1.000  H
  C23      1.0000 0.58850  0.05860  0.10870  Biso   1.000  C
  H17      1.0000 0.54010  0.06880  0.16180  Biso   1.000  H
  H18      1.0000 0.61930  0.95590  0.11710  Biso   1.000  H
  C24      1.0000 0.66290  0.18770  0.12300  Biso   1.000  C
  O26      1.0000 0.62420  0.12410  0.84740  Biso   1.000  O
  O27      1.0000 0.66190  0.90580  0.92270  Biso   1.000  O
  O28      1.0000 0.66320  0.30150  0.06330  Biso   1.000  O
  O29      1.0000 0.72040  0.17370  0.19680  Biso   1.000  O
  O30      1.0000 0.71210  0.46170  0.71760  Biso   1.000  O
  C25      1.0000 0.11290  0.96850  0.58060  Biso   1.000  C
  C26      1.0000 0.03910  0.93640  0.49620  Biso   1.000  C
  H19      1.0000 0.01050  0.83120  0.50670  Biso   1.000  H
  C27      1.0000 0.08850  0.94140  0.39130  Biso   1.000  C
  H20      1.0000 0.04010  0.93120  0.33820  Biso   1.000  H
  H21      1.0000 0.11930  0.04410  0.38290  Biso   1.000  H
  C28      1.0000 0.16290  0.81230  0.37700  Biso   1.000  C
  O31      1.0000 0.12420  0.87590  0.65260  Biso   1.000  O
  O32      1.0000 0.16190  0.09420  0.57730  Biso   1.000  O
  O33      1.0000 0.16320  0.69850  0.43670  Biso   1.000  O
  O34      1.0000 0.22040  0.82630  0.30320  Biso   1.000  O
  O35      1.0000 0.21210  0.53830  0.78240  Biso   1.000  O
  C29      1.0000 0.38710  0.03150  0.58060  Biso   1.000  C
  C30      1.0000 0.46090  0.06360  0.49620  Biso   1.000  C
  H22      1.0000 0.48950  0.16880  0.50670  Biso   1.000  H
  C31      1.0000 0.41150  0.05860  0.39130  Biso   1.000  C
  H23      1.0000 0.45990  0.06880  0.33820  Biso   1.000  H
  H24      1.0000 0.38070  0.95590  0.38290  Biso   1.000  H
  C32      1.0000 0.33710  0.18770  0.37700  Biso   1.000  C
  O36      1.0000 0.37580  0.12410  0.65260  Biso   1.000  O
  O37      1.0000 0.33810  0.90580  0.57730  Biso   1.000  O
  O38      1.0000 0.33680  0.30150  0.43670  Biso   1.000  O
  O39      1.0000 0.27960  0.17370  0.30320  Biso   1.000  O
  O40      1.0000 0.28790  0.46170  0.78240  Biso   1.000  O
  Zn1      1.0000 0.25000  0.00000  0.20578  Biso   1.000  Zn
  Zn2      1.0000 0.75000  0.00000  0.29422  Biso   1.000  Zn
  Zn3      1.0000 0.75000  0.00000  0.79422  Biso   1.000  Zn
  Zn4      1.0000 0.25000  0.00000  0.70578  Biso   1.000  Zn
  Zn5      1.0000 0.25000  0.50000  0.93079  Biso   1.000  Zn
  Zn6      1.0000 0.75000  0.50000  0.56921  Biso   1.000  Zn
  Zn7      1.0000 0.75000  0.50000  0.06921  Biso   1.000  Zn
  Zn8      1.0000 0.25000  0.50000  0.43079  Biso   1.000  Zn
