data_image0
_cell_length_a       8.258
_cell_length_b       14.371
_cell_length_c       16.189
_cell_angle_alpha    90
_cell_angle_beta     90
_cell_angle_gamma    90

_symmetry_space_group_name_H-M    "P 1"
_symmetry_int_tables_number       1

loop_
  _symmetry_equiv_pos_as_xyz
  'x, y, z'

loop_
  _atom_site_label
  _atom_site_occupancy
  _atom_site_fract_x
  _atom_site_fract_y
  _atom_site_fract_z
  _atom_site_thermal_displace_type
  _atom_site_B_iso_or_equiv
  _atom_site_type_symbol
  Ag1      1.0000 0.20658  0.08698  0.15224  Biso   1.000  Ag
  S1       1.0000 0.22530  0.24290  0.23810  Biso   1.000  S
  S2       1.0000 0.45520  0.36700  0.93440  Biso   1.000  S
  S3       1.0000 0.97050  0.49170  0.89520  Biso   1.000  S
  S4       1.0000 0.83180  0.45460  0.23450  Biso   1.000  S
  C1       1.0000 0.37800  0.30910  0.18430  Biso   1.000  C
  C2       1.0000 0.35800  0.30880  0.09020  Biso   1.000  C
  C3       1.0000 0.48900  0.36190  0.04560  Biso   1.000  C
  C4       1.0000 0.29200  0.45230  0.92540  Biso   1.000  C
  C5       1.0000 0.12800  0.40570  0.91350  Biso   1.000  C
  C6       1.0000 0.94300  0.54340  0.99610  Biso   1.000  C
  C7       1.0000 0.89800  0.47720  0.06600  Biso   1.000  C
  C8       1.0000 0.87400  0.52820  0.14610  Biso   1.000  C
  C9       1.0000 0.02600  0.39710  0.25470  Biso   1.000  C
  C10      1.0000 0.04100  0.30420  0.21260  Biso   1.000  C
  O1       1.0000 0.26500  0.26100  0.05660  Biso   1.000  O
  O2       1.0000 0.36700  0.10120  0.94460  Biso   1.000  O
  H1       1.0000 0.48300  0.28400  0.19600  Biso   1.000  H
  H2       1.0000 0.37400  0.37300  0.20200  Biso   1.000  H
  H3       1.0000 0.59200  0.33000  0.05500  Biso   1.000  H
  H4       1.0000 0.49500  0.42400  0.06700  Biso   1.000  H
  H5       1.0000 0.31300  0.49200  0.87900  Biso   1.000  H
  H6       1.0000 0.28900  0.48900  0.97500  Biso   1.000  H
  H7       1.0000 0.10100  0.37200  0.96200  Biso   1.000  H
  H8       1.0000 0.13300  0.36500  0.86700  Biso   1.000  H
  H9       1.0000 0.85900  0.58900  0.99100  Biso   1.000  H
  H10      1.0000 0.04300  0.57300  0.01100  Biso   1.000  H
  H11      1.0000 0.78500  0.57100  0.13900  Biso   1.000  H
  H12      1.0000 0.97100  0.56300  0.15800  Biso   1.000  H
  H13      1.0000 0.03400  0.38800  0.31300  Biso   1.000  H
  H14      1.0000 0.11000  0.43700  0.23600  Biso   1.000  H
  H15      1.0000 0.03700  0.31400  0.15300  Biso   1.000  H
  H16      1.0000 0.94900  0.26600  0.22700  Biso   1.000  H
  Ag2      1.0000 0.29342  0.91302  0.65224  Biso   1.000  Ag
  S5       1.0000 0.27470  0.75710  0.73810  Biso   1.000  S
  S6       1.0000 0.04480  0.63300  0.43440  Biso   1.000  S
  S7       1.0000 0.52950  0.50830  0.39520  Biso   1.000  S
  S8       1.0000 0.66820  0.54540  0.73450  Biso   1.000  S
  C11      1.0000 0.12200  0.69090  0.68430  Biso   1.000  C
  C12      1.0000 0.14200  0.69120  0.59020  Biso   1.000  C
  C13      1.0000 0.01100  0.63810  0.54560  Biso   1.000  C
  C14      1.0000 0.20800  0.54770  0.42540  Biso   1.000  C
  C15      1.0000 0.37200  0.59430  0.41350  Biso   1.000  C
  C16      1.0000 0.55700  0.45660  0.49610  Biso   1.000  C
  C17      1.0000 0.60200  0.52280  0.56600  Biso   1.000  C
  C18      1.0000 0.62600  0.47180  0.64610  Biso   1.000  C
  C19      1.0000 0.47400  0.60290  0.75470  Biso   1.000  C
  C20      1.0000 0.45900  0.69580  0.71260  Biso   1.000  C
  O3       1.0000 0.23500  0.73900  0.55660  Biso   1.000  O
  O4       1.0000 0.13300  0.89880  0.44460  Biso   1.000  O
  H17      1.0000 0.01700  0.71600  0.69600  Biso   1.000  H
  H18      1.0000 0.12600  0.62700  0.70200  Biso   1.000  H
  H19      1.0000 0.90800  0.67000  0.55500  Biso   1.000  H
  H20      1.0000 0.00500  0.57600  0.56700  Biso   1.000  H
  H21      1.0000 0.18700  0.50800  0.37900  Biso   1.000  H
  H22      1.0000 0.21100  0.51100  0.47500  Biso   1.000  H
  H23      1.0000 0.39900  0.62800  0.46200  Biso   1.000  H
  H24      1.0000 0.36700  0.63500  0.36700  Biso   1.000  H
  H25      1.0000 0.64100  0.41100  0.49100  Biso   1.000  H
  H26      1.0000 0.45700  0.42700  0.51100  Biso   1.000  H
  H27      1.0000 0.71500  0.42900  0.63900  Biso   1.000  H
  H28      1.0000 0.52900  0.43700  0.65800  Biso   1.000  H
  H29      1.0000 0.46600  0.61200  0.81300  Biso   1.000  H
  H30      1.0000 0.39000  0.56300  0.73600  Biso   1.000  H
  H31      1.0000 0.46300  0.68600  0.65300  Biso   1.000  H
  H32      1.0000 0.55100  0.73400  0.72700  Biso   1.000  H
  Ag3      1.0000 0.79342  0.58698  0.34776  Biso   1.000  Ag
  S9       1.0000 0.77470  0.74290  0.26190  Biso   1.000  S
  S10      1.0000 0.54480  0.86700  0.56560  Biso   1.000  S
  S11      1.0000 0.02950  0.99170  0.60480  Biso   1.000  S
  S12      1.0000 0.16820  0.95460  0.26550  Biso   1.000  S
  C21      1.0000 0.62200  0.80910  0.31570  Biso   1.000  C
  C22      1.0000 0.64200  0.80880  0.40980  Biso   1.000  C
  C23      1.0000 0.51100  0.86190  0.45440  Biso   1.000  C
  C24      1.0000 0.70800  0.95230  0.57460  Biso   1.000  C
  C25      1.0000 0.87200  0.90570  0.58650  Biso   1.000  C
  C26      1.0000 0.05700  0.04340  0.50390  Biso   1.000  C
  C27      1.0000 0.10200  0.97720  0.43400  Biso   1.000  C
  C28      1.0000 0.12600  0.02820  0.35390  Biso   1.000  C
  C29      1.0000 0.97400  0.89710  0.24530  Biso   1.000  C
  C30      1.0000 0.95900  0.80420  0.28740  Biso   1.000  C
  O5       1.0000 0.73500  0.76100  0.44340  Biso   1.000  O
  O6       1.0000 0.63300  0.60120  0.55540  Biso   1.000  O
  H33      1.0000 0.51700  0.78400  0.30400  Biso   1.000  H
  H34      1.0000 0.62600  0.87300  0.29800  Biso   1.000  H
  H35      1.0000 0.40800  0.83000  0.44500  Biso   1.000  H
  H36      1.0000 0.50500  0.92400  0.43300  Biso   1.000  H
  H37      1.0000 0.68700  0.99200  0.62100  Biso   1.000  H
  H38      1.0000 0.71100  0.98900  0.52500  Biso   1.000  H
  H39      1.0000 0.89900  0.87200  0.53800  Biso   1.000  H
  H40      1.0000 0.86700  0.86500  0.63300  Biso   1.000  H
  H41      1.0000 0.14100  0.08900  0.50900  Biso   1.000  H
  H42      1.0000 0.95700  0.07300  0.48900  Biso   1.000  H
  H43      1.0000 0.21500  0.07100  0.36100  Biso   1.000  H
  H44      1.0000 0.02900  0.06300  0.34200  Biso   1.000  H
  H45      1.0000 0.96600  0.88800  0.18700  Biso   1.000  H
  H46      1.0000 0.89000  0.93700  0.26400  Biso   1.000  H
  H47      1.0000 0.96300  0.81400  0.34700  Biso   1.000  H
  H48      1.0000 0.05100  0.76600  0.27300  Biso   1.000  H
  Ag4      1.0000 0.70658  0.41302  0.84776  Biso   1.000  Ag
  S13      1.0000 0.72530  0.25710  0.76190  Biso   1.000  S
  S14      1.0000 0.95520  0.13300  0.06560  Biso   1.000  S
  S15      1.0000 0.47050  0.00830  0.10480  Biso   1.000  S
  S16      1.0000 0.33180  0.04540  0.76550  Biso   1.000  S
  C31      1.0000 0.87800  0.19090  0.81570  Biso   1.000  C
  C32      1.0000 0.85800  0.19120  0.90980  Biso   1.000  C
  C33      1.0000 0.98900  0.13810  0.95440  Biso   1.000  C
  C34      1.0000 0.79200  0.04770  0.07460  Biso   1.000  C
  C35      1.0000 0.62800  0.09430  0.08650  Biso   1.000  C
  C36      1.0000 0.44300  0.95660  0.00390  Biso   1.000  C
  C37      1.0000 0.39800  0.02280  0.93400  Biso   1.000  C
  C38      1.0000 0.37400  0.97180  0.85390  Biso   1.000  C
  C39      1.0000 0.52600  0.10290  0.74530  Biso   1.000  C
  C40      1.0000 0.54100  0.19580  0.78740  Biso   1.000  C
  O7       1.0000 0.76500  0.23900  0.94340  Biso   1.000  O
  O8       1.0000 0.86700  0.39880  0.05540  Biso   1.000  O
  H49      1.0000 0.98300  0.21600  0.80400  Biso   1.000  H
  H50      1.0000 0.87400  0.12700  0.79800  Biso   1.000  H
  H51      1.0000 0.09200  0.17000  0.94500  Biso   1.000  H
  H52      1.0000 0.99500  0.07600  0.93300  Biso   1.000  H
  H53      1.0000 0.81300  0.00800  0.12100  Biso   1.000  H
  H54      1.0000 0.78900  0.01100  0.02500  Biso   1.000  H
  H55      1.0000 0.60100  0.12800  0.03800  Biso   1.000  H
  H56      1.0000 0.63300  0.13500  0.13300  Biso   1.000  H
  H57      1.0000 0.35900  0.91100  0.00900  Biso   1.000  H
  H58      1.0000 0.54300  0.92700  0.98900  Biso   1.000  H
  H59      1.0000 0.28500  0.92900  0.86100  Biso   1.000  H
  H60      1.0000 0.47100  0.93700  0.84200  Biso   1.000  H
  H61      1.0000 0.53400  0.11200  0.68700  Biso   1.000  H
  H62      1.0000 0.61000  0.06300  0.76400  Biso   1.000  H
  H63      1.0000 0.53700  0.18600  0.84700  Biso   1.000  H
  H64      1.0000 0.44900  0.23400  0.77300  Biso   1.000  H
