data_SOGXAP_clean
_audit_creation_date              2015-10-16
_audit_creation_method            'Materials Studio'
_symmetry_space_group_name_H-M    'P1'
_symmetry_Int_Tables_number       1
_symmetry_cell_setting            triclinic
loop_
_symmetry_equiv_pos_as_xyz
  x,y,z
_cell_length_a                    6.1231
_cell_length_b                    7.4705
_cell_length_c                    13.0630
_cell_angle_alpha                 88.2500
_cell_angle_beta                  81.2400
_cell_angle_gamma                 89.2700
loop_
_atom_site_label
_atom_site_type_symbol
_atom_site_fract_x
_atom_site_fract_y
_atom_site_fract_z
_atom_site_U_iso_or_equiv
_atom_site_adp_type
_atom_site_occupancy
Ce1    Ce    0.15221   0.24918   0.31192   0.01267  Uiso   1.00
Ce2    Ce    0.88635   0.73594   0.67963   0.01267  Uiso   1.00
H1     H     0.30920   0.29210   0.72080   0.01267  Uiso   1.00
H2     H     0.58060   0.72180   0.43330   0.01267  Uiso   1.00
H3     H     0.34310   0.79600   0.98030   0.01267  Uiso   1.00
H4     H     0.43950   0.19880   0.56160   0.01267  Uiso   1.00
H5     H     0.62720   0.66030   0.05060   0.01267  Uiso   1.00
H6     H     0.22570   0.46520   0.48790   0.01267  Uiso   1.00
H7     H     0.78990   0.98120   0.06370   0.01267  Uiso   1.00
H8     H     0.59200   0.06710   0.90060   0.01267  Uiso   1.00
H9     H     0.76780   0.81420   0.27290   0.01267  Uiso   1.00
H10    H     0.80470   0.96900   0.50640   0.01267  Uiso   1.00
H11    H     0.10800   0.87250   0.27910   0.01267  Uiso   1.00
H12    H     0.99320   0.33760   0.74430   0.01267  Uiso   1.00
C1     C     0.72510   0.77710   0.43280   0.01267  Uiso   1.00
C2     C     0.78920   0.88740   0.33150   0.01267  Uiso   1.00
C3     C     0.39510   0.54250   0.66120   0.01267  Uiso   1.00
C4     C     0.77550   0.73780   0.90570   0.01267  Uiso   1.00
C5     C     0.30180   0.26780   0.56360   0.01267  Uiso   1.00
C6     C     0.33030   0.92180   0.11890   0.01267  Uiso   1.00
C7     C     0.26470   0.37040   0.66590   0.01267  Uiso   1.00
C8     C     0.44070   0.87550   0.01050   0.01267  Uiso   1.00
C9     C     0.11630   0.13660   0.56530   0.01267  Uiso   1.00
C10    C     0.66280   0.77630   0.01540   0.01267  Uiso   1.00
C11    C     0.90350   0.63180   0.43120   0.01267  Uiso   1.00
C12    C     0.65330   0.06080   0.32780   0.01267  Uiso   1.00
O1     O     0.79660   0.86750   0.07490   0.01267  Uiso   1.00
O2     O     0.00430   0.14700   0.49320   0.01267  Uiso   1.00
O3     O     0.29030   0.68870   0.67280   0.01267  Uiso   1.00
O4     O     0.01750   0.63010   0.50310   0.01267  Uiso   1.00
O5     O     0.93250   0.52830   0.35560   0.01267  Uiso   1.00
O6     O     0.30070   0.08100   0.13940   0.01267  Uiso   1.00
O7     O     0.27500   0.78590   0.17930   0.01267  Uiso   1.00
O8     O     0.48760   0.02820   0.94280   0.01267  Uiso   1.00
O9     O     0.32230   0.38080   0.47220   0.01267  Uiso   1.00
O10    O     0.44770   0.04670   0.34690   0.01267  Uiso   1.00
O11    O     0.60230   0.52930   0.64530   0.01267  Uiso   1.00
O12    O     0.01440   0.93440   0.32190   0.01267  Uiso   1.00
O13    O     0.08580   0.02310   0.64010   0.01267  Uiso   1.00
O14    O     0.72030   0.88210   0.52190   0.01267  Uiso   1.00
O15    O     0.03360   0.41440   0.69380   0.01267  Uiso   1.00
O16    O     0.93180   0.83310   0.86470   0.01267  Uiso   1.00
O17    O     0.69380   0.61660   0.85860   0.01267  Uiso   1.00
O18    O     0.75640   0.20400   0.30530   0.01267  Uiso   1.00
