data_image0
_cell_length_a       13.631
_cell_length_b       16.7804
_cell_length_c       10.9261
_cell_angle_alpha    90
_cell_angle_beta     115.623
_cell_angle_gamma    90

_symmetry_space_group_name_H-M    "P 1"
_symmetry_int_tables_number       1

loop_
  _symmetry_equiv_pos_as_xyz
  'x, y, z'

loop_
  _atom_site_label
  _atom_site_occupancy
  _atom_site_fract_x
  _atom_site_fract_y
  _atom_site_fract_z
  _atom_site_thermal_displace_type
  _atom_site_B_iso_or_equiv
  _atom_site_type_symbol
  Ag1      1.0000 0.55286  0.55742  0.83075  Biso   1.000  Ag
  C1       1.0000 0.63840  0.55380  0.60860  Biso   1.000  C
  H1       1.0000 0.67550  0.52950  0.55750  Biso   1.000  H
  H2       1.0000 0.67770  0.60330  0.65160  Biso   1.000  H
  C2       1.0000 0.46520  0.44459  0.55280  Biso   1.000  C
  H3       1.0000 0.42590  0.39510  0.50950  Biso   1.000  H
  H4       1.0000 0.42770  0.46910  0.60330  Biso   1.000  H
  N1       1.0000 0.64120  0.49775  0.71520  Biso   1.000  N
  N2       1.0000 0.46330  0.50017  0.44740  Biso   1.000  N
  C3       1.0000 0.82720  0.43910  0.76950  Biso   1.000  C
  C4       1.0000 0.28080  0.56160  0.40230  Biso   1.000  C
  C5       1.0000 0.94990  0.44150  0.65630  Biso   1.000  C
  H5       1.0000 0.98670  0.47080  0.61450  Biso   1.000  H
  C6       1.0000 0.20950  0.68660  0.43550  Biso   1.000  C
  C7       1.0000 0.16460  0.56630  0.51400  Biso   1.000  C
  H6       1.0000 0.12800  0.53900  0.55830  Biso   1.000  H
  C8       1.0000 0.52280  0.57350  0.51280  Biso   1.000  C
  H7       1.0000 0.48640  0.59970  0.56330  Biso   1.000  H
  H8       1.0000 0.52210  0.61110  0.44250  Biso   1.000  H
  C9       1.0000 0.35060  0.51760  0.34540  Biso   1.000  C
  H9       1.0000 0.31430  0.46670  0.30490  Biso   1.000  H
  H10      1.0000 0.35410  0.55020  0.27190  Biso   1.000  H
  C10      1.0000 0.58150  0.42450  0.65040  Biso   1.000  C
  H11      1.0000 0.58150  0.38740  0.72090  Biso   1.000  H
  H12      1.0000 0.61810  0.39780  0.60070  Biso   1.000  H
  C11      1.0000 0.90610  0.31820  0.72960  Biso   1.000  C
  C12      1.0000 0.75490  0.48170  0.81840  Biso   1.000  C
  H13      1.0000 0.78930  0.53340  0.85750  Biso   1.000  H
  H14      1.0000 0.75130  0.45010  0.89270  Biso   1.000  H
  C13      1.0000 0.83910  0.35760  0.77910  Biso   1.000  C
  H15      1.0000 0.80170  0.32760  0.81950  Biso   1.000  H
  C14      1.0000 0.27080  0.64510  0.38420  Biso   1.000  C
  H16      1.0000 0.30570  0.67220  0.33760  Biso   1.000  H
  C15      1.0000 0.88360  0.48140  0.70610  Biso   1.000  C
  H17      1.0000 0.87630  0.53770  0.69720  Biso   1.000  H
  C16      1.0000 0.91760  0.23420  0.74370  Biso   1.000  C
  C17      1.0000 0.96120  0.36060  0.66820  Biso   1.000  C
  H18      1.0000 0.00590  0.33350  0.63510  Biso   1.000  H
  C18      1.0000 0.22490  0.52290  0.46240  Biso   1.000  C
  H19      1.0000 0.22730  0.46640  0.46880  Biso   1.000  H
  C19      1.0000 0.19950  0.77270  0.42050  Biso   1.000  C
  N3       1.0000 0.19080  0.83970  0.41310  Biso   1.000  N
  N4       1.0000 0.92820  0.16570  0.75670  Biso   1.000  N
  C20      1.0000 0.15660  0.64790  0.50270  Biso   1.000  C
  H20      1.0000 0.11600  0.67710  0.53970  Biso   1.000  H
  Ag2      1.0000 0.05286  0.05742  0.83075  Biso   1.000  Ag
  C21      1.0000 0.13840  0.05380  0.60860  Biso   1.000  C
  H21      1.0000 0.17550  0.02950  0.55750  Biso   1.000  H
  H22      1.0000 0.17770  0.10330  0.65160  Biso   1.000  H
  C22      1.0000 0.96520  0.94459  0.55280  Biso   1.000  C
  H23      1.0000 0.92590  0.89510  0.50950  Biso   1.000  H
  H24      1.0000 0.92770  0.96910  0.60330  Biso   1.000  H
  N5       1.0000 0.14120  0.99775  0.71520  Biso   1.000  N
  N6       1.0000 0.96330  0.00017  0.44740  Biso   1.000  N
  C23      1.0000 0.32720  0.93910  0.76950  Biso   1.000  C
  C24      1.0000 0.78080  0.06160  0.40230  Biso   1.000  C
  C25      1.0000 0.44990  0.94150  0.65630  Biso   1.000  C
  H25      1.0000 0.48670  0.97080  0.61450  Biso   1.000  H
  C26      1.0000 0.70950  0.18660  0.43550  Biso   1.000  C
  C27      1.0000 0.66460  0.06630  0.51400  Biso   1.000  C
  H26      1.0000 0.62800  0.03900  0.55830  Biso   1.000  H
  C28      1.0000 0.02280  0.07350  0.51280  Biso   1.000  C
  H27      1.0000 0.98640  0.09970  0.56330  Biso   1.000  H
  H28      1.0000 0.02210  0.11110  0.44250  Biso   1.000  H
  C29      1.0000 0.85060  0.01760  0.34540  Biso   1.000  C
  H29      1.0000 0.81430  0.96670  0.30490  Biso   1.000  H
  H30      1.0000 0.85410  0.05020  0.27190  Biso   1.000  H
  C30      1.0000 0.08150  0.92450  0.65040  Biso   1.000  C
  H31      1.0000 0.08150  0.88740  0.72090  Biso   1.000  H
  H32      1.0000 0.11810  0.89780  0.60070  Biso   1.000  H
  C31      1.0000 0.40610  0.81820  0.72960  Biso   1.000  C
  C32      1.0000 0.25490  0.98170  0.81840  Biso   1.000  C
  H33      1.0000 0.28930  0.03340  0.85750  Biso   1.000  H
  H34      1.0000 0.25130  0.95010  0.89270  Biso   1.000  H
  C33      1.0000 0.33910  0.85760  0.77910  Biso   1.000  C
  H35      1.0000 0.30170  0.82760  0.81950  Biso   1.000  H
  C34      1.0000 0.77080  0.14510  0.38420  Biso   1.000  C
  H36      1.0000 0.80570  0.17220  0.33760  Biso   1.000  H
  C35      1.0000 0.38360  0.98140  0.70610  Biso   1.000  C
  H37      1.0000 0.37630  0.03770  0.69720  Biso   1.000  H
  C36      1.0000 0.41760  0.73420  0.74370  Biso   1.000  C
  C37      1.0000 0.46120  0.86060  0.66820  Biso   1.000  C
  H38      1.0000 0.50590  0.83350  0.63510  Biso   1.000  H
  C38      1.0000 0.72490  0.02290  0.46240  Biso   1.000  C
  H39      1.0000 0.72730  0.96640  0.46880  Biso   1.000  H
  C39      1.0000 0.69950  0.27270  0.42050  Biso   1.000  C
  N7       1.0000 0.69080  0.33970  0.41310  Biso   1.000  N
  N8       1.0000 0.42820  0.66570  0.75670  Biso   1.000  N
  C40      1.0000 0.65660  0.14790  0.50270  Biso   1.000  C
  H40      1.0000 0.61600  0.17710  0.53970  Biso   1.000  H
  Ag3      1.0000 0.55286  0.44258  0.33075  Biso   1.000  Ag
  C41      1.0000 0.63840  0.44620  0.10860  Biso   1.000  C
  H41      1.0000 0.67550  0.47050  0.05750  Biso   1.000  H
  H42      1.0000 0.67770  0.39670  0.15160  Biso   1.000  H
  C42      1.0000 0.46520  0.55541  0.05280  Biso   1.000  C
  H43      1.0000 0.42590  0.60490  0.00950  Biso   1.000  H
  H44      1.0000 0.42770  0.53090  0.10330  Biso   1.000  H
  N9       1.0000 0.64120  0.50225  0.21520  Biso   1.000  N
  N10      1.0000 0.46330  0.49983  0.94740  Biso   1.000  N
  C43      1.0000 0.82720  0.56090  0.26950  Biso   1.000  C
  C44      1.0000 0.28080  0.43840  0.90230  Biso   1.000  C
  C45      1.0000 0.94990  0.55850  0.15630  Biso   1.000  C
  H45      1.0000 0.98670  0.52920  0.11450  Biso   1.000  H
  C46      1.0000 0.20950  0.31340  0.93550  Biso   1.000  C
  C47      1.0000 0.16460  0.43370  0.01400  Biso   1.000  C
  H46      1.0000 0.12800  0.46100  0.05830  Biso   1.000  H
  C48      1.0000 0.52280  0.42650  0.01280  Biso   1.000  C
  H47      1.0000 0.48640  0.40030  0.06330  Biso   1.000  H
  H48      1.0000 0.52210  0.38890  0.94250  Biso   1.000  H
  C49      1.0000 0.35060  0.48240  0.84540  Biso   1.000  C
  H49      1.0000 0.31430  0.53330  0.80490  Biso   1.000  H
  H50      1.0000 0.35410  0.44980  0.77190  Biso   1.000  H
  C50      1.0000 0.58150  0.57550  0.15040  Biso   1.000  C
  H51      1.0000 0.58150  0.61260  0.22090  Biso   1.000  H
  H52      1.0000 0.61810  0.60220  0.10070  Biso   1.000  H
  C51      1.0000 0.90610  0.68180  0.22960  Biso   1.000  C
  C52      1.0000 0.75490  0.51830  0.31840  Biso   1.000  C
  H53      1.0000 0.78930  0.46660  0.35750  Biso   1.000  H
  H54      1.0000 0.75130  0.54990  0.39270  Biso   1.000  H
  C53      1.0000 0.83910  0.64240  0.27910  Biso   1.000  C
  H55      1.0000 0.80170  0.67240  0.31950  Biso   1.000  H
  C54      1.0000 0.27080  0.35490  0.88420  Biso   1.000  C
  H56      1.0000 0.30570  0.32780  0.83760  Biso   1.000  H
  C55      1.0000 0.88360  0.51860  0.20610  Biso   1.000  C
  H57      1.0000 0.87630  0.46230  0.19720  Biso   1.000  H
  C56      1.0000 0.91760  0.76580  0.24370  Biso   1.000  C
  C57      1.0000 0.96120  0.63940  0.16820  Biso   1.000  C
  H58      1.0000 0.00590  0.66650  0.13510  Biso   1.000  H
  C58      1.0000 0.22490  0.47710  0.96240  Biso   1.000  C
  H59      1.0000 0.22730  0.53360  0.96880  Biso   1.000  H
  C59      1.0000 0.19950  0.22730  0.92050  Biso   1.000  C
  N11      1.0000 0.19080  0.16030  0.91310  Biso   1.000  N
  N12      1.0000 0.92820  0.83430  0.25670  Biso   1.000  N
  C60      1.0000 0.15660  0.35210  0.00270  Biso   1.000  C
  H60      1.0000 0.11600  0.32290  0.03970  Biso   1.000  H
  Ag4      1.0000 0.05286  0.94258  0.33075  Biso   1.000  Ag
  C61      1.0000 0.13840  0.94620  0.10860  Biso   1.000  C
  H61      1.0000 0.17550  0.97050  0.05750  Biso   1.000  H
  H62      1.0000 0.17770  0.89670  0.15160  Biso   1.000  H
  C62      1.0000 0.96520  0.05541  0.05280  Biso   1.000  C
  H63      1.0000 0.92590  0.10490  0.00950  Biso   1.000  H
  H64      1.0000 0.92770  0.03090  0.10330  Biso   1.000  H
  N13      1.0000 0.14120  0.00225  0.21520  Biso   1.000  N
  N14      1.0000 0.96330  0.99983  0.94740  Biso   1.000  N
  C63      1.0000 0.32720  0.06090  0.26950  Biso   1.000  C
  C64      1.0000 0.78080  0.93840  0.90230  Biso   1.000  C
  C65      1.0000 0.44990  0.05850  0.15630  Biso   1.000  C
  H65      1.0000 0.48670  0.02920  0.11450  Biso   1.000  H
  C66      1.0000 0.70950  0.81340  0.93550  Biso   1.000  C
  C67      1.0000 0.66460  0.93370  0.01400  Biso   1.000  C
  H66      1.0000 0.62800  0.96100  0.05830  Biso   1.000  H
  C68      1.0000 0.02280  0.92650  0.01280  Biso   1.000  C
  H67      1.0000 0.98640  0.90030  0.06330  Biso   1.000  H
  H68      1.0000 0.02210  0.88890  0.94250  Biso   1.000  H
  C69      1.0000 0.85060  0.98240  0.84540  Biso   1.000  C
  H69      1.0000 0.81430  0.03330  0.80490  Biso   1.000  H
  H70      1.0000 0.85410  0.94980  0.77190  Biso   1.000  H
  C70      1.0000 0.08150  0.07550  0.15040  Biso   1.000  C
  H71      1.0000 0.08150  0.11260  0.22090  Biso   1.000  H
  H72      1.0000 0.11810  0.10220  0.10070  Biso   1.000  H
  C71      1.0000 0.40610  0.18180  0.22960  Biso   1.000  C
  C72      1.0000 0.25490  0.01830  0.31840  Biso   1.000  C
  H73      1.0000 0.28930  0.96660  0.35750  Biso   1.000  H
  H74      1.0000 0.25130  0.04990  0.39270  Biso   1.000  H
  C73      1.0000 0.33910  0.14240  0.27910  Biso   1.000  C
  H75      1.0000 0.30170  0.17240  0.31950  Biso   1.000  H
  C74      1.0000 0.77080  0.85490  0.88420  Biso   1.000  C
  H76      1.0000 0.80570  0.82780  0.83760  Biso   1.000  H
  C75      1.0000 0.38360  0.01860  0.20610  Biso   1.000  C
  H77      1.0000 0.37630  0.96230  0.19720  Biso   1.000  H
  C76      1.0000 0.41760  0.26580  0.24370  Biso   1.000  C
  C77      1.0000 0.46120  0.13940  0.16820  Biso   1.000  C
  H78      1.0000 0.50590  0.16650  0.13510  Biso   1.000  H
  C78      1.0000 0.72490  0.97710  0.96240  Biso   1.000  C
  H79      1.0000 0.72730  0.03360  0.96880  Biso   1.000  H
  C79      1.0000 0.69950  0.72730  0.92050  Biso   1.000  C
  N15      1.0000 0.69080  0.66030  0.91310  Biso   1.000  N
  N16      1.0000 0.42820  0.33430  0.25670  Biso   1.000  N
  C80      1.0000 0.65660  0.85210  0.00270  Biso   1.000  C
  H80      1.0000 0.61600  0.82290  0.03970  Biso   1.000  H
