data_SOJGOO_clean
_audit_creation_date              2014-07-02
_audit_creation_method            'Materials Studio'
_symmetry_space_group_name_H-M    'P1'
_symmetry_Int_Tables_number       1
_symmetry_cell_setting            triclinic
loop_
_symmetry_equiv_pos_as_xyz
  x,y,z
_cell_length_a                    11.8493
_cell_length_b                    13.9604
_cell_length_c                    34.2738
_cell_angle_alpha                 97.0961
_cell_angle_beta                  99.4543
_cell_angle_gamma                 100.1030
loop_
_atom_site_label
_atom_site_type_symbol
_atom_site_fract_x
_atom_site_fract_y
_atom_site_fract_z
_atom_site_U_iso_or_equiv
_atom_site_adp_type
_atom_site_occupancy
Ce1    Ce    0.13167   0.95730   0.75018   0.01267  Uiso   1.00
Ce2    Ce    0.84132   0.09220   0.75257   0.01267  Uiso   1.00
Ce3    Ce    0.51281   0.98659   0.24626   0.01267  Uiso   1.00
Ce4    Ce    0.86833   0.04270   0.24982   0.01267  Uiso   1.00
Ce5    Ce    0.15868   0.90780   0.24743   0.01267  Uiso   1.00
Ce6    Ce    0.48719   0.01341   0.75374   0.01267  Uiso   1.00
H1     H     0.44760   0.45180   0.85420   0.01267  Uiso   1.00
H2     H     0.60390   0.59320   0.85040   0.01267  Uiso   1.00
H3     H     0.99440   0.78970   0.94900   0.01267  Uiso   1.00
H4     H     0.10270   0.77070   0.01410   0.01267  Uiso   1.00
H5     H     0.02490   0.53240   0.12060   0.01267  Uiso   1.00
H6     H     0.87460   0.38970   0.12360   0.01267  Uiso   1.00
H7     H     0.46750   0.20470   0.02930   0.01267  Uiso   1.00
H8     H     0.36170   0.22560   0.96380   0.01267  Uiso   1.00
H9     H     0.67470   0.51440   0.95990   0.01267  Uiso   1.00
H10    H     0.79390   0.47670   0.01670   0.01267  Uiso   1.00
H11    H     0.92820   0.64360   0.86940   0.01267  Uiso   1.00
H12    H     0.98250   0.74800   0.82490   0.01267  Uiso   1.00
H13    H     0.75520   0.91450   0.85500   0.01267  Uiso   1.00
H14    H     0.69810   0.80710   0.89830   0.01267  Uiso   1.00
H15    H     0.00070   0.78750   0.09120   0.01267  Uiso   1.00
H16    H     0.13930   0.88440   0.14310   0.01267  Uiso   1.00
H17    H     0.35830   0.69680   0.12800   0.01267  Uiso   1.00
H18    H     0.21270   0.59490   0.07820   0.01267  Uiso   1.00
H19    H     0.52730   0.30600   0.10160   0.01267  Uiso   1.00
H20    H     0.51030   0.21190   0.15220   0.01267  Uiso   1.00
H21    H     0.79930   0.11170   0.13350   0.01267  Uiso   1.00
H22    H     0.81310   0.20380   0.08120   0.01267  Uiso   1.00
H23    H     0.26980   0.42990   0.90220   0.01267  Uiso   1.00
H24    H     0.11000   0.34670   0.85500   0.01267  Uiso   1.00
H25    H     0.26910   0.11590   0.83520   0.01267  Uiso   1.00
H26    H     0.43010   0.19910   0.88440   0.01267  Uiso   1.00
H27    H     0.02610   0.44070   0.36070   0.01267  Uiso   1.00
H28    H     0.18370   0.58190   0.35960   0.01267  Uiso   1.00
H29    H     0.52840   0.80970   0.47050   0.01267  Uiso   1.00
H30    H     0.61260   0.80000   0.54080   0.01267  Uiso   1.00
H31    H     0.51920   0.56130   0.64470   0.01267  Uiso   1.00
H32    H     0.36030   0.41900   0.64580   0.01267  Uiso   1.00
H33    H     0.96800   0.23600   0.54370   0.01267  Uiso   1.00
H34    H     0.88190   0.24640   0.47370   0.01267  Uiso   1.00
H35    H     0.20800   0.52610   0.47350   0.01267  Uiso   1.00
H36    H     0.30400   0.50170   0.53610   0.01267  Uiso   1.00
H37    H     0.20350   0.77750   0.39830   0.01267  Uiso   1.00
H38    H     0.23860   0.87310   0.34940   0.01267  Uiso   1.00
H39    H     0.55630   0.80290   0.35530   0.01267  Uiso   1.00
H40    H     0.51610   0.69760   0.40070   0.01267  Uiso   1.00
H41    H     0.51020   0.80240   0.62520   0.01267  Uiso   1.00
H42    H     0.66460   0.89430   0.67430   0.01267  Uiso   1.00
H43    H     0.87100   0.71230   0.64160   0.01267  Uiso   1.00
H44    H     0.71750   0.62230   0.59210   0.01267  Uiso   1.00
H45    H     0.03930   0.37980   0.62230   0.01267  Uiso   1.00
H46    H     0.97710   0.28430   0.66790   0.01267  Uiso   1.00
H47    H     0.20720   0.11130   0.64580   0.01267  Uiso   1.00
H48    H     0.26550   0.20710   0.59850   0.01267  Uiso   1.00
H49    H     0.81710   0.42050   0.39630   0.01267  Uiso   1.00
H50    H     0.68000   0.32310   0.34470   0.01267  Uiso   1.00
H51    H     0.86140   0.10090   0.35190   0.01267  Uiso   1.00
H52    H     0.99020   0.19790   0.40670   0.01267  Uiso   1.00
H53    H     0.31870   0.23860   0.75640   0.01267  Uiso   1.00
H54    H     0.55240   0.54820   0.14580   0.01267  Uiso   1.00
H55    H     0.39610   0.40680   0.14960   0.01267  Uiso   1.00
H56    H     0.00560   0.21030   0.05100   0.01267  Uiso   1.00
H57    H     0.89730   0.22930   0.98590   0.01267  Uiso   1.00
H58    H     0.97510   0.46760   0.87940   0.01267  Uiso   1.00
H59    H     0.12540   0.61030   0.87640   0.01267  Uiso   1.00
H60    H     0.53250   0.79530   0.97070   0.01267  Uiso   1.00
H61    H     0.63830   0.77440   0.03620   0.01267  Uiso   1.00
H62    H     0.32530   0.48560   0.04010   0.01267  Uiso   1.00
H63    H     0.20610   0.52330   0.98330   0.01267  Uiso   1.00
H64    H     0.07180   0.35640   0.13060   0.01267  Uiso   1.00
H65    H     0.01750   0.25200   0.17510   0.01267  Uiso   1.00
H66    H     0.24480   0.08550   0.14500   0.01267  Uiso   1.00
H67    H     0.30190   0.19290   0.10170   0.01267  Uiso   1.00
H68    H     0.99930   0.21250   0.90880   0.01267  Uiso   1.00
H69    H     0.86070   0.11560   0.85690   0.01267  Uiso   1.00
H70    H     0.64170   0.30320   0.87200   0.01267  Uiso   1.00
H71    H     0.78730   0.40510   0.92180   0.01267  Uiso   1.00
H72    H     0.47270   0.69400   0.89840   0.01267  Uiso   1.00
H73    H     0.48970   0.78810   0.84780   0.01267  Uiso   1.00
H74    H     0.20070   0.88830   0.86650   0.01267  Uiso   1.00
H75    H     0.18690   0.79620   0.91880   0.01267  Uiso   1.00
H76    H     0.73020   0.57010   0.09780   0.01267  Uiso   1.00
H77    H     0.89000   0.65330   0.14500   0.01267  Uiso   1.00
H78    H     0.73090   0.88410   0.16480   0.01267  Uiso   1.00
H79    H     0.56990   0.80090   0.11560   0.01267  Uiso   1.00
H80    H     0.97390   0.55930   0.63930   0.01267  Uiso   1.00
H81    H     0.81630   0.41810   0.64040   0.01267  Uiso   1.00
H82    H     0.47160   0.19030   0.52950   0.01267  Uiso   1.00
H83    H     0.38740   0.20000   0.45920   0.01267  Uiso   1.00
H84    H     0.48080   0.43870   0.35530   0.01267  Uiso   1.00
H85    H     0.63970   0.58100   0.35420   0.01267  Uiso   1.00
H86    H     0.03200   0.76400   0.45630   0.01267  Uiso   1.00
H87    H     0.11810   0.75360   0.52630   0.01267  Uiso   1.00
H88    H     0.79200   0.47390   0.52650   0.01267  Uiso   1.00
H89    H     0.69600   0.49830   0.46390   0.01267  Uiso   1.00
H90    H     0.79650   0.22250   0.60170   0.01267  Uiso   1.00
H91    H     0.76140   0.12690   0.65060   0.01267  Uiso   1.00
H92    H     0.44370   0.19710   0.64470   0.01267  Uiso   1.00
H93    H     0.48390   0.30240   0.59930   0.01267  Uiso   1.00
H94    H     0.48980   0.19760   0.37480   0.01267  Uiso   1.00
H95    H     0.33540   0.10570   0.32570   0.01267  Uiso   1.00
H96    H     0.12900   0.28770   0.35840   0.01267  Uiso   1.00
H97    H     0.28250   0.37770   0.40790   0.01267  Uiso   1.00
H98    H     0.96070   0.62020   0.37770   0.01267  Uiso   1.00
H99    H     0.02290   0.71570   0.33210   0.01267  Uiso   1.00
H100   H     0.79280   0.88870   0.35420   0.01267  Uiso   1.00
H101   H     0.73450   0.79290   0.40150   0.01267  Uiso   1.00
H102   H     0.18290   0.57950   0.60370   0.01267  Uiso   1.00
H103   H     0.32000   0.67690   0.65530   0.01267  Uiso   1.00
H104   H     0.13860   0.89910   0.64810   0.01267  Uiso   1.00
H105   H     0.00980   0.80210   0.59330   0.01267  Uiso   1.00
H106   H     0.68130   0.76140   0.24360   0.01267  Uiso   1.00
C1     C     0.54100   0.45580   0.91398   0.01267  Uiso   1.00
C2     C     0.51280   0.48220   0.87459   0.01267  Uiso   1.00
C3     C     0.59830   0.55930   0.87260   0.01267  Uiso   1.00
C4     C     0.67950   0.58020   0.91070   0.01267  Uiso   1.00
C5     C     0.78180   0.65170   0.91938   0.01267  Uiso   1.00
C6     C     0.86820   0.66640   0.95390   0.01267  Uiso   1.00
C7     C     0.97110   0.74080   0.96465   0.01267  Uiso   1.00
C8     C     0.03010   0.73120   0.00040   0.01267  Uiso   1.00
C9     C     0.96310   0.64990   0.01417   0.01267  Uiso   1.00
C10    C     0.99270   0.61560   0.05046   0.01267  Uiso   1.00
C11    C     0.92910   0.53290   0.06204   0.01267  Uiso   1.00
C12    C     0.95910   0.50280   0.10026   0.01267  Uiso   1.00
C13    C     0.87740   0.42560   0.10181   0.01267  Uiso   1.00
C14    C     0.79400   0.40590   0.06474   0.01267  Uiso   1.00
C15    C     0.68980   0.33440   0.05632   0.01267  Uiso   1.00
C16    C     0.60100   0.32220   0.02283   0.01267  Uiso   1.00
C17    C     0.49350   0.25170   0.01325   0.01267  Uiso   1.00
C18    C     0.43530   0.26360   0.97748   0.01267  Uiso   1.00
C19    C     0.50340   0.34340   0.96353   0.01267  Uiso   1.00
C20    C     0.47480   0.37800   0.92718   0.01267  Uiso   1.00
C21    C     0.80940   0.71570   0.88907   0.01267  Uiso   1.00
C22    C     0.89250   0.69890   0.86660   0.01267  Uiso   1.00
C23    C     0.92500   0.76090   0.84003   0.01267  Uiso   1.00
C24    C     0.87370   0.84190   0.83545   0.01267  Uiso   1.00
C25    C     0.79040   0.85890   0.85762   0.01267  Uiso   1.00
C26    C     0.75740   0.79540   0.88381   0.01267  Uiso   1.00
C27    C     0.91460   0.91000   0.80832   0.01267  Uiso   1.00
C28    C     0.09020   0.67980   0.08079   0.01267  Uiso   1.00
C29    C     0.07200   0.76710   0.09949   0.01267  Uiso   1.00
C30    C     0.15470   0.82550   0.12991   0.01267  Uiso   1.00
C31    C     0.26080   0.79800   0.14128   0.01267  Uiso   1.00
C32    C     0.28410   0.71380   0.12136   0.01267  Uiso   1.00
C33    C     0.19780   0.65390   0.09143   0.01267  Uiso   1.00
C34    C     0.34920   0.86110   0.17593   0.01267  Uiso   1.00
C35    C     0.67250   0.26740   0.08702   0.01267  Uiso   1.00
C36    C     0.58350   0.26670   0.10807   0.01267  Uiso   1.00
C37    C     0.57310   0.21100   0.13821   0.01267  Uiso   1.00
C38    C     0.65410   0.15390   0.14805   0.01267  Uiso   1.00
C39    C     0.74370   0.15140   0.12695   0.01267  Uiso   1.00
C40    C     0.75260   0.20690   0.09610   0.01267  Uiso   1.00
C41    C     0.65110   0.09660   0.18180   0.01267  Uiso   1.00
C42    C     0.36750   0.32180   0.89826   0.01267  Uiso   1.00
C43    C     0.26990   0.36600   0.88885   0.01267  Uiso   1.00
C44    C     0.17590   0.31700   0.86061   0.01267  Uiso   1.00
C45    C     0.17410   0.22390   0.83970   0.01267  Uiso   1.00
C46    C     0.26910   0.17950   0.84876   0.01267  Uiso   1.00
C47    C     0.36510   0.22960   0.87820   0.01267  Uiso   1.00
C48    C     0.07130   0.17560   0.80774   0.01267  Uiso   1.00
C49    C     0.09090   0.45910   0.42418   0.01267  Uiso   1.00
C50    C     0.08210   0.47670   0.38307   0.01267  Uiso   1.00
C51    C     0.16770   0.55350   0.38244   0.01267  Uiso   1.00
C52    C     0.23120   0.58440   0.42345   0.01267  Uiso   1.00
C53    C     0.32660   0.66130   0.43463   0.01267  Uiso   1.00
C54    C     0.40100   0.68260   0.47204   0.01267  Uiso   1.00
C55    C     0.50000   0.76150   0.48576   0.01267  Uiso   1.00
C56    C     0.54680   0.75600   0.52444   0.01267  Uiso   1.00
C57    C     0.47960   0.67280   0.53591   0.01267  Uiso   1.00
C58    C     0.49900   0.64260   0.57335   0.01267  Uiso   1.00
C59    C     0.43170   0.56040   0.58420   0.01267  Uiso   1.00
C60    C     0.45560   0.53160   0.62350   0.01267  Uiso   1.00
C61    C     0.36950   0.45390   0.62405   0.01267  Uiso   1.00
C62    C     0.29380   0.43440   0.58458   0.01267  Uiso   1.00
C63    C     0.19070   0.36340   0.57437   0.01267  Uiso   1.00
C64    C     0.10980   0.34910   0.53856   0.01267  Uiso   1.00
C65    C     0.00090   0.27890   0.52731   0.01267  Uiso   1.00
C66    C     0.95330   0.28510   0.48885   0.01267  Uiso   1.00
C67    C     0.02880   0.35930   0.47531   0.01267  Uiso   1.00
C68    C     0.01660   0.38480   0.43700   0.01267  Uiso   1.00
C69    C     0.35380   0.72670   0.40475   0.01267  Uiso   1.00
C70    C     0.27500   0.78070   0.38895   0.01267  Uiso   1.00
C71    C     0.29610   0.83890   0.36021   0.01267  Uiso   1.00
C72    C     0.40160   0.84730   0.34713   0.01267  Uiso   1.00
C73    C     0.48280   0.79570   0.36344   0.01267  Uiso   1.00
C74    C     0.46020   0.73440   0.39104   0.01267  Uiso   1.00
C75    C     0.43090   0.91010   0.31707   0.01267  Uiso   1.00
C76    C     0.59830   0.70150   0.60361   0.01267  Uiso   1.00
C77    C     0.58400   0.78360   0.62825   0.01267  Uiso   1.00
C78    C     0.67650   0.83890   0.65752   0.01267  Uiso   1.00
C79    C     0.78360   0.81410   0.66226   0.01267  Uiso   1.00
C80    C     0.79770   0.73200   0.63820   0.01267  Uiso   1.00
C81    C     0.70520   0.67750   0.60882   0.01267  Uiso   1.00
C82    C     0.88490   0.87150   0.69348   0.01267  Uiso   1.00
C83    C     0.15650   0.30230   0.60537   0.01267  Uiso   1.00
C84    C     0.07280   0.32420   0.62670   0.01267  Uiso   1.00
C85    C     0.03640   0.26830   0.65411   0.01267  Uiso   1.00
C86    C     0.08620   0.18860   0.66168   0.01267  Uiso   1.00
C87    C     0.17220   0.16600   0.64077   0.01267  Uiso   1.00
C88    C     0.20700   0.22290   0.61265   0.01267  Uiso   1.00
C89    C     0.04510   0.12670   0.69080   0.01267  Uiso   1.00
C90    C     0.92000   0.31980   0.40616   0.01267  Uiso   1.00
C91    C     0.82530   0.35530   0.38746   0.01267  Uiso   1.00
C92    C     0.74450   0.29800   0.35676   0.01267  Uiso   1.00
C93    C     0.75650   0.20160   0.34279   0.01267  Uiso   1.00
C94    C     0.85100   0.16510   0.36122   0.01267  Uiso   1.00
C95    C     0.92870   0.22400   0.39319   0.01267  Uiso   1.00
C96    C     0.67640   0.13860   0.30710   0.01267  Uiso   1.00
C97    C     0.36210   0.18740   0.75700   0.01267  Uiso   1.00
C98    C     0.45900   0.54420   0.08602   0.01267  Uiso   1.00
C99    C     0.48720   0.51780   0.12541   0.01267  Uiso   1.00
C100   C     0.40170   0.44070   0.12740   0.01267  Uiso   1.00
C101   C     0.32050   0.41980   0.08930   0.01267  Uiso   1.00
C102   C     0.21820   0.34830   0.08062   0.01267  Uiso   1.00
C103   C     0.13180   0.33360   0.04610   0.01267  Uiso   1.00
C104   C     0.02890   0.25920   0.03535   0.01267  Uiso   1.00
C105   C     0.96990   0.26880   0.99960   0.01267  Uiso   1.00
C106   C     0.03690   0.35010   0.98583   0.01267  Uiso   1.00
C107   C     0.00730   0.38440   0.94954   0.01267  Uiso   1.00
C108   C     0.07090   0.46710   0.93796   0.01267  Uiso   1.00
C109   C     0.04090   0.49720   0.89974   0.01267  Uiso   1.00
C110   C     0.12260   0.57440   0.89819   0.01267  Uiso   1.00
C111   C     0.20600   0.59410   0.93526   0.01267  Uiso   1.00
C112   C     0.31020   0.66560   0.94368   0.01267  Uiso   1.00
C113   C     0.39900   0.67780   0.97717   0.01267  Uiso   1.00
C114   C     0.50650   0.74830   0.98675   0.01267  Uiso   1.00
C115   C     0.56470   0.73640   0.02252   0.01267  Uiso   1.00
C116   C     0.49660   0.65660   0.03647   0.01267  Uiso   1.00
C117   C     0.52520   0.62200   0.07282   0.01267  Uiso   1.00
C118   C     0.19060   0.28430   0.11093   0.01267  Uiso   1.00
C119   C     0.10750   0.30110   0.13340   0.01267  Uiso   1.00
C120   C     0.07500   0.23910   0.15997   0.01267  Uiso   1.00
C121   C     0.12630   0.15810   0.16455   0.01267  Uiso   1.00
C122   C     0.20960   0.14110   0.14238   0.01267  Uiso   1.00
C123   C     0.24260   0.20460   0.11619   0.01267  Uiso   1.00
C124   C     0.08540   0.09000   0.19168   0.01267  Uiso   1.00
C125   C     0.90980   0.32020   0.91921   0.01267  Uiso   1.00
C126   C     0.92800   0.23290   0.90051   0.01267  Uiso   1.00
C127   C     0.84530   0.17450   0.87009   0.01267  Uiso   1.00
C128   C     0.73920   0.20200   0.85872   0.01267  Uiso   1.00
C129   C     0.71590   0.28620   0.87864   0.01267  Uiso   1.00
C130   C     0.80220   0.34610   0.90857   0.01267  Uiso   1.00
C131   C     0.65080   0.13890   0.82407   0.01267  Uiso   1.00
C132   C     0.32750   0.73260   0.91298   0.01267  Uiso   1.00
C133   C     0.41650   0.73330   0.89193   0.01267  Uiso   1.00
C134   C     0.42690   0.78900   0.86179   0.01267  Uiso   1.00
C135   C     0.34590   0.84610   0.85195   0.01267  Uiso   1.00
C136   C     0.25630   0.84860   0.87305   0.01267  Uiso   1.00
C137   C     0.24740   0.79310   0.90390   0.01267  Uiso   1.00
C138   C     0.34890   0.90340   0.81820   0.01267  Uiso   1.00
C139   C     0.63250   0.67820   0.10174   0.01267  Uiso   1.00
C140   C     0.73010   0.63400   0.11115   0.01267  Uiso   1.00
C141   C     0.82410   0.68300   0.13939   0.01267  Uiso   1.00
C142   C     0.82590   0.77610   0.16030   0.01267  Uiso   1.00
C143   C     0.73090   0.82050   0.15124   0.01267  Uiso   1.00
C144   C     0.63490   0.77040   0.12180   0.01267  Uiso   1.00
C145   C     0.92870   0.82440   0.19226   0.01267  Uiso   1.00
C146   C     0.90910   0.54090   0.57582   0.01267  Uiso   1.00
C147   C     0.91790   0.52330   0.61693   0.01267  Uiso   1.00
C148   C     0.83230   0.44650   0.61756   0.01267  Uiso   1.00
C149   C     0.76880   0.41560   0.57655   0.01267  Uiso   1.00
C150   C     0.67340   0.33870   0.56537   0.01267  Uiso   1.00
C151   C     0.59900   0.31740   0.52796   0.01267  Uiso   1.00
C152   C     0.50000   0.23850   0.51424   0.01267  Uiso   1.00
C153   C     0.45320   0.24400   0.47556   0.01267  Uiso   1.00
C154   C     0.52040   0.32720   0.46409   0.01267  Uiso   1.00
C155   C     0.50100   0.35740   0.42665   0.01267  Uiso   1.00
C156   C     0.56830   0.43960   0.41580   0.01267  Uiso   1.00
C157   C     0.54440   0.46840   0.37650   0.01267  Uiso   1.00
C158   C     0.63050   0.54610   0.37595   0.01267  Uiso   1.00
C159   C     0.70620   0.56560   0.41542   0.01267  Uiso   1.00
C160   C     0.80930   0.63660   0.42563   0.01267  Uiso   1.00
C161   C     0.89020   0.65090   0.46144   0.01267  Uiso   1.00
C162   C     0.99910   0.72110   0.47269   0.01267  Uiso   1.00
C163   C     0.04670   0.71490   0.51115   0.01267  Uiso   1.00
C164   C     0.97120   0.64070   0.52469   0.01267  Uiso   1.00
C165   C     0.98340   0.61520   0.56300   0.01267  Uiso   1.00
C166   C     0.64620   0.27330   0.59525   0.01267  Uiso   1.00
C167   C     0.72500   0.21930   0.61105   0.01267  Uiso   1.00
C168   C     0.70390   0.16110   0.63979   0.01267  Uiso   1.00
C169   C     0.59840   0.15270   0.65287   0.01267  Uiso   1.00
C170   C     0.51720   0.20430   0.63656   0.01267  Uiso   1.00
C171   C     0.53980   0.26560   0.60896   0.01267  Uiso   1.00
C172   C     0.56910   0.08990   0.68293   0.01267  Uiso   1.00
C173   C     0.40170   0.29850   0.39639   0.01267  Uiso   1.00
C174   C     0.41600   0.21640   0.37175   0.01267  Uiso   1.00
C175   C     0.32350   0.16110   0.34248   0.01267  Uiso   1.00
C176   C     0.21640   0.18590   0.33774   0.01267  Uiso   1.00
C177   C     0.20230   0.26800   0.36180   0.01267  Uiso   1.00
C178   C     0.29480   0.32250   0.39118   0.01267  Uiso   1.00
C179   C     0.11510   0.12850   0.30652   0.01267  Uiso   1.00
C180   C     0.84350   0.69770   0.39463   0.01267  Uiso   1.00
C181   C     0.92720   0.67580   0.37330   0.01267  Uiso   1.00
C182   C     0.96360   0.73170   0.34589   0.01267  Uiso   1.00
C183   C     0.91380   0.81140   0.33832   0.01267  Uiso   1.00
C184   C     0.82780   0.83400   0.35923   0.01267  Uiso   1.00
C185   C     0.79300   0.77710   0.38735   0.01267  Uiso   1.00
C186   C     0.95490   0.87330   0.30920   0.01267  Uiso   1.00
C187   C     0.08000   0.68020   0.59384   0.01267  Uiso   1.00
C188   C     0.17470   0.64470   0.61254   0.01267  Uiso   1.00
C189   C     0.25550   0.70200   0.64324   0.01267  Uiso   1.00
C190   C     0.24350   0.79840   0.65721   0.01267  Uiso   1.00
C191   C     0.14900   0.83490   0.63878   0.01267  Uiso   1.00
C192   C     0.07130   0.77600   0.60681   0.01267  Uiso   1.00
C193   C     0.32360   0.86140   0.69290   0.01267  Uiso   1.00
C194   C     0.63790   0.81260   0.24300   0.01267  Uiso   1.00
N1     N     0.64110   0.51620   0.93522   0.01267  Uiso   1.00
N2     N     0.86600   0.61150   0.98522   0.01267  Uiso   1.00
N3     N     0.82930   0.47310   0.04101   0.01267  Uiso   1.00
N4     N     0.60310   0.37780   0.99194   0.01267  Uiso   1.00
N5     N     0.18340   0.52370   0.44763   0.01267  Uiso   1.00
N6     N     0.39010   0.63080   0.50390   0.01267  Uiso   1.00
N7     N     0.33440   0.49940   0.56116   0.01267  Uiso   1.00
N8     N     0.12390   0.39730   0.50624   0.01267  Uiso   1.00
N9     N     0.35890   0.48380   0.06478   0.01267  Uiso   1.00
N10    N     0.13400   0.38850   0.01478   0.01267  Uiso   1.00
N11    N     0.17070   0.52690   0.95899   0.01267  Uiso   1.00
N12    N     0.39690   0.62220   0.00806   0.01267  Uiso   1.00
N13    N     0.81660   0.47630   0.55237   0.01267  Uiso   1.00
N14    N     0.60990   0.36920   0.49610   0.01267  Uiso   1.00
N15    N     0.66560   0.50060   0.43884   0.01267  Uiso   1.00
N16    N     0.87610   0.60270   0.49376   0.01267  Uiso   1.00
O1     O     0.99760   0.89180   0.79159   0.01267  Uiso   1.00
O2     O     0.86030   0.97910   0.80241   0.01267  Uiso   1.00
O3     O     0.31150   0.89270   0.20629   0.01267  Uiso   1.00
O4     O     0.45410   0.88290   0.17365   0.01267  Uiso   1.00
O5     O     0.56860   0.10130   0.20098   0.01267  Uiso   1.00
O6     O     0.72810   0.04920   0.19106   0.01267  Uiso   1.00
O7     O     0.98360   0.21570   0.80362   0.01267  Uiso   1.00
O8     O     0.07340   0.09650   0.78551   0.01267  Uiso   1.00
O9     O     0.35050   0.93480   0.29305   0.01267  Uiso   1.00
O10    O     0.53730   0.94030   0.31570   0.01267  Uiso   1.00
O11    O     0.86800   0.94700   0.71487   0.01267  Uiso   1.00
O12    O     0.98080   0.84290   0.69830   0.01267  Uiso   1.00
O13    O     0.09410   0.05580   0.69755   0.01267  Uiso   1.00
O14    O     0.96230   0.14930   0.70698   0.01267  Uiso   1.00
O15    O     0.57230   0.15140   0.29740   0.01267  Uiso   1.00
O16    O     0.71330   0.07550   0.28600   0.01267  Uiso   1.00
O17    O     0.31530   0.09910   0.75989   0.01267  Uiso   1.00
O18    O     0.47420   0.20330   0.75485   0.01267  Uiso   1.00
O19    O     0.00240   0.10820   0.20841   0.01267  Uiso   1.00
O20    O     0.13970   0.02090   0.19759   0.01267  Uiso   1.00
O21    O     0.68850   0.10730   0.79371   0.01267  Uiso   1.00
O22    O     0.54590   0.11710   0.82635   0.01267  Uiso   1.00
O23    O     0.43140   0.89870   0.79902   0.01267  Uiso   1.00
O24    O     0.27190   0.95080   0.80894   0.01267  Uiso   1.00
O25    O     0.01640   0.78430   0.19638   0.01267  Uiso   1.00
O26    O     0.92660   0.90350   0.21449   0.01267  Uiso   1.00
O27    O     0.64950   0.06520   0.70695   0.01267  Uiso   1.00
O28    O     0.46270   0.05970   0.68430   0.01267  Uiso   1.00
O29    O     0.13200   0.05300   0.28513   0.01267  Uiso   1.00
O30    O     0.01920   0.15710   0.30170   0.01267  Uiso   1.00
O31    O     0.90590   0.94420   0.30245   0.01267  Uiso   1.00
O32    O     0.03770   0.85070   0.29302   0.01267  Uiso   1.00
O33    O     0.42770   0.84860   0.70260   0.01267  Uiso   1.00
O34    O     0.28670   0.92450   0.71400   0.01267  Uiso   1.00
O35    O     0.68470   0.90090   0.24011   0.01267  Uiso   1.00
O36    O     0.52580   0.79670   0.24515   0.01267  Uiso   1.00
