data_image0
_cell_length_a       7.9341
_cell_length_b       13.8697
_cell_length_c       7.3361
_cell_angle_alpha    90
_cell_angle_beta     90
_cell_angle_gamma    90

_symmetry_space_group_name_H-M    "P 1"
_symmetry_int_tables_number       1

loop_
  _symmetry_equiv_pos_as_xyz
  'x, y, z'

loop_
  _atom_site_label
  _atom_site_occupancy
  _atom_site_fract_x
  _atom_site_fract_y
  _atom_site_fract_z
  _atom_site_thermal_displace_type
  _atom_site_B_iso_or_equiv
  _atom_site_type_symbol
  Co1      1.0000 0.22306  0.33545  0.75887  Biso   1.000  Co
  O1       1.0000 0.10720  0.22871  0.60830  Biso   1.000  O
  O2       1.0000 0.92930  0.16391  0.41330  Biso   1.000  O
  O3       1.0000 0.31280  0.21260  0.90140  Biso   1.000  O
  O4       1.0000 0.50840  0.14626  0.07710  Biso   1.000  O
  O5       1.0000 0.11330  0.45227  0.61780  Biso   1.000  O
  O6       1.0000 0.13060  0.57152  0.41850  Biso   1.000  O
  C1       1.0000 0.98890  0.23298  0.49870  Biso   1.000  C
  H1       1.0000 0.94060  0.29320  0.47880  Biso   1.000  H
  C2       1.0000 0.44520  0.21476  0.99330  Biso   1.000  C
  H2       1.0000 0.50170  0.27340  0.99940  Biso   1.000  H
  C3       1.0000 0.19170  0.50414  0.50730  Biso   1.000  C
  H3       1.0000 0.30560  0.49100  0.49030  Biso   1.000  H
  Co2      1.0000 0.27694  0.66455  0.25887  Biso   1.000  Co
  O7       1.0000 0.39280  0.77129  0.10830  Biso   1.000  O
  O8       1.0000 0.57070  0.83609  0.91330  Biso   1.000  O
  O9       1.0000 0.18720  0.78740  0.40140  Biso   1.000  O
  O10      1.0000 0.99160  0.85374  0.57710  Biso   1.000  O
  O11      1.0000 0.38670  0.54773  0.11780  Biso   1.000  O
  O12      1.0000 0.36940  0.42848  0.91850  Biso   1.000  O
  C4       1.0000 0.51110  0.76702  0.99870  Biso   1.000  C
  H4       1.0000 0.55940  0.70680  0.97880  Biso   1.000  H
  C5       1.0000 0.05480  0.78524  0.49330  Biso   1.000  C
  H5       1.0000 0.99830  0.72660  0.49940  Biso   1.000  H
  C6       1.0000 0.30830  0.49586  0.00730  Biso   1.000  C
  H6       1.0000 0.19440  0.50900  0.99030  Biso   1.000  H
  Co3      1.0000 0.77694  0.83545  0.74113  Biso   1.000  Co
  O13      1.0000 0.89280  0.72871  0.89170  Biso   1.000  O
  O14      1.0000 0.07070  0.66391  0.08670  Biso   1.000  O
  O15      1.0000 0.68720  0.71260  0.59860  Biso   1.000  O
  O16      1.0000 0.49160  0.64626  0.42290  Biso   1.000  O
  O17      1.0000 0.88670  0.95227  0.88220  Biso   1.000  O
  O18      1.0000 0.86940  0.07152  0.08150  Biso   1.000  O
  C7       1.0000 0.01110  0.73298  0.00130  Biso   1.000  C
  H7       1.0000 0.05940  0.79320  0.02120  Biso   1.000  H
  C8       1.0000 0.55480  0.71476  0.50670  Biso   1.000  C
  H8       1.0000 0.49830  0.77340  0.50060  Biso   1.000  H
  C9       1.0000 0.80830  0.00414  0.99270  Biso   1.000  C
  H9       1.0000 0.69440  0.99100  0.00970  Biso   1.000  H
  Co4      1.0000 0.72306  0.16455  0.24113  Biso   1.000  Co
  O19      1.0000 0.60720  0.27129  0.39170  Biso   1.000  O
  O20      1.0000 0.42930  0.33609  0.58670  Biso   1.000  O
  O21      1.0000 0.81280  0.28740  0.09860  Biso   1.000  O
  O22      1.0000 0.00840  0.35374  0.92290  Biso   1.000  O
  O23      1.0000 0.61330  0.04773  0.38220  Biso   1.000  O
  O24      1.0000 0.63060  0.92848  0.58150  Biso   1.000  O
  C10      1.0000 0.48890  0.26702  0.50130  Biso   1.000  C
  H10      1.0000 0.44060  0.20680  0.52120  Biso   1.000  H
  C11      1.0000 0.94520  0.28524  0.00670  Biso   1.000  C
  H11      1.0000 0.00170  0.22660  0.00060  Biso   1.000  H
  C12      1.0000 0.69170  0.99586  0.49270  Biso   1.000  C
  H12      1.0000 0.80560  0.00900  0.50970  Biso   1.000  H
