data_image0
_cell_length_a       7.9415
_cell_length_b       13.846
_cell_length_c       7.3103
_cell_angle_alpha    90
_cell_angle_beta     90
_cell_angle_gamma    90

_symmetry_space_group_name_H-M    "P 1"
_symmetry_int_tables_number       1

loop_
  _symmetry_equiv_pos_as_xyz
  'x, y, z'

loop_
  _atom_site_label
  _atom_site_occupancy
  _atom_site_fract_x
  _atom_site_fract_y
  _atom_site_fract_z
  _atom_site_thermal_displace_type
  _atom_site_B_iso_or_equiv
  _atom_site_type_symbol
  Co1      1.0000 0.22060  0.33545  0.75941  Biso   1.000  Co
  O1       1.0000 0.10520  0.22859  0.60810  Biso   1.000  O
  O2       1.0000 0.92690  0.16402  0.41200  Biso   1.000  O
  O3       1.0000 0.30884  0.21194  0.90260  Biso   1.000  O
  O4       1.0000 0.50562  0.14524  0.07730  Biso   1.000  O
  O5       1.0000 0.11210  0.45290  0.61900  Biso   1.000  O
  O6       1.0000 0.13161  0.57242  0.41890  Biso   1.000  O
  C1       1.0000 0.98590  0.23363  0.49840  Biso   1.000  C
  H1       1.0000 0.93610  0.29520  0.47910  Biso   1.000  H
  C2       1.0000 0.44350  0.21428  0.99170  Biso   1.000  C
  H2       1.0000 0.50320  0.27370  0.99410  Biso   1.000  H
  C3       1.0000 0.19330  0.50449  0.50870  Biso   1.000  C
  H3       1.0000 0.30960  0.49090  0.49260  Biso   1.000  H
  Co2      1.0000 0.27940  0.66455  0.25941  Biso   1.000  Co
  O7       1.0000 0.39480  0.77141  0.10810  Biso   1.000  O
  O8       1.0000 0.57310  0.83598  0.91200  Biso   1.000  O
  O9       1.0000 0.19116  0.78806  0.40260  Biso   1.000  O
  O10      1.0000 0.99438  0.85476  0.57730  Biso   1.000  O
  O11      1.0000 0.38790  0.54710  0.11900  Biso   1.000  O
  O12      1.0000 0.36839  0.42758  0.91890  Biso   1.000  O
  C4       1.0000 0.51410  0.76637  0.99840  Biso   1.000  C
  H4       1.0000 0.56390  0.70480  0.97910  Biso   1.000  H
  C5       1.0000 0.05650  0.78572  0.49170  Biso   1.000  C
  H5       1.0000 0.99680  0.72630  0.49410  Biso   1.000  H
  C6       1.0000 0.30670  0.49551  0.00870  Biso   1.000  C
  H6       1.0000 0.19040  0.50910  0.99260  Biso   1.000  H
  Co3      1.0000 0.77940  0.83545  0.74059  Biso   1.000  Co
  O13      1.0000 0.89480  0.72859  0.89190  Biso   1.000  O
  O14      1.0000 0.07310  0.66402  0.08800  Biso   1.000  O
  O15      1.0000 0.69116  0.71194  0.59740  Biso   1.000  O
  O16      1.0000 0.49438  0.64524  0.42270  Biso   1.000  O
  O17      1.0000 0.88790  0.95290  0.88100  Biso   1.000  O
  O18      1.0000 0.86839  0.07242  0.08110  Biso   1.000  O
  C7       1.0000 0.01410  0.73363  0.00160  Biso   1.000  C
  H7       1.0000 0.06390  0.79520  0.02090  Biso   1.000  H
  C8       1.0000 0.55650  0.71428  0.50830  Biso   1.000  C
  H8       1.0000 0.49680  0.77370  0.50590  Biso   1.000  H
  C9       1.0000 0.80670  0.00449  0.99130  Biso   1.000  C
  H9       1.0000 0.69040  0.99090  0.00740  Biso   1.000  H
  Co4      1.0000 0.72060  0.16455  0.24059  Biso   1.000  Co
  O19      1.0000 0.60520  0.27141  0.39190  Biso   1.000  O
  O20      1.0000 0.42690  0.33598  0.58800  Biso   1.000  O
  O21      1.0000 0.80884  0.28806  0.09740  Biso   1.000  O
  O22      1.0000 0.00562  0.35476  0.92270  Biso   1.000  O
  O23      1.0000 0.61210  0.04710  0.38100  Biso   1.000  O
  O24      1.0000 0.63161  0.92758  0.58110  Biso   1.000  O
  C10      1.0000 0.48590  0.26637  0.50160  Biso   1.000  C
  H10      1.0000 0.43610  0.20480  0.52090  Biso   1.000  H
  C11      1.0000 0.94350  0.28572  0.00830  Biso   1.000  C
  H11      1.0000 0.00320  0.22630  0.00590  Biso   1.000  H
  C12      1.0000 0.69330  0.99551  0.49130  Biso   1.000  C
  H12      1.0000 0.80960  0.00910  0.50740  Biso   1.000  H
