data_image0
_cell_length_a       9.8536
_cell_length_b       9.8536
_cell_length_c       48.8865
_cell_angle_alpha    90
_cell_angle_beta     90
_cell_angle_gamma    90

_symmetry_space_group_name_H-M    "P 1"
_symmetry_int_tables_number       1

loop_
  _symmetry_equiv_pos_as_xyz
  'x, y, z'

loop_
  _atom_site_label
  _atom_site_occupancy
  _atom_site_fract_x
  _atom_site_fract_y
  _atom_site_fract_z
  _atom_site_thermal_displace_type
  _atom_site_B_iso_or_equiv
  _atom_site_type_symbol
  Cd1      1.0000 0.75151  0.80887  0.07767  Biso   1.000  Cd
  C1       1.0000 0.72130  0.80170  0.16290  Biso   1.000  C
  C2       1.0000 0.70720  0.67730  0.17790  Biso   1.000  C
  H1       1.0000 0.70230  0.59490  0.16860  Biso   1.000  H
  C3       1.0000 0.70080  0.68060  0.20650  Biso   1.000  C
  C4       1.0000 0.70560  0.80540  0.22000  Biso   1.000  C
  H2       1.0000 0.69760  0.80860  0.23890  Biso   1.000  H
  C5       1.0000 0.72240  0.92700  0.20490  Biso   1.000  C
  C6       1.0000 0.73620  0.91980  0.17700  Biso   1.000  C
  H3       1.0000 0.75660  0.99860  0.16740  Biso   1.000  H
  C7       1.0000 0.72990  0.79960  0.13290  Biso   1.000  C
  C8       1.0000 0.69020  0.55320  0.22220  Biso   1.000  C
  C9       1.0000 0.72580  0.05960  0.21960  Biso   1.000  C
  C10      1.0000 0.28320  0.47580  0.04650  Biso   1.000  C
  C11      1.0000 0.39800  0.41300  0.04030  Biso   1.000  C
  H4       1.0000 0.47760  0.46250  0.03790  Biso   1.000  H
  C12      1.0000 0.39800  0.27200  0.03730  Biso   1.000  C
  H5       1.0000 0.47930  0.22600  0.03530  Biso   1.000  H
  C13      1.0000 0.28030  0.20400  0.03730  Biso   1.000  C
  C14      1.0000 0.16420  0.27080  0.04260  Biso   1.000  C
  H6       1.0000 0.08250  0.22380  0.04370  Biso   1.000  H
  C15      1.0000 0.16700  0.40900  0.04620  Biso   1.000  C
  H7       1.0000 0.08610  0.45640  0.04860  Biso   1.000  H
  C16      1.0000 0.28570  0.63160  0.05350  Biso   1.000  C
  H8       1.0000 0.36810  0.65220  0.06350  Biso   1.000  H
  H9       1.0000 0.28730  0.68330  0.03660  Biso   1.000  H
  C17      1.0000 0.15700  0.64700  0.09730  Biso   1.000  C
  H10      1.0000 0.22170  0.60990  0.10890  Biso   1.000  H
  C18      1.0000 0.03090  0.68800  0.10450  Biso   1.000  C
  H11      1.0000 0.99350  0.68310  0.12200  Biso   1.000  H
  C19      1.0000 0.05740  0.72560  0.06140  Biso   1.000  C
  H12      1.0000 0.03980  0.75240  0.04350  Biso   1.000  H
  C20      1.0000 0.27900  0.05000  0.03370  Biso   1.000  C
  H13      1.0000 0.18680  0.01730  0.03530  Biso   1.000  H
  H14      1.0000 0.31190  0.02760  0.01560  Biso   1.000  H
  C21      1.0000 0.33200  0.97700  0.08090  Biso   1.000  C
  H15      1.0000 0.25300  0.00430  0.08970  Biso   1.000  H
  C22      1.0000 0.44700  0.92000  0.09200  Biso   1.000  C
  H16      1.0000 0.45750  0.90440  0.11070  Biso   1.000  H
  C23      1.0000 0.48580  0.93320  0.04990  Biso   1.000  C
  H17      1.0000 0.52830  0.92880  0.03300  Biso   1.000  H
  N1       1.0000 0.96800  0.73800  0.08160  Biso   1.000  N
  N2       1.0000 0.17270  0.67180  0.06920  Biso   1.000  N
  N3       1.0000 0.54330  0.88980  0.07350  Biso   1.000  N
  N4       1.0000 0.36220  0.98260  0.05370  Biso   1.000  N
  O1       1.0000 0.67990  0.70360  0.11925  Biso   1.000  O
  O2       1.0000 0.77950  0.90260  0.12127  Biso   1.000  O
  O3       1.0000 0.68070  0.44090  0.21025  Biso   1.000  O
  O4       1.0000 0.68980  0.55860  0.24830  Biso   1.000  O
  O5       1.0000 0.78350  0.16050  0.20740  Biso   1.000  O
  O6       1.0000 0.66520  0.07740  0.24050  Biso   1.000  O
  Cd2      1.0000 0.24849  0.19113  0.57767  Biso   1.000  Cd
  C24      1.0000 0.27870  0.19830  0.66290  Biso   1.000  C
  C25      1.0000 0.29280  0.32270  0.67790  Biso   1.000  C
  H18      1.0000 0.29770  0.40510  0.66860  Biso   1.000  H
  C26      1.0000 0.29920  0.31940  0.70650  Biso   1.000  C
  C27      1.0000 0.29440  0.19460  0.72000  Biso   1.000  C
  H19      1.0000 0.30240  0.19140  0.73890  Biso   1.000  H
  C28      1.0000 0.27760  0.07300  0.70490  Biso   1.000  C
  C29      1.0000 0.26380  0.08020  0.67700  Biso   1.000  C
  H20      1.0000 0.24340  0.00140  0.66740  Biso   1.000  H
  C30      1.0000 0.27010  0.20040  0.63290  Biso   1.000  C
  C31      1.0000 0.30980  0.44680  0.72220  Biso   1.000  C
  C32      1.0000 0.27420  0.94040  0.71960  Biso   1.000  C
  C33      1.0000 0.71680  0.52420  0.54650  Biso   1.000  C
  C34      1.0000 0.60200  0.58700  0.54030  Biso   1.000  C
  H21      1.0000 0.52240  0.53750  0.53790  Biso   1.000  H
  C35      1.0000 0.60200  0.72800  0.53730  Biso   1.000  C
  H22      1.0000 0.52070  0.77400  0.53530  Biso   1.000  H
  C36      1.0000 0.71970  0.79600  0.53730  Biso   1.000  C
  C37      1.0000 0.83580  0.72920  0.54260  Biso   1.000  C
  H23      1.0000 0.91750  0.77620  0.54370  Biso   1.000  H
  C38      1.0000 0.83300  0.59100  0.54620  Biso   1.000  C
  H24      1.0000 0.91390  0.54360  0.54860  Biso   1.000  H
  C39      1.0000 0.71430  0.36840  0.55350  Biso   1.000  C
  H25      1.0000 0.63190  0.34780  0.56350  Biso   1.000  H
  H26      1.0000 0.71270  0.31670  0.53660  Biso   1.000  H
  C40      1.0000 0.84300  0.35300  0.59730  Biso   1.000  C
  H27      1.0000 0.77830  0.39010  0.60890  Biso   1.000  H
  C41      1.0000 0.96910  0.31200  0.60450  Biso   1.000  C
  H28      1.0000 0.00650  0.31690  0.62200  Biso   1.000  H
  C42      1.0000 0.94260  0.27440  0.56140  Biso   1.000  C
  H29      1.0000 0.96020  0.24760  0.54350  Biso   1.000  H
  C43      1.0000 0.72100  0.95000  0.53370  Biso   1.000  C
  H30      1.0000 0.81320  0.98270  0.53530  Biso   1.000  H
  H31      1.0000 0.68810  0.97240  0.51560  Biso   1.000  H
  C44      1.0000 0.66800  0.02300  0.58090  Biso   1.000  C
  H32      1.0000 0.74700  0.99570  0.58970  Biso   1.000  H
  C45      1.0000 0.55300  0.08000  0.59200  Biso   1.000  C
  H33      1.0000 0.54250  0.09560  0.61070  Biso   1.000  H
  C46      1.0000 0.51420  0.06680  0.54990  Biso   1.000  C
  H34      1.0000 0.47170  0.07120  0.53300  Biso   1.000  H
  N5       1.0000 0.03200  0.26200  0.58160  Biso   1.000  N
  N6       1.0000 0.82730  0.32820  0.56920  Biso   1.000  N
  N7       1.0000 0.45670  0.11020  0.57350  Biso   1.000  N
  N8       1.0000 0.63780  0.01740  0.55370  Biso   1.000  N
  O7       1.0000 0.32010  0.29640  0.61925  Biso   1.000  O
  O8       1.0000 0.22050  0.09740  0.62127  Biso   1.000  O
  O9       1.0000 0.31930  0.55910  0.71025  Biso   1.000  O
  O10      1.0000 0.31020  0.44140  0.74830  Biso   1.000  O
  O11      1.0000 0.21650  0.83950  0.70740  Biso   1.000  O
  O12      1.0000 0.33480  0.92260  0.74050  Biso   1.000  O
  Cd3      1.0000 0.69113  0.25151  0.32767  Biso   1.000  Cd
  C47      1.0000 0.69830  0.22130  0.41290  Biso   1.000  C
  C48      1.0000 0.82270  0.20720  0.42790  Biso   1.000  C
  H35      1.0000 0.90510  0.20230  0.41860  Biso   1.000  H
  C49      1.0000 0.81940  0.20080  0.45650  Biso   1.000  C
  C50      1.0000 0.69460  0.20560  0.47000  Biso   1.000  C
  H36      1.0000 0.69140  0.19760  0.48890  Biso   1.000  H
  C51      1.0000 0.57300  0.22240  0.45490  Biso   1.000  C
  C52      1.0000 0.58020  0.23620  0.42700  Biso   1.000  C
  H37      1.0000 0.50140  0.25660  0.41740  Biso   1.000  H
  C53      1.0000 0.70040  0.22990  0.38290  Biso   1.000  C
  C54      1.0000 0.94680  0.19020  0.47220  Biso   1.000  C
  C55      1.0000 0.44040  0.22580  0.46960  Biso   1.000  C
  C56      1.0000 0.02420  0.78320  0.29650  Biso   1.000  C
  C57      1.0000 0.08700  0.89800  0.29030  Biso   1.000  C
  H38      1.0000 0.03750  0.97760  0.28790  Biso   1.000  H
  C58      1.0000 0.22800  0.89800  0.28730  Biso   1.000  C
  H39      1.0000 0.27400  0.97930  0.28530  Biso   1.000  H
  C59      1.0000 0.29600  0.78030  0.28730  Biso   1.000  C
  C60      1.0000 0.22920  0.66420  0.29260  Biso   1.000  C
  H40      1.0000 0.27620  0.58250  0.29370  Biso   1.000  H
  C61      1.0000 0.09100  0.66700  0.29620  Biso   1.000  C
  H41      1.0000 0.04360  0.58610  0.29860  Biso   1.000  H
  C62      1.0000 0.86840  0.78570  0.30350  Biso   1.000  C
  H42      1.0000 0.84780  0.86810  0.31350  Biso   1.000  H
  H43      1.0000 0.81670  0.78730  0.28660  Biso   1.000  H
  C63      1.0000 0.85300  0.65700  0.34730  Biso   1.000  C
  H44      1.0000 0.89010  0.72170  0.35890  Biso   1.000  H
  C64      1.0000 0.81200  0.53090  0.35450  Biso   1.000  C
  H45      1.0000 0.81690  0.49350  0.37200  Biso   1.000  H
  C65      1.0000 0.77440  0.55740  0.31140  Biso   1.000  C
  H46      1.0000 0.74760  0.53980  0.29350  Biso   1.000  H
  C66      1.0000 0.45000  0.77900  0.28370  Biso   1.000  C
  H47      1.0000 0.48270  0.68680  0.28530  Biso   1.000  H
  H48      1.0000 0.47240  0.81190  0.26560  Biso   1.000  H
  C67      1.0000 0.52300  0.83200  0.33090  Biso   1.000  C
  H49      1.0000 0.49570  0.75300  0.33970  Biso   1.000  H
  C68      1.0000 0.58000  0.94700  0.34200  Biso   1.000  C
  H50      1.0000 0.59560  0.95750  0.36070  Biso   1.000  H
  C69      1.0000 0.56680  0.98580  0.29990  Biso   1.000  C
  H51      1.0000 0.57120  0.02830  0.28300  Biso   1.000  H
  N9       1.0000 0.76200  0.46800  0.33160  Biso   1.000  N
  N10      1.0000 0.82820  0.67270  0.31920  Biso   1.000  N
  N11      1.0000 0.61020  0.04330  0.32350  Biso   1.000  N
  N12      1.0000 0.51740  0.86220  0.30370  Biso   1.000  N
  O13      1.0000 0.79640  0.17990  0.36925  Biso   1.000  O
  O14      1.0000 0.59740  0.27950  0.37127  Biso   1.000  O
  O15      1.0000 0.05910  0.18070  0.46025  Biso   1.000  O
  O16      1.0000 0.94140  0.18980  0.49830  Biso   1.000  O
  O17      1.0000 0.33950  0.28350  0.45740  Biso   1.000  O
  O18      1.0000 0.42260  0.16520  0.49050  Biso   1.000  O
  Cd4      1.0000 0.30887  0.74849  0.82767  Biso   1.000  Cd
  C70      1.0000 0.30170  0.77870  0.91290  Biso   1.000  C
  C71      1.0000 0.17730  0.79280  0.92790  Biso   1.000  C
  H52      1.0000 0.09490  0.79770  0.91860  Biso   1.000  H
  C72      1.0000 0.18060  0.79920  0.95650  Biso   1.000  C
  C73      1.0000 0.30540  0.79440  0.97000  Biso   1.000  C
  H53      1.0000 0.30860  0.80240  0.98890  Biso   1.000  H
  C74      1.0000 0.42700  0.77760  0.95490  Biso   1.000  C
  C75      1.0000 0.41980  0.76380  0.92700  Biso   1.000  C
  H54      1.0000 0.49860  0.74340  0.91740  Biso   1.000  H
  C76      1.0000 0.29960  0.77010  0.88290  Biso   1.000  C
  C77      1.0000 0.05320  0.80980  0.97220  Biso   1.000  C
  C78      1.0000 0.55960  0.77420  0.96960  Biso   1.000  C
  C79      1.0000 0.97580  0.21680  0.79650  Biso   1.000  C
  C80      1.0000 0.91300  0.10200  0.79030  Biso   1.000  C
  H55      1.0000 0.96250  0.02240  0.78790  Biso   1.000  H
  C81      1.0000 0.77200  0.10200  0.78730  Biso   1.000  C
  H56      1.0000 0.72600  0.02070  0.78530  Biso   1.000  H
  C82      1.0000 0.70400  0.21970  0.78730  Biso   1.000  C
  C83      1.0000 0.77080  0.33580  0.79260  Biso   1.000  C
  H57      1.0000 0.72380  0.41750  0.79370  Biso   1.000  H
  C84      1.0000 0.90900  0.33300  0.79620  Biso   1.000  C
  H58      1.0000 0.95640  0.41390  0.79860  Biso   1.000  H
  C85      1.0000 0.13160  0.21430  0.80350  Biso   1.000  C
  H59      1.0000 0.15220  0.13190  0.81350  Biso   1.000  H
  H60      1.0000 0.18330  0.21270  0.78660  Biso   1.000  H
  C86      1.0000 0.14700  0.34300  0.84730  Biso   1.000  C
  H61      1.0000 0.10990  0.27830  0.85890  Biso   1.000  H
  C87      1.0000 0.18800  0.46910  0.85450  Biso   1.000  C
  H62      1.0000 0.18310  0.50650  0.87200  Biso   1.000  H
  C88      1.0000 0.22560  0.44260  0.81140  Biso   1.000  C
  H63      1.0000 0.25240  0.46020  0.79350  Biso   1.000  H
  C89      1.0000 0.55000  0.22100  0.78370  Biso   1.000  C
  H64      1.0000 0.51730  0.31320  0.78530  Biso   1.000  H
  H65      1.0000 0.52760  0.18810  0.76560  Biso   1.000  H
  C90      1.0000 0.47700  0.16800  0.83090  Biso   1.000  C
  H66      1.0000 0.50430  0.24700  0.83970  Biso   1.000  H
  C91      1.0000 0.42000  0.05300  0.84200  Biso   1.000  C
  H67      1.0000 0.40440  0.04250  0.86070  Biso   1.000  H
  C92      1.0000 0.43320  0.01420  0.79990  Biso   1.000  C
  H68      1.0000 0.42880  0.97170  0.78300  Biso   1.000  H
  N13      1.0000 0.23800  0.53200  0.83160  Biso   1.000  N
  N14      1.0000 0.17180  0.32730  0.81920  Biso   1.000  N
  N15      1.0000 0.38980  0.95670  0.82350  Biso   1.000  N
  N16      1.0000 0.48260  0.13780  0.80370  Biso   1.000  N
  O19      1.0000 0.20360  0.82010  0.86925  Biso   1.000  O
  O20      1.0000 0.40260  0.72050  0.87127  Biso   1.000  O
  O21      1.0000 0.94090  0.81930  0.96025  Biso   1.000  O
  O22      1.0000 0.05860  0.81020  0.99830  Biso   1.000  O
  O23      1.0000 0.66050  0.71650  0.95740  Biso   1.000  O
  O24      1.0000 0.57740  0.83480  0.99050  Biso   1.000  O
  Cd5      1.0000 0.74849  0.30887  0.17233  Biso   1.000  Cd
  C93      1.0000 0.77870  0.30170  0.08710  Biso   1.000  C
  C94      1.0000 0.79280  0.17730  0.07210  Biso   1.000  C
  H69      1.0000 0.79770  0.09490  0.08140  Biso   1.000  H
  C95      1.0000 0.79920  0.18060  0.04350  Biso   1.000  C
  C96      1.0000 0.79440  0.30540  0.03000  Biso   1.000  C
  H70      1.0000 0.80240  0.30860  0.01110  Biso   1.000  H
  C97      1.0000 0.77760  0.42700  0.04510  Biso   1.000  C
  C98      1.0000 0.76380  0.41980  0.07300  Biso   1.000  C
  H71      1.0000 0.74340  0.49860  0.08260  Biso   1.000  H
  C99      1.0000 0.77010  0.29960  0.11710  Biso   1.000  C
  C100     1.0000 0.80980  0.05320  0.02780  Biso   1.000  C
  C101     1.0000 0.77420  0.55960  0.03040  Biso   1.000  C
  C102     1.0000 0.21680  0.97580  0.20350  Biso   1.000  C
  C103     1.0000 0.10200  0.91300  0.20970  Biso   1.000  C
  H72      1.0000 0.02240  0.96250  0.21210  Biso   1.000  H
  C104     1.0000 0.10200  0.77200  0.21270  Biso   1.000  C
  H73      1.0000 0.02070  0.72600  0.21470  Biso   1.000  H
  C105     1.0000 0.21970  0.70400  0.21270  Biso   1.000  C
  C106     1.0000 0.33580  0.77080  0.20740  Biso   1.000  C
  H74      1.0000 0.41750  0.72380  0.20630  Biso   1.000  H
  C107     1.0000 0.33300  0.90900  0.20380  Biso   1.000  C
  H75      1.0000 0.41390  0.95640  0.20140  Biso   1.000  H
  C108     1.0000 0.21430  0.13160  0.19650  Biso   1.000  C
  H76      1.0000 0.13190  0.15220  0.18650  Biso   1.000  H
  H77      1.0000 0.21270  0.18330  0.21340  Biso   1.000  H
  C109     1.0000 0.34300  0.14700  0.15270  Biso   1.000  C
  H78      1.0000 0.27830  0.10990  0.14110  Biso   1.000  H
  C110     1.0000 0.46910  0.18800  0.14550  Biso   1.000  C
  H79      1.0000 0.50650  0.18310  0.12800  Biso   1.000  H
  C111     1.0000 0.44260  0.22560  0.18860  Biso   1.000  C
  H80      1.0000 0.46020  0.25240  0.20650  Biso   1.000  H
  C112     1.0000 0.22100  0.55000  0.21630  Biso   1.000  C
  H81      1.0000 0.31320  0.51730  0.21470  Biso   1.000  H
  H82      1.0000 0.18810  0.52760  0.23440  Biso   1.000  H
  C113     1.0000 0.16800  0.47700  0.16910  Biso   1.000  C
  H83      1.0000 0.24700  0.50430  0.16030  Biso   1.000  H
  C114     1.0000 0.05300  0.42000  0.15800  Biso   1.000  C
  H84      1.0000 0.04250  0.40440  0.13930  Biso   1.000  H
  C115     1.0000 0.01420  0.43320  0.20010  Biso   1.000  C
  H85      1.0000 0.97170  0.42880  0.21700  Biso   1.000  H
  N17      1.0000 0.53200  0.23800  0.16840  Biso   1.000  N
  N18      1.0000 0.32730  0.17180  0.18080  Biso   1.000  N
  N19      1.0000 0.95670  0.38980  0.17650  Biso   1.000  N
  N20      1.0000 0.13780  0.48260  0.19630  Biso   1.000  N
  O25      1.0000 0.82010  0.20360  0.13075  Biso   1.000  O
  O26      1.0000 0.72050  0.40260  0.12873  Biso   1.000  O
  O27      1.0000 0.81930  0.94090  0.03975  Biso   1.000  O
  O28      1.0000 0.81020  0.05860  0.00170  Biso   1.000  O
  O29      1.0000 0.71650  0.66050  0.04260  Biso   1.000  O
  O30      1.0000 0.83480  0.57740  0.00950  Biso   1.000  O
  Cd6      1.0000 0.25151  0.69113  0.67233  Biso   1.000  Cd
  C116     1.0000 0.22130  0.69830  0.58710  Biso   1.000  C
  C117     1.0000 0.20720  0.82270  0.57210  Biso   1.000  C
  H86      1.0000 0.20230  0.90510  0.58140  Biso   1.000  H
  C118     1.0000 0.20080  0.81940  0.54350  Biso   1.000  C
  C119     1.0000 0.20560  0.69460  0.53000  Biso   1.000  C
  H87      1.0000 0.19760  0.69140  0.51110  Biso   1.000  H
  C120     1.0000 0.22240  0.57300  0.54510  Biso   1.000  C
  C121     1.0000 0.23620  0.58020  0.57300  Biso   1.000  C
  H88      1.0000 0.25660  0.50140  0.58260  Biso   1.000  H
  C122     1.0000 0.22990  0.70040  0.61710  Biso   1.000  C
  C123     1.0000 0.19020  0.94680  0.52780  Biso   1.000  C
  C124     1.0000 0.22580  0.44040  0.53040  Biso   1.000  C
  C125     1.0000 0.78320  0.02420  0.70350  Biso   1.000  C
  C126     1.0000 0.89800  0.08700  0.70970  Biso   1.000  C
  H89      1.0000 0.97760  0.03750  0.71210  Biso   1.000  H
  C127     1.0000 0.89800  0.22800  0.71270  Biso   1.000  C
  H90      1.0000 0.97930  0.27400  0.71470  Biso   1.000  H
  C128     1.0000 0.78030  0.29600  0.71270  Biso   1.000  C
  C129     1.0000 0.66420  0.22920  0.70740  Biso   1.000  C
  H91      1.0000 0.58250  0.27620  0.70630  Biso   1.000  H
  C130     1.0000 0.66700  0.09100  0.70380  Biso   1.000  C
  H92      1.0000 0.58610  0.04360  0.70140  Biso   1.000  H
  C131     1.0000 0.78570  0.86840  0.69650  Biso   1.000  C
  H93      1.0000 0.86810  0.84780  0.68650  Biso   1.000  H
  H94      1.0000 0.78730  0.81670  0.71340  Biso   1.000  H
  C132     1.0000 0.65700  0.85300  0.65270  Biso   1.000  C
  H95      1.0000 0.72170  0.89010  0.64110  Biso   1.000  H
  C133     1.0000 0.53090  0.81200  0.64550  Biso   1.000  C
  H96      1.0000 0.49350  0.81690  0.62800  Biso   1.000  H
  C134     1.0000 0.55740  0.77440  0.68860  Biso   1.000  C
  H97      1.0000 0.53980  0.74760  0.70650  Biso   1.000  H
  C135     1.0000 0.77900  0.45000  0.71630  Biso   1.000  C
  H98      1.0000 0.68680  0.48270  0.71470  Biso   1.000  H
  H99      1.0000 0.81190  0.47240  0.73440  Biso   1.000  H
  C136     1.0000 0.83200  0.52300  0.66910  Biso   1.000  C
  H100     1.0000 0.75300  0.49570  0.66030  Biso   1.000  H
  C137     1.0000 0.94700  0.58000  0.65800  Biso   1.000  C
  H101     1.0000 0.95750  0.59560  0.63930  Biso   1.000  H
  C138     1.0000 0.98580  0.56680  0.70010  Biso   1.000  C
  H102     1.0000 0.02830  0.57120  0.71700  Biso   1.000  H
  N21      1.0000 0.46800  0.76200  0.66840  Biso   1.000  N
  N22      1.0000 0.67270  0.82820  0.68080  Biso   1.000  N
  N23      1.0000 0.04330  0.61020  0.67650  Biso   1.000  N
  N24      1.0000 0.86220  0.51740  0.69630  Biso   1.000  N
  O31      1.0000 0.17990  0.79640  0.63075  Biso   1.000  O
  O32      1.0000 0.27950  0.59740  0.62873  Biso   1.000  O
  O33      1.0000 0.18070  0.05910  0.53975  Biso   1.000  O
  O34      1.0000 0.18980  0.94140  0.50170  Biso   1.000  O
  O35      1.0000 0.28350  0.33950  0.54260  Biso   1.000  O
  O36      1.0000 0.16520  0.42260  0.50950  Biso   1.000  O
  Cd7      1.0000 0.80887  0.75151  0.92233  Biso   1.000  Cd
  C139     1.0000 0.80170  0.72130  0.83710  Biso   1.000  C
  C140     1.0000 0.67730  0.70720  0.82210  Biso   1.000  C
  H103     1.0000 0.59490  0.70230  0.83140  Biso   1.000  H
  C141     1.0000 0.68060  0.70080  0.79350  Biso   1.000  C
  C142     1.0000 0.80540  0.70560  0.78000  Biso   1.000  C
  H104     1.0000 0.80860  0.69760  0.76110  Biso   1.000  H
  C143     1.0000 0.92700  0.72240  0.79510  Biso   1.000  C
  C144     1.0000 0.91980  0.73620  0.82300  Biso   1.000  C
  H105     1.0000 0.99860  0.75660  0.83260  Biso   1.000  H
  C145     1.0000 0.79960  0.72990  0.86710  Biso   1.000  C
  C146     1.0000 0.55320  0.69020  0.77780  Biso   1.000  C
  C147     1.0000 0.05960  0.72580  0.78040  Biso   1.000  C
  C148     1.0000 0.47580  0.28320  0.95350  Biso   1.000  C
  C149     1.0000 0.41300  0.39800  0.95970  Biso   1.000  C
  H106     1.0000 0.46250  0.47760  0.96210  Biso   1.000  H
  C150     1.0000 0.27200  0.39800  0.96270  Biso   1.000  C
  H107     1.0000 0.22600  0.47930  0.96470  Biso   1.000  H
  C151     1.0000 0.20400  0.28030  0.96270  Biso   1.000  C
  C152     1.0000 0.27080  0.16420  0.95740  Biso   1.000  C
  H108     1.0000 0.22380  0.08250  0.95630  Biso   1.000  H
  C153     1.0000 0.40900  0.16700  0.95380  Biso   1.000  C
  H109     1.0000 0.45640  0.08610  0.95140  Biso   1.000  H
  C154     1.0000 0.63160  0.28570  0.94650  Biso   1.000  C
  H110     1.0000 0.65220  0.36810  0.93650  Biso   1.000  H
  H111     1.0000 0.68330  0.28730  0.96340  Biso   1.000  H
  C155     1.0000 0.64700  0.15700  0.90270  Biso   1.000  C
  H112     1.0000 0.60990  0.22170  0.89110  Biso   1.000  H
  C156     1.0000 0.68800  0.03090  0.89550  Biso   1.000  C
  H113     1.0000 0.68310  0.99350  0.87800  Biso   1.000  H
  C157     1.0000 0.72560  0.05740  0.93860  Biso   1.000  C
  H114     1.0000 0.75240  0.03980  0.95650  Biso   1.000  H
  C158     1.0000 0.05000  0.27900  0.96630  Biso   1.000  C
  H115     1.0000 0.01730  0.18680  0.96470  Biso   1.000  H
  H116     1.0000 0.02760  0.31190  0.98440  Biso   1.000  H
  C159     1.0000 0.97700  0.33200  0.91910  Biso   1.000  C
  H117     1.0000 0.00430  0.25300  0.91030  Biso   1.000  H
  C160     1.0000 0.92000  0.44700  0.90800  Biso   1.000  C
  H118     1.0000 0.90440  0.45750  0.88930  Biso   1.000  H
  C161     1.0000 0.93320  0.48580  0.95010  Biso   1.000  C
  H119     1.0000 0.92880  0.52830  0.96700  Biso   1.000  H
  N25      1.0000 0.73800  0.96800  0.91840  Biso   1.000  N
  N26      1.0000 0.67180  0.17270  0.93080  Biso   1.000  N
  N27      1.0000 0.88980  0.54330  0.92650  Biso   1.000  N
  N28      1.0000 0.98260  0.36220  0.94630  Biso   1.000  N
  O37      1.0000 0.70360  0.67990  0.88075  Biso   1.000  O
  O38      1.0000 0.90260  0.77950  0.87873  Biso   1.000  O
  O39      1.0000 0.44090  0.68070  0.78975  Biso   1.000  O
  O40      1.0000 0.55860  0.68980  0.75170  Biso   1.000  O
  O41      1.0000 0.16050  0.78350  0.79260  Biso   1.000  O
  O42      1.0000 0.07740  0.66520  0.75950  Biso   1.000  O
  Cd8      1.0000 0.19113  0.24849  0.42233  Biso   1.000  Cd
  C162     1.0000 0.19830  0.27870  0.33710  Biso   1.000  C
  C163     1.0000 0.32270  0.29280  0.32210  Biso   1.000  C
  H120     1.0000 0.40510  0.29770  0.33140  Biso   1.000  H
  C164     1.0000 0.31940  0.29920  0.29350  Biso   1.000  C
  C165     1.0000 0.19460  0.29440  0.28000  Biso   1.000  C
  H121     1.0000 0.19140  0.30240  0.26110  Biso   1.000  H
  C166     1.0000 0.07300  0.27760  0.29510  Biso   1.000  C
  C167     1.0000 0.08020  0.26380  0.32300  Biso   1.000  C
  H122     1.0000 0.00140  0.24340  0.33260  Biso   1.000  H
  C168     1.0000 0.20040  0.27010  0.36710  Biso   1.000  C
  C169     1.0000 0.44680  0.30980  0.27780  Biso   1.000  C
  C170     1.0000 0.94040  0.27420  0.28040  Biso   1.000  C
  C171     1.0000 0.52420  0.71680  0.45350  Biso   1.000  C
  C172     1.0000 0.58700  0.60200  0.45970  Biso   1.000  C
  H123     1.0000 0.53750  0.52240  0.46210  Biso   1.000  H
  C173     1.0000 0.72800  0.60200  0.46270  Biso   1.000  C
  H124     1.0000 0.77400  0.52070  0.46470  Biso   1.000  H
  C174     1.0000 0.79600  0.71970  0.46270  Biso   1.000  C
  C175     1.0000 0.72920  0.83580  0.45740  Biso   1.000  C
  H125     1.0000 0.77620  0.91750  0.45630  Biso   1.000  H
  C176     1.0000 0.59100  0.83300  0.45380  Biso   1.000  C
  H126     1.0000 0.54360  0.91390  0.45140  Biso   1.000  H
  C177     1.0000 0.36840  0.71430  0.44650  Biso   1.000  C
  H127     1.0000 0.34780  0.63190  0.43650  Biso   1.000  H
  H128     1.0000 0.31670  0.71270  0.46340  Biso   1.000  H
  C178     1.0000 0.35300  0.84300  0.40270  Biso   1.000  C
  H129     1.0000 0.39010  0.77830  0.39110  Biso   1.000  H
  C179     1.0000 0.31200  0.96910  0.39550  Biso   1.000  C
  H130     1.0000 0.31690  0.00650  0.37800  Biso   1.000  H
  C180     1.0000 0.27440  0.94260  0.43860  Biso   1.000  C
  H131     1.0000 0.24760  0.96020  0.45650  Biso   1.000  H
  C181     1.0000 0.95000  0.72100  0.46630  Biso   1.000  C
  H132     1.0000 0.98270  0.81320  0.46470  Biso   1.000  H
  H133     1.0000 0.97240  0.68810  0.48440  Biso   1.000  H
  C182     1.0000 0.02300  0.66800  0.41910  Biso   1.000  C
  H134     1.0000 0.99570  0.74700  0.41030  Biso   1.000  H
  C183     1.0000 0.08000  0.55300  0.40800  Biso   1.000  C
  H135     1.0000 0.09560  0.54250  0.38930  Biso   1.000  H
  C184     1.0000 0.06680  0.51420  0.45010  Biso   1.000  C
  H136     1.0000 0.07120  0.47170  0.46700  Biso   1.000  H
  N29      1.0000 0.26200  0.03200  0.41840  Biso   1.000  N
  N30      1.0000 0.32820  0.82730  0.43080  Biso   1.000  N
  N31      1.0000 0.11020  0.45670  0.42650  Biso   1.000  N
  N32      1.0000 0.01740  0.63780  0.44630  Biso   1.000  N
  O43      1.0000 0.29640  0.32010  0.38075  Biso   1.000  O
  O44      1.0000 0.09740  0.22050  0.37873  Biso   1.000  O
  O45      1.0000 0.55910  0.31930  0.28975  Biso   1.000  O
  O46      1.0000 0.44140  0.31020  0.25170  Biso   1.000  O
  O47      1.0000 0.83950  0.21650  0.29260  Biso   1.000  O
  O48      1.0000 0.92260  0.33480  0.25950  Biso   1.000  O
  Cd9      1.0000 0.69472  0.30528  0.25000  Biso   1.000  Cd
  Cd10     1.0000 0.30528  0.69472  0.75000  Biso   1.000  Cd
  Cd11     1.0000 0.19472  0.19472  0.50000  Biso   1.000  Cd
  Cd12     1.0000 0.80528  0.80528  0.00000  Biso   1.000  Cd
