data_image0
_cell_length_a       31.517
_cell_length_b       14.882
_cell_length_c       28.494
_cell_angle_alpha    90
_cell_angle_beta     120.19
_cell_angle_gamma    90

_symmetry_space_group_name_H-M    "P 1"
_symmetry_int_tables_number       1

loop_
  _symmetry_equiv_pos_as_xyz
  'x, y, z'

loop_
  _atom_site_label
  _atom_site_occupancy
  _atom_site_fract_x
  _atom_site_fract_y
  _atom_site_fract_z
  _atom_site_thermal_displace_type
  _atom_site_B_iso_or_equiv
  _atom_site_type_symbol
  Gd1      1.0000 0.26752  0.11811  0.48781  Biso   1.000  Gd
  O1       1.0000 0.07431  0.35710  0.35580  Biso   1.000  O
  H1       1.0000 0.08900  0.40270  0.35600  Biso   1.000  H
  O2       1.0000 0.25307  0.97430  0.12819  Biso   1.000  O
  H2       1.0000 0.23430  0.01420  0.10930  Biso   1.000  H
  O3       1.0000 0.22859  0.07040  0.30124  Biso   1.000  O
  H3       1.0000 0.23280  0.11960  0.31600  Biso   1.000  H
  O4       1.0000 0.24117  0.86770  0.05091  Biso   1.000  O
  O5       1.0000 0.20322  0.73980  0.04090  Biso   1.000  O
  O6       1.0000 0.25082  0.07290  0.40110  Biso   1.000  O
  O7       1.0000 0.32533  0.04850  0.46461  Biso   1.000  O
  O8       1.0000 0.20066  0.20870  0.43746  Biso   1.000  O
  O9       1.0000 0.16113  0.33530  0.43457  Biso   1.000  O
  C1       1.0000 0.12767  0.23950  0.35770  Biso   1.000  C
  C2       1.0000 0.13380  0.17240  0.32870  Biso   1.000  C
  H4       1.0000 0.16210  0.13750  0.34600  Biso   1.000  H
  C3       1.0000 0.10000  0.15430  0.27510  Biso   1.000  C
  C4       1.0000 0.05620  0.20640  0.24710  Biso   1.000  C
  C5       1.0000 0.04740  0.27200  0.27550  Biso   1.000  C
  C6       1.0000 0.08192  0.29170  0.32780  Biso   1.000  C
  H5       1.0000 0.99950  0.36430  0.22230  Biso   1.000  H
  C7       1.0000 0.02320  0.18850  0.19030  Biso   1.000  C
  H6       1.0000 0.99340  0.21890  0.17210  Biso   1.000  H
  C8       1.0000 0.03470  0.12940  0.16400  Biso   1.000  C
  H7       1.0000 0.01670  0.12670  0.12630  Biso   1.000  H
  C9       1.0000 0.21110  0.82910  0.11012  Biso   1.000  C
  C10      1.0000 0.18740  0.76840  0.12560  Biso   1.000  C
  H8       1.0000 0.17630  0.71450  0.10680  Biso   1.000  H
  C11      1.0000 0.17958  0.78600  0.16919  Biso   1.000  C
  C12      1.0000 0.19817  0.86650  0.19930  Biso   1.000  C
  C13      1.0000 0.22802  0.91320  0.14105  Biso   1.000  C
  C14      1.0000 0.22447  0.92830  0.18644  Biso   1.000  C
  C15      1.0000 0.24455  0.01710  0.21900  Biso   1.000  C
  H9       1.0000 0.25710  0.05360  0.20040  Biso   1.000  H
  H10      1.0000 0.21710  0.04930  0.21740  Biso   1.000  H
  C16      1.0000 0.18740  0.88150  0.24050  Biso   1.000  C
  H11      1.0000 0.19710  0.93480  0.26020  Biso   1.000  H
  C17      1.0000 0.29512  0.04790  0.41353  Biso   1.000  C
  C18      1.0000 0.27150  0.03480  0.31460  Biso   1.000  C
  C19      1.0000 0.35150  0.99200  0.38600  Biso   1.000  C
  H12      1.0000 0.37300  0.97950  0.42250  Biso   1.000  H
  C20      1.0000 0.30677  0.02850  0.37280  Biso   1.000  C
  C21      1.0000 0.28412  0.01030  0.27764  Biso   1.000  C
  C22      1.0000 0.33103  0.97620  0.29330  Biso   1.000  C
  C23      1.0000 0.36728  0.97210  0.34970  Biso   1.000  C
  C24      1.0000 0.34560  0.95400  0.25510  Biso   1.000  C
  H13      1.0000 0.32290  0.95920  0.21820  Biso   1.000  H
  C25      1.0000 0.39250  0.92500  0.27090  Biso   1.000  C
  H14      1.0000 0.40060  0.90870  0.24490  Biso   1.000  H
  C26      1.0000 0.16200  0.81610  0.25220  Biso   1.000  C
  H15      1.0000 0.15600  0.82690  0.28050  Biso   1.000  H
  C27      1.0000 0.41390  0.94300  0.36230  Biso   1.000  C
  H16      1.0000 0.43720  0.93920  0.39900  Biso   1.000  H
  C28      1.0000 0.21977  0.80870  0.06505  Biso   1.000  C
  C29      1.0000 0.10750  0.09080  0.24280  Biso   1.000  C
  H17      1.0000 0.13850  0.06470  0.25860  Biso   1.000  H
  C30      1.0000 0.07750  0.06600  0.19560  Biso   1.000  C
  H18      1.0000 0.08110  0.01260  0.18100  Biso   1.000  H
  C31      1.0000 0.16539  0.26070  0.41310  Biso   1.000  C
  C32      1.0000 0.14520  0.73540  0.22330  Biso   1.000  C
  H19      1.0000 0.12810  0.69290  0.23130  Biso   1.000  H
  C33      1.0000 0.15520  0.72390  0.18410  Biso   1.000  C
  H20      1.0000 0.14540  0.67030  0.16490  Biso   1.000  H
  C34      1.0000 0.42880  0.92000  0.32770  Biso   1.000  C
  H21      1.0000 0.46090  0.90180  0.33960  Biso   1.000  H
  Gd2      1.0000 0.76751  0.61811  0.48781  Biso   1.000  Gd
  O10      1.0000 0.57431  0.85710  0.35580  Biso   1.000  O
  H22      1.0000 0.58900  0.90270  0.35600  Biso   1.000  H
  O11      1.0000 0.75307  0.47430  0.12819  Biso   1.000  O
  H23      1.0000 0.73430  0.51420  0.10930  Biso   1.000  H
  O12      1.0000 0.72859  0.57040  0.30124  Biso   1.000  O
  H24      1.0000 0.73280  0.61960  0.31600  Biso   1.000  H
  O13      1.0000 0.74117  0.36770  0.05091  Biso   1.000  O
  O14      1.0000 0.70322  0.23980  0.04090  Biso   1.000  O
  O15      1.0000 0.75082  0.57290  0.40110  Biso   1.000  O
  O16      1.0000 0.82533  0.54850  0.46461  Biso   1.000  O
  O17      1.0000 0.70066  0.70870  0.43746  Biso   1.000  O
  O18      1.0000 0.66113  0.83530  0.43457  Biso   1.000  O
  C35      1.0000 0.62767  0.73950  0.35770  Biso   1.000  C
  C36      1.0000 0.63380  0.67240  0.32870  Biso   1.000  C
  H25      1.0000 0.66210  0.63750  0.34600  Biso   1.000  H
  C37      1.0000 0.60000  0.65430  0.27510  Biso   1.000  C
  C38      1.0000 0.55620  0.70640  0.24710  Biso   1.000  C
  C39      1.0000 0.54740  0.77200  0.27550  Biso   1.000  C
  C40      1.0000 0.58192  0.79170  0.32780  Biso   1.000  C
  H26      1.0000 0.49950  0.86430  0.22230  Biso   1.000  H
  C41      1.0000 0.52320  0.68850  0.19030  Biso   1.000  C
  H27      1.0000 0.49340  0.71890  0.17210  Biso   1.000  H
  C42      1.0000 0.53470  0.62940  0.16400  Biso   1.000  C
  H28      1.0000 0.51670  0.62670  0.12630  Biso   1.000  H
  C43      1.0000 0.71110  0.32910  0.11012  Biso   1.000  C
  C44      1.0000 0.68740  0.26840  0.12560  Biso   1.000  C
  H29      1.0000 0.67630  0.21450  0.10680  Biso   1.000  H
  C45      1.0000 0.67958  0.28600  0.16919  Biso   1.000  C
  C46      1.0000 0.69817  0.36650  0.19930  Biso   1.000  C
  C47      1.0000 0.72802  0.41320  0.14105  Biso   1.000  C
  C48      1.0000 0.72447  0.42830  0.18644  Biso   1.000  C
  C49      1.0000 0.74455  0.51710  0.21900  Biso   1.000  C
  H30      1.0000 0.75710  0.55360  0.20040  Biso   1.000  H
  H31      1.0000 0.71710  0.54930  0.21740  Biso   1.000  H
  C50      1.0000 0.68740  0.38150  0.24050  Biso   1.000  C
  H32      1.0000 0.69710  0.43480  0.26020  Biso   1.000  H
  C51      1.0000 0.79512  0.54790  0.41353  Biso   1.000  C
  C52      1.0000 0.77150  0.53480  0.31460  Biso   1.000  C
  C53      1.0000 0.85150  0.49200  0.38600  Biso   1.000  C
  H33      1.0000 0.87300  0.47950  0.42250  Biso   1.000  H
  C54      1.0000 0.80677  0.52850  0.37280  Biso   1.000  C
  C55      1.0000 0.78412  0.51030  0.27764  Biso   1.000  C
  C56      1.0000 0.83103  0.47620  0.29330  Biso   1.000  C
  C57      1.0000 0.86728  0.47210  0.34970  Biso   1.000  C
  C58      1.0000 0.84560  0.45400  0.25510  Biso   1.000  C
  H34      1.0000 0.82290  0.45920  0.21820  Biso   1.000  H
  C59      1.0000 0.89250  0.42500  0.27090  Biso   1.000  C
  H35      1.0000 0.90060  0.40870  0.24490  Biso   1.000  H
  C60      1.0000 0.66200  0.31610  0.25220  Biso   1.000  C
  H36      1.0000 0.65600  0.32690  0.28050  Biso   1.000  H
  C61      1.0000 0.91390  0.44300  0.36230  Biso   1.000  C
  H37      1.0000 0.93720  0.43920  0.39900  Biso   1.000  H
  C62      1.0000 0.71977  0.30870  0.06505  Biso   1.000  C
  C63      1.0000 0.60750  0.59080  0.24280  Biso   1.000  C
  H38      1.0000 0.63850  0.56470  0.25860  Biso   1.000  H
  C64      1.0000 0.57750  0.56600  0.19560  Biso   1.000  C
  H39      1.0000 0.58110  0.51260  0.18100  Biso   1.000  H
  C65      1.0000 0.66539  0.76070  0.41310  Biso   1.000  C
  C66      1.0000 0.64520  0.23540  0.22330  Biso   1.000  C
  H40      1.0000 0.62810  0.19290  0.23130  Biso   1.000  H
  C67      1.0000 0.65520  0.22390  0.18410  Biso   1.000  C
  H41      1.0000 0.64540  0.17030  0.16490  Biso   1.000  H
  C68      1.0000 0.92880  0.42000  0.32770  Biso   1.000  C
  H42      1.0000 0.96090  0.40180  0.33960  Biso   1.000  H
  Gd3      1.0000 0.73248  0.11811  0.01219  Biso   1.000  Gd
  O19      1.0000 0.92569  0.35710  0.14420  Biso   1.000  O
  H43      1.0000 0.91100  0.40270  0.14400  Biso   1.000  H
  O20      1.0000 0.74693  0.97430  0.37181  Biso   1.000  O
  H44      1.0000 0.76570  0.01420  0.39070  Biso   1.000  H
  O21      1.0000 0.77141  0.07040  0.19876  Biso   1.000  O
  H45      1.0000 0.76720  0.11960  0.18400  Biso   1.000  H
  O22      1.0000 0.75883  0.86770  0.44909  Biso   1.000  O
  O23      1.0000 0.79678  0.73980  0.45910  Biso   1.000  O
  O24      1.0000 0.74918  0.07290  0.09890  Biso   1.000  O
  O25      1.0000 0.67467  0.04850  0.03539  Biso   1.000  O
  O26      1.0000 0.79934  0.20870  0.06254  Biso   1.000  O
  O27      1.0000 0.83887  0.33530  0.06543  Biso   1.000  O
  C69      1.0000 0.87233  0.23950  0.14230  Biso   1.000  C
  C70      1.0000 0.86620  0.17240  0.17130  Biso   1.000  C
  H46      1.0000 0.83790  0.13750  0.15400  Biso   1.000  H
  C71      1.0000 0.90000  0.15430  0.22490  Biso   1.000  C
  C72      1.0000 0.94380  0.20640  0.25290  Biso   1.000  C
  C73      1.0000 0.95260  0.27200  0.22450  Biso   1.000  C
  C74      1.0000 0.91808  0.29170  0.17220  Biso   1.000  C
  H47      1.0000 0.00050  0.36430  0.27770  Biso   1.000  H
  C75      1.0000 0.97680  0.18850  0.30970  Biso   1.000  C
  H48      1.0000 0.00660  0.21890  0.32790  Biso   1.000  H
  C76      1.0000 0.96530  0.12940  0.33600  Biso   1.000  C
  H49      1.0000 0.98330  0.12670  0.37370  Biso   1.000  H
  C77      1.0000 0.78890  0.82910  0.38988  Biso   1.000  C
  C78      1.0000 0.81260  0.76840  0.37440  Biso   1.000  C
  H50      1.0000 0.82370  0.71450  0.39320  Biso   1.000  H
  C79      1.0000 0.82042  0.78600  0.33081  Biso   1.000  C
  C80      1.0000 0.80183  0.86650  0.30070  Biso   1.000  C
  C81      1.0000 0.77198  0.91320  0.35895  Biso   1.000  C
  C82      1.0000 0.77553  0.92830  0.31356  Biso   1.000  C
  C83      1.0000 0.75545  0.01710  0.28100  Biso   1.000  C
  H51      1.0000 0.74290  0.05360  0.29960  Biso   1.000  H
  H52      1.0000 0.78290  0.04930  0.28260  Biso   1.000  H
  C84      1.0000 0.81260  0.88150  0.25950  Biso   1.000  C
  H53      1.0000 0.80290  0.93480  0.23980  Biso   1.000  H
  C85      1.0000 0.70488  0.04790  0.08647  Biso   1.000  C
  C86      1.0000 0.72850  0.03480  0.18540  Biso   1.000  C
  C87      1.0000 0.64850  0.99200  0.11400  Biso   1.000  C
  H54      1.0000 0.62700  0.97950  0.07750  Biso   1.000  H
  C88      1.0000 0.69323  0.02850  0.12720  Biso   1.000  C
  C89      1.0000 0.71588  0.01030  0.22236  Biso   1.000  C
  C90      1.0000 0.66897  0.97620  0.20670  Biso   1.000  C
  C91      1.0000 0.63272  0.97210  0.15030  Biso   1.000  C
  C92      1.0000 0.65440  0.95400  0.24490  Biso   1.000  C
  H55      1.0000 0.67710  0.95920  0.28180  Biso   1.000  H
  C93      1.0000 0.60750  0.92500  0.22910  Biso   1.000  C
  H56      1.0000 0.59940  0.90870  0.25510  Biso   1.000  H
  C94      1.0000 0.83800  0.81610  0.24780  Biso   1.000  C
  H57      1.0000 0.84400  0.82690  0.21950  Biso   1.000  H
  C95      1.0000 0.58610  0.94300  0.13770  Biso   1.000  C
  H58      1.0000 0.56280  0.93920  0.10100  Biso   1.000  H
  C96      1.0000 0.78023  0.80870  0.43495  Biso   1.000  C
  C97      1.0000 0.89250  0.09080  0.25720  Biso   1.000  C
  H59      1.0000 0.86150  0.06470  0.24140  Biso   1.000  H
  C98      1.0000 0.92250  0.06600  0.30440  Biso   1.000  C
  H60      1.0000 0.91890  0.01260  0.31900  Biso   1.000  H
  C99      1.0000 0.83461  0.26070  0.08690  Biso   1.000  C
  C100     1.0000 0.85480  0.73540  0.27670  Biso   1.000  C
  H61      1.0000 0.87190  0.69290  0.26870  Biso   1.000  H
  C101     1.0000 0.84480  0.72390  0.31590  Biso   1.000  C
  H62      1.0000 0.85460  0.67030  0.33510  Biso   1.000  H
  C102     1.0000 0.57120  0.92000  0.17230  Biso   1.000  C
  H63      1.0000 0.53910  0.90180  0.16040  Biso   1.000  H
  Gd4      1.0000 0.23248  0.61811  0.01219  Biso   1.000  Gd
  O28      1.0000 0.42569  0.85710  0.14420  Biso   1.000  O
  H64      1.0000 0.41100  0.90270  0.14400  Biso   1.000  H
  O29      1.0000 0.24693  0.47430  0.37181  Biso   1.000  O
  H65      1.0000 0.26570  0.51420  0.39070  Biso   1.000  H
  O30      1.0000 0.27141  0.57040  0.19876  Biso   1.000  O
  H66      1.0000 0.26720  0.61960  0.18400  Biso   1.000  H
  O31      1.0000 0.25883  0.36770  0.44909  Biso   1.000  O
  O32      1.0000 0.29678  0.23980  0.45910  Biso   1.000  O
  O33      1.0000 0.24918  0.57290  0.09890  Biso   1.000  O
  O34      1.0000 0.17467  0.54850  0.03539  Biso   1.000  O
  O35      1.0000 0.29934  0.70870  0.06254  Biso   1.000  O
  O36      1.0000 0.33887  0.83530  0.06543  Biso   1.000  O
  C103     1.0000 0.37233  0.73950  0.14230  Biso   1.000  C
  C104     1.0000 0.36620  0.67240  0.17130  Biso   1.000  C
  H67      1.0000 0.33790  0.63750  0.15400  Biso   1.000  H
  C105     1.0000 0.40000  0.65430  0.22490  Biso   1.000  C
  C106     1.0000 0.44380  0.70640  0.25290  Biso   1.000  C
  C107     1.0000 0.45260  0.77200  0.22450  Biso   1.000  C
  C108     1.0000 0.41808  0.79170  0.17220  Biso   1.000  C
  H68      1.0000 0.50050  0.86430  0.27770  Biso   1.000  H
  C109     1.0000 0.47680  0.68850  0.30970  Biso   1.000  C
  H69      1.0000 0.50660  0.71890  0.32790  Biso   1.000  H
  C110     1.0000 0.46530  0.62940  0.33600  Biso   1.000  C
  H70      1.0000 0.48330  0.62670  0.37370  Biso   1.000  H
  C111     1.0000 0.28890  0.32910  0.38988  Biso   1.000  C
  C112     1.0000 0.31260  0.26840  0.37440  Biso   1.000  C
  H71      1.0000 0.32370  0.21450  0.39320  Biso   1.000  H
  C113     1.0000 0.32042  0.28600  0.33081  Biso   1.000  C
  C114     1.0000 0.30183  0.36650  0.30070  Biso   1.000  C
  C115     1.0000 0.27198  0.41320  0.35895  Biso   1.000  C
  C116     1.0000 0.27553  0.42830  0.31356  Biso   1.000  C
  C117     1.0000 0.25545  0.51710  0.28100  Biso   1.000  C
  H72      1.0000 0.24290  0.55360  0.29960  Biso   1.000  H
  H73      1.0000 0.28290  0.54930  0.28260  Biso   1.000  H
  C118     1.0000 0.31260  0.38150  0.25950  Biso   1.000  C
  H74      1.0000 0.30290  0.43480  0.23980  Biso   1.000  H
  C119     1.0000 0.20488  0.54790  0.08647  Biso   1.000  C
  C120     1.0000 0.22850  0.53480  0.18540  Biso   1.000  C
  C121     1.0000 0.14850  0.49200  0.11400  Biso   1.000  C
  H75      1.0000 0.12700  0.47950  0.07750  Biso   1.000  H
  C122     1.0000 0.19323  0.52850  0.12720  Biso   1.000  C
  C123     1.0000 0.21588  0.51030  0.22236  Biso   1.000  C
  C124     1.0000 0.16897  0.47620  0.20670  Biso   1.000  C
  C125     1.0000 0.13272  0.47210  0.15030  Biso   1.000  C
  C126     1.0000 0.15440  0.45400  0.24490  Biso   1.000  C
  H76      1.0000 0.17710  0.45920  0.28180  Biso   1.000  H
  C127     1.0000 0.10750  0.42500  0.22910  Biso   1.000  C
  H77      1.0000 0.09940  0.40870  0.25510  Biso   1.000  H
  C128     1.0000 0.33800  0.31610  0.24780  Biso   1.000  C
  H78      1.0000 0.34400  0.32690  0.21950  Biso   1.000  H
  C129     1.0000 0.08610  0.44300  0.13770  Biso   1.000  C
  H79      1.0000 0.06280  0.43920  0.10100  Biso   1.000  H
  C130     1.0000 0.28023  0.30870  0.43495  Biso   1.000  C
  C131     1.0000 0.39250  0.59080  0.25720  Biso   1.000  C
  H80      1.0000 0.36150  0.56470  0.24140  Biso   1.000  H
  C132     1.0000 0.42250  0.56600  0.30440  Biso   1.000  C
  H81      1.0000 0.41890  0.51260  0.31900  Biso   1.000  H
  C133     1.0000 0.33461  0.76070  0.08690  Biso   1.000  C
  C134     1.0000 0.35480  0.23540  0.27670  Biso   1.000  C
  H82      1.0000 0.37190  0.19290  0.26870  Biso   1.000  H
  C135     1.0000 0.34480  0.22390  0.31590  Biso   1.000  C
  H83      1.0000 0.35460  0.17030  0.33510  Biso   1.000  H
  C136     1.0000 0.07120  0.42000  0.17230  Biso   1.000  C
  H84      1.0000 0.03910  0.40180  0.16040  Biso   1.000  H
  Gd5      1.0000 0.73248  0.88189  0.51219  Biso   1.000  Gd
  O37      1.0000 0.92569  0.64290  0.64420  Biso   1.000  O
  H85      1.0000 0.91100  0.59730  0.64400  Biso   1.000  H
  O38      1.0000 0.74693  0.02570  0.87181  Biso   1.000  O
  H86      1.0000 0.76570  0.98580  0.89070  Biso   1.000  H
  O39      1.0000 0.77141  0.92960  0.69876  Biso   1.000  O
  H87      1.0000 0.76720  0.88040  0.68400  Biso   1.000  H
  O40      1.0000 0.75883  0.13230  0.94909  Biso   1.000  O
  O41      1.0000 0.79678  0.26020  0.95910  Biso   1.000  O
  O42      1.0000 0.74918  0.92710  0.59890  Biso   1.000  O
  O43      1.0000 0.67467  0.95150  0.53539  Biso   1.000  O
  O44      1.0000 0.79934  0.79130  0.56254  Biso   1.000  O
  O45      1.0000 0.83887  0.66470  0.56543  Biso   1.000  O
  C137     1.0000 0.87233  0.76050  0.64230  Biso   1.000  C
  C138     1.0000 0.86620  0.82760  0.67130  Biso   1.000  C
  H88      1.0000 0.83790  0.86250  0.65400  Biso   1.000  H
  C139     1.0000 0.90000  0.84570  0.72490  Biso   1.000  C
  C140     1.0000 0.94380  0.79360  0.75290  Biso   1.000  C
  C141     1.0000 0.95260  0.72800  0.72450  Biso   1.000  C
  C142     1.0000 0.91808  0.70830  0.67220  Biso   1.000  C
  H89      1.0000 0.00050  0.63570  0.77770  Biso   1.000  H
  C143     1.0000 0.97680  0.81150  0.80970  Biso   1.000  C
  H90      1.0000 0.00660  0.78110  0.82790  Biso   1.000  H
  C144     1.0000 0.96530  0.87060  0.83600  Biso   1.000  C
  H91      1.0000 0.98330  0.87330  0.87370  Biso   1.000  H
  C145     1.0000 0.78890  0.17090  0.88988  Biso   1.000  C
  C146     1.0000 0.81260  0.23160  0.87440  Biso   1.000  C
  H92      1.0000 0.82370  0.28550  0.89320  Biso   1.000  H
  C147     1.0000 0.82042  0.21400  0.83081  Biso   1.000  C
  C148     1.0000 0.80183  0.13350  0.80070  Biso   1.000  C
  C149     1.0000 0.77198  0.08680  0.85895  Biso   1.000  C
  C150     1.0000 0.77553  0.07170  0.81356  Biso   1.000  C
  C151     1.0000 0.75545  0.98290  0.78100  Biso   1.000  C
  H93      1.0000 0.74290  0.94640  0.79960  Biso   1.000  H
  H94      1.0000 0.78290  0.95070  0.78260  Biso   1.000  H
  C152     1.0000 0.81260  0.11850  0.75950  Biso   1.000  C
  H95      1.0000 0.80290  0.06520  0.73980  Biso   1.000  H
  C153     1.0000 0.70488  0.95210  0.58647  Biso   1.000  C
  C154     1.0000 0.72850  0.96520  0.68540  Biso   1.000  C
  C155     1.0000 0.64850  0.00800  0.61400  Biso   1.000  C
  H96      1.0000 0.62700  0.02050  0.57750  Biso   1.000  H
  C156     1.0000 0.69323  0.97150  0.62720  Biso   1.000  C
  C157     1.0000 0.71588  0.98970  0.72236  Biso   1.000  C
  C158     1.0000 0.66897  0.02380  0.70670  Biso   1.000  C
  C159     1.0000 0.63272  0.02790  0.65030  Biso   1.000  C
  C160     1.0000 0.65440  0.04600  0.74490  Biso   1.000  C
  H97      1.0000 0.67710  0.04080  0.78180  Biso   1.000  H
  C161     1.0000 0.60750  0.07500  0.72910  Biso   1.000  C
  H98      1.0000 0.59940  0.09130  0.75510  Biso   1.000  H
  C162     1.0000 0.83800  0.18390  0.74780  Biso   1.000  C
  H99      1.0000 0.84400  0.17310  0.71950  Biso   1.000  H
  C163     1.0000 0.58610  0.05700  0.63770  Biso   1.000  C
  H100     1.0000 0.56280  0.06080  0.60100  Biso   1.000  H
  C164     1.0000 0.78023  0.19130  0.93495  Biso   1.000  C
  C165     1.0000 0.89250  0.90920  0.75720  Biso   1.000  C
  H101     1.0000 0.86150  0.93530  0.74140  Biso   1.000  H
  C166     1.0000 0.92250  0.93400  0.80440  Biso   1.000  C
  H102     1.0000 0.91890  0.98740  0.81900  Biso   1.000  H
  C167     1.0000 0.83461  0.73930  0.58690  Biso   1.000  C
  C168     1.0000 0.85480  0.26460  0.77670  Biso   1.000  C
  H103     1.0000 0.87190  0.30710  0.76870  Biso   1.000  H
  C169     1.0000 0.84480  0.27610  0.81590  Biso   1.000  C
  H104     1.0000 0.85460  0.32970  0.83510  Biso   1.000  H
  C170     1.0000 0.57120  0.08000  0.67230  Biso   1.000  C
  H105     1.0000 0.53910  0.09820  0.66040  Biso   1.000  H
  Gd6      1.0000 0.23248  0.38189  0.51219  Biso   1.000  Gd
  O46      1.0000 0.42569  0.14290  0.64420  Biso   1.000  O
  H106     1.0000 0.41100  0.09730  0.64400  Biso   1.000  H
  O47      1.0000 0.24693  0.52570  0.87181  Biso   1.000  O
  H107     1.0000 0.26570  0.48580  0.89070  Biso   1.000  H
  O48      1.0000 0.27141  0.42960  0.69876  Biso   1.000  O
  H108     1.0000 0.26720  0.38040  0.68400  Biso   1.000  H
  O49      1.0000 0.25883  0.63230  0.94909  Biso   1.000  O
  O50      1.0000 0.29678  0.76020  0.95910  Biso   1.000  O
  O51      1.0000 0.24918  0.42710  0.59890  Biso   1.000  O
  O52      1.0000 0.17467  0.45150  0.53539  Biso   1.000  O
  O53      1.0000 0.29934  0.29130  0.56254  Biso   1.000  O
  O54      1.0000 0.33887  0.16470  0.56543  Biso   1.000  O
  C171     1.0000 0.37233  0.26050  0.64230  Biso   1.000  C
  C172     1.0000 0.36620  0.32760  0.67130  Biso   1.000  C
  H109     1.0000 0.33790  0.36250  0.65400  Biso   1.000  H
  C173     1.0000 0.40000  0.34570  0.72490  Biso   1.000  C
  C174     1.0000 0.44380  0.29360  0.75290  Biso   1.000  C
  C175     1.0000 0.45260  0.22800  0.72450  Biso   1.000  C
  C176     1.0000 0.41808  0.20830  0.67220  Biso   1.000  C
  H110     1.0000 0.50050  0.13570  0.77770  Biso   1.000  H
  C177     1.0000 0.47680  0.31150  0.80970  Biso   1.000  C
  H111     1.0000 0.50660  0.28110  0.82790  Biso   1.000  H
  C178     1.0000 0.46530  0.37060  0.83600  Biso   1.000  C
  H112     1.0000 0.48330  0.37330  0.87370  Biso   1.000  H
  C179     1.0000 0.28890  0.67090  0.88988  Biso   1.000  C
  C180     1.0000 0.31260  0.73160  0.87440  Biso   1.000  C
  H113     1.0000 0.32370  0.78550  0.89320  Biso   1.000  H
  C181     1.0000 0.32042  0.71400  0.83081  Biso   1.000  C
  C182     1.0000 0.30183  0.63350  0.80070  Biso   1.000  C
  C183     1.0000 0.27198  0.58680  0.85895  Biso   1.000  C
  C184     1.0000 0.27553  0.57170  0.81356  Biso   1.000  C
  C185     1.0000 0.25545  0.48290  0.78100  Biso   1.000  C
  H114     1.0000 0.24290  0.44640  0.79960  Biso   1.000  H
  H115     1.0000 0.28290  0.45070  0.78260  Biso   1.000  H
  C186     1.0000 0.31260  0.61850  0.75950  Biso   1.000  C
  H116     1.0000 0.30290  0.56520  0.73980  Biso   1.000  H
  C187     1.0000 0.20488  0.45210  0.58647  Biso   1.000  C
  C188     1.0000 0.22850  0.46520  0.68540  Biso   1.000  C
  C189     1.0000 0.14850  0.50800  0.61400  Biso   1.000  C
  H117     1.0000 0.12700  0.52050  0.57750  Biso   1.000  H
  C190     1.0000 0.19323  0.47150  0.62720  Biso   1.000  C
  C191     1.0000 0.21588  0.48970  0.72236  Biso   1.000  C
  C192     1.0000 0.16897  0.52380  0.70670  Biso   1.000  C
  C193     1.0000 0.13272  0.52790  0.65030  Biso   1.000  C
  C194     1.0000 0.15440  0.54600  0.74490  Biso   1.000  C
  H118     1.0000 0.17710  0.54080  0.78180  Biso   1.000  H
  C195     1.0000 0.10750  0.57500  0.72910  Biso   1.000  C
  H119     1.0000 0.09940  0.59130  0.75510  Biso   1.000  H
  C196     1.0000 0.33800  0.68390  0.74780  Biso   1.000  C
  H120     1.0000 0.34400  0.67310  0.71950  Biso   1.000  H
  C197     1.0000 0.08610  0.55700  0.63770  Biso   1.000  C
  H121     1.0000 0.06280  0.56080  0.60100  Biso   1.000  H
  C198     1.0000 0.28023  0.69130  0.93495  Biso   1.000  C
  C199     1.0000 0.39250  0.40920  0.75720  Biso   1.000  C
  H122     1.0000 0.36150  0.43530  0.74140  Biso   1.000  H
  C200     1.0000 0.42250  0.43400  0.80440  Biso   1.000  C
  H123     1.0000 0.41890  0.48740  0.81900  Biso   1.000  H
  C201     1.0000 0.33461  0.23930  0.58690  Biso   1.000  C
  C202     1.0000 0.35480  0.76460  0.77670  Biso   1.000  C
  H124     1.0000 0.37190  0.80710  0.76870  Biso   1.000  H
  C203     1.0000 0.34480  0.77610  0.81590  Biso   1.000  C
  H125     1.0000 0.35460  0.82970  0.83510  Biso   1.000  H
  C204     1.0000 0.07120  0.58000  0.67230  Biso   1.000  C
  H126     1.0000 0.03910  0.59820  0.66040  Biso   1.000  H
  Gd7      1.0000 0.26752  0.88189  0.98781  Biso   1.000  Gd
  O55      1.0000 0.07431  0.64290  0.85580  Biso   1.000  O
  H127     1.0000 0.08900  0.59730  0.85600  Biso   1.000  H
  O56      1.0000 0.25307  0.02570  0.62819  Biso   1.000  O
  H128     1.0000 0.23430  0.98580  0.60930  Biso   1.000  H
  O57      1.0000 0.22859  0.92960  0.80124  Biso   1.000  O
  H129     1.0000 0.23280  0.88040  0.81600  Biso   1.000  H
  O58      1.0000 0.24117  0.13230  0.55091  Biso   1.000  O
  O59      1.0000 0.20322  0.26020  0.54090  Biso   1.000  O
  O60      1.0000 0.25082  0.92710  0.90110  Biso   1.000  O
  O61      1.0000 0.32533  0.95150  0.96461  Biso   1.000  O
  O62      1.0000 0.20066  0.79130  0.93746  Biso   1.000  O
  O63      1.0000 0.16113  0.66470  0.93457  Biso   1.000  O
  C205     1.0000 0.12767  0.76050  0.85770  Biso   1.000  C
  C206     1.0000 0.13380  0.82760  0.82870  Biso   1.000  C
  H130     1.0000 0.16210  0.86250  0.84600  Biso   1.000  H
  C207     1.0000 0.10000  0.84570  0.77510  Biso   1.000  C
  C208     1.0000 0.05620  0.79360  0.74710  Biso   1.000  C
  C209     1.0000 0.04740  0.72800  0.77550  Biso   1.000  C
  C210     1.0000 0.08192  0.70830  0.82780  Biso   1.000  C
  H131     1.0000 0.99950  0.63570  0.72230  Biso   1.000  H
  C211     1.0000 0.02320  0.81150  0.69030  Biso   1.000  C
  H132     1.0000 0.99340  0.78110  0.67210  Biso   1.000  H
  C212     1.0000 0.03470  0.87060  0.66400  Biso   1.000  C
  H133     1.0000 0.01670  0.87330  0.62630  Biso   1.000  H
  C213     1.0000 0.21110  0.17090  0.61012  Biso   1.000  C
  C214     1.0000 0.18740  0.23160  0.62560  Biso   1.000  C
  H134     1.0000 0.17630  0.28550  0.60680  Biso   1.000  H
  C215     1.0000 0.17958  0.21400  0.66919  Biso   1.000  C
  C216     1.0000 0.19817  0.13350  0.69930  Biso   1.000  C
  C217     1.0000 0.22802  0.08680  0.64105  Biso   1.000  C
  C218     1.0000 0.22447  0.07170  0.68644  Biso   1.000  C
  C219     1.0000 0.24455  0.98290  0.71900  Biso   1.000  C
  H135     1.0000 0.25710  0.94640  0.70040  Biso   1.000  H
  H136     1.0000 0.21710  0.95070  0.71740  Biso   1.000  H
  C220     1.0000 0.18740  0.11850  0.74050  Biso   1.000  C
  H137     1.0000 0.19710  0.06520  0.76020  Biso   1.000  H
  C221     1.0000 0.29512  0.95210  0.91353  Biso   1.000  C
  C222     1.0000 0.27150  0.96520  0.81460  Biso   1.000  C
  C223     1.0000 0.35150  0.00800  0.88600  Biso   1.000  C
  H138     1.0000 0.37300  0.02050  0.92250  Biso   1.000  H
  C224     1.0000 0.30677  0.97150  0.87280  Biso   1.000  C
  C225     1.0000 0.28412  0.98970  0.77764  Biso   1.000  C
  C226     1.0000 0.33103  0.02380  0.79330  Biso   1.000  C
  C227     1.0000 0.36728  0.02790  0.84970  Biso   1.000  C
  C228     1.0000 0.34560  0.04600  0.75510  Biso   1.000  C
  H139     1.0000 0.32290  0.04080  0.71820  Biso   1.000  H
  C229     1.0000 0.39250  0.07500  0.77090  Biso   1.000  C
  H140     1.0000 0.40060  0.09130  0.74490  Biso   1.000  H
  C230     1.0000 0.16200  0.18390  0.75220  Biso   1.000  C
  H141     1.0000 0.15600  0.17310  0.78050  Biso   1.000  H
  C231     1.0000 0.41390  0.05700  0.86230  Biso   1.000  C
  H142     1.0000 0.43720  0.06080  0.89900  Biso   1.000  H
  C232     1.0000 0.21977  0.19130  0.56505  Biso   1.000  C
  C233     1.0000 0.10750  0.90920  0.74280  Biso   1.000  C
  H143     1.0000 0.13850  0.93530  0.75860  Biso   1.000  H
  C234     1.0000 0.07750  0.93400  0.69560  Biso   1.000  C
  H144     1.0000 0.08110  0.98740  0.68100  Biso   1.000  H
  C235     1.0000 0.16539  0.73930  0.91310  Biso   1.000  C
  C236     1.0000 0.14520  0.26460  0.72330  Biso   1.000  C
  H145     1.0000 0.12810  0.30710  0.73130  Biso   1.000  H
  C237     1.0000 0.15520  0.27610  0.68410  Biso   1.000  C
  H146     1.0000 0.14540  0.32970  0.66490  Biso   1.000  H
  C238     1.0000 0.42880  0.08000  0.82770  Biso   1.000  C
  H147     1.0000 0.46090  0.09820  0.83960  Biso   1.000  H
  Gd8      1.0000 0.76751  0.38189  0.98781  Biso   1.000  Gd
  O64      1.0000 0.57431  0.14290  0.85580  Biso   1.000  O
  H148     1.0000 0.58900  0.09730  0.85600  Biso   1.000  H
  O65      1.0000 0.75307  0.52570  0.62819  Biso   1.000  O
  H149     1.0000 0.73430  0.48580  0.60930  Biso   1.000  H
  O66      1.0000 0.72859  0.42960  0.80124  Biso   1.000  O
  H150     1.0000 0.73280  0.38040  0.81600  Biso   1.000  H
  O67      1.0000 0.74117  0.63230  0.55091  Biso   1.000  O
  O68      1.0000 0.70322  0.76020  0.54090  Biso   1.000  O
  O69      1.0000 0.75082  0.42710  0.90110  Biso   1.000  O
  O70      1.0000 0.82533  0.45150  0.96461  Biso   1.000  O
  O71      1.0000 0.70066  0.29130  0.93746  Biso   1.000  O
  O72      1.0000 0.66113  0.16470  0.93457  Biso   1.000  O
  C239     1.0000 0.62767  0.26050  0.85770  Biso   1.000  C
  C240     1.0000 0.63380  0.32760  0.82870  Biso   1.000  C
  H151     1.0000 0.66210  0.36250  0.84600  Biso   1.000  H
  C241     1.0000 0.60000  0.34570  0.77510  Biso   1.000  C
  C242     1.0000 0.55620  0.29360  0.74710  Biso   1.000  C
  C243     1.0000 0.54740  0.22800  0.77550  Biso   1.000  C
  C244     1.0000 0.58192  0.20830  0.82780  Biso   1.000  C
  H152     1.0000 0.49950  0.13570  0.72230  Biso   1.000  H
  C245     1.0000 0.52320  0.31150  0.69030  Biso   1.000  C
  H153     1.0000 0.49340  0.28110  0.67210  Biso   1.000  H
  C246     1.0000 0.53470  0.37060  0.66400  Biso   1.000  C
  H154     1.0000 0.51670  0.37330  0.62630  Biso   1.000  H
  C247     1.0000 0.71110  0.67090  0.61012  Biso   1.000  C
  C248     1.0000 0.68740  0.73160  0.62560  Biso   1.000  C
  H155     1.0000 0.67630  0.78550  0.60680  Biso   1.000  H
  C249     1.0000 0.67958  0.71400  0.66919  Biso   1.000  C
  C250     1.0000 0.69817  0.63350  0.69930  Biso   1.000  C
  C251     1.0000 0.72802  0.58680  0.64105  Biso   1.000  C
  C252     1.0000 0.72447  0.57170  0.68644  Biso   1.000  C
  C253     1.0000 0.74455  0.48290  0.71900  Biso   1.000  C
  H156     1.0000 0.75710  0.44640  0.70040  Biso   1.000  H
  H157     1.0000 0.71710  0.45070  0.71740  Biso   1.000  H
  C254     1.0000 0.68740  0.61850  0.74050  Biso   1.000  C
  H158     1.0000 0.69710  0.56520  0.76020  Biso   1.000  H
  C255     1.0000 0.79512  0.45210  0.91353  Biso   1.000  C
  C256     1.0000 0.77150  0.46520  0.81460  Biso   1.000  C
  C257     1.0000 0.85150  0.50800  0.88600  Biso   1.000  C
  H159     1.0000 0.87300  0.52050  0.92250  Biso   1.000  H
  C258     1.0000 0.80677  0.47150  0.87280  Biso   1.000  C
  C259     1.0000 0.78412  0.48970  0.77764  Biso   1.000  C
  C260     1.0000 0.83103  0.52380  0.79330  Biso   1.000  C
  C261     1.0000 0.86728  0.52790  0.84970  Biso   1.000  C
  C262     1.0000 0.84560  0.54600  0.75510  Biso   1.000  C
  H160     1.0000 0.82290  0.54080  0.71820  Biso   1.000  H
  C263     1.0000 0.89250  0.57500  0.77090  Biso   1.000  C
  H161     1.0000 0.90060  0.59130  0.74490  Biso   1.000  H
  C264     1.0000 0.66200  0.68390  0.75220  Biso   1.000  C
  H162     1.0000 0.65600  0.67310  0.78050  Biso   1.000  H
  C265     1.0000 0.91390  0.55700  0.86230  Biso   1.000  C
  H163     1.0000 0.93720  0.56080  0.89900  Biso   1.000  H
  C266     1.0000 0.71977  0.69130  0.56505  Biso   1.000  C
  C267     1.0000 0.60750  0.40920  0.74280  Biso   1.000  C
  H164     1.0000 0.63850  0.43530  0.75860  Biso   1.000  H
  C268     1.0000 0.57750  0.43400  0.69560  Biso   1.000  C
  H165     1.0000 0.58110  0.48740  0.68100  Biso   1.000  H
  C269     1.0000 0.66539  0.23930  0.91310  Biso   1.000  C
  C270     1.0000 0.64520  0.76460  0.72330  Biso   1.000  C
  H166     1.0000 0.62810  0.80710  0.73130  Biso   1.000  H
  C271     1.0000 0.65520  0.77610  0.68410  Biso   1.000  C
  H167     1.0000 0.64540  0.82970  0.66490  Biso   1.000  H
  C272     1.0000 0.92880  0.58000  0.82770  Biso   1.000  C
  H168     1.0000 0.96090  0.59820  0.83960  Biso   1.000  H
  C273     1.0000 0.00000  0.32560  0.25000  Biso   1.000  C
  C274     1.0000 0.50000  0.82560  0.25000  Biso   1.000  C
  C275     1.0000 0.00000  0.67440  0.75000  Biso   1.000  C
  C276     1.0000 0.50000  0.17440  0.75000  Biso   1.000  C
