data_image0
_cell_length_a       15.437
_cell_length_b       15.985
_cell_length_c       16.475
_cell_angle_alpha    90
_cell_angle_beta     90.145
_cell_angle_gamma    90

_symmetry_space_group_name_H-M    "P 1"
_symmetry_int_tables_number       1

loop_
  _symmetry_equiv_pos_as_xyz
  'x, y, z'

loop_
  _atom_site_label
  _atom_site_occupancy
  _atom_site_fract_x
  _atom_site_fract_y
  _atom_site_fract_z
  _atom_site_thermal_displace_type
  _atom_site_B_iso_or_equiv
  _atom_site_type_symbol
  C1       1.0000 0.45550  0.76620  0.84860  Biso   1.000  C
  H1       1.0000 0.44030  0.71860  0.81610  Biso   1.000  H
  H2       1.0000 0.51740  0.77040  0.85240  Biso   1.000  H
  H3       1.0000 0.43270  0.81600  0.82390  Biso   1.000  H
  C2       1.0000 0.41770  0.75630  0.93260  Biso   1.000  C
  C3       1.0000 0.44190  0.81040  0.99610  Biso   1.000  C
  C4       1.0000 0.50150  0.88160  0.97940  Biso   1.000  C
  H4       1.0000 0.49040  0.92490  0.01940  Biso   1.000  H
  H5       1.0000 0.48660  0.90460  0.92670  Biso   1.000  H
  C5       1.0000 0.59770  0.86310  0.98000  Biso   1.000  C
  C6       1.0000 0.44290  0.84950  0.14180  Biso   1.000  C
  H6       1.0000 0.49980  0.87010  0.12980  Biso   1.000  H
  H7       1.0000 0.44470  0.81710  0.19090  Biso   1.000  H
  H8       1.0000 0.40400  0.89580  0.14870  Biso   1.000  H
  C7       1.0000 0.41180  0.79560  0.07330  Biso   1.000  C
  C8       1.0000 0.35490  0.73010  0.08950  Biso   1.000  C
  C9       1.0000 0.32930  0.67510  0.02550  Biso   1.000  C
  C10      1.0000 0.36160  0.68980  0.94840  Biso   1.000  C
  C11      1.0000 0.27390  0.60000  0.04350  Biso   1.000  C
  H9       1.0000 0.28010  0.55960  0.00080  Biso   1.000  H
  H10      1.0000 0.21440  0.61680  0.04730  Biso   1.000  H
  H11      1.0000 0.29190  0.57550  0.09410  Biso   1.000  H
  C12      1.0000 0.33820  0.63190  0.87860  Biso   1.000  C
  H12      1.0000 0.28570  0.60170  0.89240  Biso   1.000  H
  H13      1.0000 0.32610  0.66540  0.83080  Biso   1.000  H
  C13      1.0000 0.40890  0.56950  0.85880  Biso   1.000  C
  C14      1.0000 0.37900  0.65290  0.22270  Biso   1.000  C
  C15      1.0000 0.32230  0.71340  0.17540  Biso   1.000  C
  H14      1.0000 0.31960  0.76610  0.20470  Biso   1.000  H
  H15      1.0000 0.26400  0.69100  0.17240  Biso   1.000  H
  O1       1.0000 0.62240  0.79180  0.00200  Biso   1.000  O
  O2       1.0000 0.64610  0.92150  0.96020  Biso   1.000  O
  O3       1.0000 0.45840  0.54410  0.90970  Biso   1.000  O
  O4       1.0000 0.40880  0.54660  0.78370  Biso   1.000  O
  O5       1.0000 0.43150  0.60870  0.18250  Biso   1.000  O
  O6       1.0000 0.79750  0.87570  0.00910  Biso   1.000  O
  O7       1.0000 0.36970  0.64890  0.29720  Biso   1.000  O
  K1       1.0000 0.53422  0.62756  0.04738  Biso   1.000  K
  C16      1.0000 0.95550  0.26620  0.84860  Biso   1.000  C
  H16      1.0000 0.94030  0.21860  0.81610  Biso   1.000  H
  H17      1.0000 0.01740  0.27040  0.85240  Biso   1.000  H
  H18      1.0000 0.93270  0.31600  0.82390  Biso   1.000  H
  C17      1.0000 0.91770  0.25630  0.93260  Biso   1.000  C
  C18      1.0000 0.94190  0.31040  0.99610  Biso   1.000  C
  C19      1.0000 0.00150  0.38160  0.97940  Biso   1.000  C
  H19      1.0000 0.99040  0.42490  0.01940  Biso   1.000  H
  H20      1.0000 0.98660  0.40460  0.92670  Biso   1.000  H
  C20      1.0000 0.09770  0.36310  0.98000  Biso   1.000  C
  C21      1.0000 0.94290  0.34950  0.14180  Biso   1.000  C
  H21      1.0000 0.99980  0.37010  0.12980  Biso   1.000  H
  H22      1.0000 0.94470  0.31710  0.19090  Biso   1.000  H
  H23      1.0000 0.90400  0.39580  0.14870  Biso   1.000  H
  C22      1.0000 0.91180  0.29560  0.07330  Biso   1.000  C
  C23      1.0000 0.85490  0.23010  0.08950  Biso   1.000  C
  C24      1.0000 0.82930  0.17510  0.02550  Biso   1.000  C
  C25      1.0000 0.86160  0.18980  0.94840  Biso   1.000  C
  C26      1.0000 0.77390  0.10000  0.04350  Biso   1.000  C
  H24      1.0000 0.78010  0.05960  0.00080  Biso   1.000  H
  H25      1.0000 0.71440  0.11680  0.04730  Biso   1.000  H
  H26      1.0000 0.79190  0.07550  0.09410  Biso   1.000  H
  C27      1.0000 0.83820  0.13190  0.87860  Biso   1.000  C
  H27      1.0000 0.78570  0.10170  0.89240  Biso   1.000  H
  H28      1.0000 0.82610  0.16540  0.83080  Biso   1.000  H
  C28      1.0000 0.90890  0.06950  0.85880  Biso   1.000  C
  C29      1.0000 0.87900  0.15290  0.22270  Biso   1.000  C
  C30      1.0000 0.82230  0.21340  0.17540  Biso   1.000  C
  H29      1.0000 0.81960  0.26610  0.20470  Biso   1.000  H
  H30      1.0000 0.76400  0.19100  0.17240  Biso   1.000  H
  O8       1.0000 0.12240  0.29180  0.00200  Biso   1.000  O
  O9       1.0000 0.14610  0.42150  0.96020  Biso   1.000  O
  O10      1.0000 0.95840  0.04410  0.90970  Biso   1.000  O
  O11      1.0000 0.90880  0.04660  0.78370  Biso   1.000  O
  O12      1.0000 0.93150  0.10870  0.18250  Biso   1.000  O
  O13      1.0000 0.29750  0.37570  0.00910  Biso   1.000  O
  O14      1.0000 0.86970  0.14890  0.29720  Biso   1.000  O
  K2       1.0000 0.03422  0.12756  0.04738  Biso   1.000  K
  C31      1.0000 0.54450  0.76620  0.65140  Biso   1.000  C
  H31      1.0000 0.55970  0.71860  0.68390  Biso   1.000  H
  H32      1.0000 0.48260  0.77040  0.64760  Biso   1.000  H
  H33      1.0000 0.56730  0.81600  0.67610  Biso   1.000  H
  C32      1.0000 0.58230  0.75630  0.56740  Biso   1.000  C
  C33      1.0000 0.55810  0.81040  0.50390  Biso   1.000  C
  C34      1.0000 0.49850  0.88160  0.52060  Biso   1.000  C
  H34      1.0000 0.50960  0.92490  0.48060  Biso   1.000  H
  H35      1.0000 0.51340  0.90460  0.57330  Biso   1.000  H
  C35      1.0000 0.40230  0.86310  0.52000  Biso   1.000  C
  C36      1.0000 0.55710  0.84950  0.35820  Biso   1.000  C
  H36      1.0000 0.50020  0.87010  0.37020  Biso   1.000  H
  H37      1.0000 0.55530  0.81710  0.30910  Biso   1.000  H
  H38      1.0000 0.59600  0.89580  0.35130  Biso   1.000  H
  C37      1.0000 0.58820  0.79560  0.42670  Biso   1.000  C
  C38      1.0000 0.64510  0.73010  0.41050  Biso   1.000  C
  C39      1.0000 0.67070  0.67510  0.47450  Biso   1.000  C
  C40      1.0000 0.63840  0.68980  0.55160  Biso   1.000  C
  C41      1.0000 0.72610  0.60000  0.45650  Biso   1.000  C
  H39      1.0000 0.71990  0.55960  0.49920  Biso   1.000  H
  H40      1.0000 0.78560  0.61680  0.45270  Biso   1.000  H
  H41      1.0000 0.70810  0.57550  0.40590  Biso   1.000  H
  C42      1.0000 0.66180  0.63190  0.62140  Biso   1.000  C
  H42      1.0000 0.71430  0.60170  0.60760  Biso   1.000  H
  H43      1.0000 0.67390  0.66540  0.66920  Biso   1.000  H
  C43      1.0000 0.59110  0.56950  0.64120  Biso   1.000  C
  C44      1.0000 0.62100  0.65290  0.27730  Biso   1.000  C
  C45      1.0000 0.67770  0.71340  0.32460  Biso   1.000  C
  H44      1.0000 0.68040  0.76610  0.29530  Biso   1.000  H
  H45      1.0000 0.73600  0.69100  0.32760  Biso   1.000  H
  O15      1.0000 0.37760  0.79180  0.49800  Biso   1.000  O
  O16      1.0000 0.35390  0.92150  0.53980  Biso   1.000  O
  O17      1.0000 0.54160  0.54410  0.59030  Biso   1.000  O
  O18      1.0000 0.59120  0.54660  0.71630  Biso   1.000  O
  O19      1.0000 0.56850  0.60870  0.31750  Biso   1.000  O
  O20      1.0000 0.20250  0.87570  0.49090  Biso   1.000  O
  O21      1.0000 0.63030  0.64890  0.20280  Biso   1.000  O
  K3       1.0000 0.46578  0.62756  0.45262  Biso   1.000  K
  C46      1.0000 0.04450  0.26620  0.65140  Biso   1.000  C
  H46      1.0000 0.05970  0.21860  0.68390  Biso   1.000  H
  H47      1.0000 0.98260  0.27040  0.64760  Biso   1.000  H
  H48      1.0000 0.06730  0.31600  0.67610  Biso   1.000  H
  C47      1.0000 0.08230  0.25630  0.56740  Biso   1.000  C
  C48      1.0000 0.05810  0.31040  0.50390  Biso   1.000  C
  C49      1.0000 0.99850  0.38160  0.52060  Biso   1.000  C
  H49      1.0000 0.00960  0.42490  0.48060  Biso   1.000  H
  H50      1.0000 0.01340  0.40460  0.57330  Biso   1.000  H
  C50      1.0000 0.90230  0.36310  0.52000  Biso   1.000  C
  C51      1.0000 0.05710  0.34950  0.35820  Biso   1.000  C
  H51      1.0000 0.00020  0.37010  0.37020  Biso   1.000  H
  H52      1.0000 0.05530  0.31710  0.30910  Biso   1.000  H
  H53      1.0000 0.09600  0.39580  0.35130  Biso   1.000  H
  C52      1.0000 0.08820  0.29560  0.42670  Biso   1.000  C
  C53      1.0000 0.14510  0.23010  0.41050  Biso   1.000  C
  C54      1.0000 0.17070  0.17510  0.47450  Biso   1.000  C
  C55      1.0000 0.13840  0.18980  0.55160  Biso   1.000  C
  C56      1.0000 0.22610  0.10000  0.45650  Biso   1.000  C
  H54      1.0000 0.21990  0.05960  0.49920  Biso   1.000  H
  H55      1.0000 0.28560  0.11680  0.45270  Biso   1.000  H
  H56      1.0000 0.20810  0.07550  0.40590  Biso   1.000  H
  C57      1.0000 0.16180  0.13190  0.62140  Biso   1.000  C
  H57      1.0000 0.21430  0.10170  0.60760  Biso   1.000  H
  H58      1.0000 0.17390  0.16540  0.66920  Biso   1.000  H
  C58      1.0000 0.09110  0.06950  0.64120  Biso   1.000  C
  C59      1.0000 0.12100  0.15290  0.27730  Biso   1.000  C
  C60      1.0000 0.17770  0.21340  0.32460  Biso   1.000  C
  H59      1.0000 0.18040  0.26610  0.29530  Biso   1.000  H
  H60      1.0000 0.23600  0.19100  0.32760  Biso   1.000  H
  O22      1.0000 0.87760  0.29180  0.49800  Biso   1.000  O
  O23      1.0000 0.85390  0.42150  0.53980  Biso   1.000  O
  O24      1.0000 0.04160  0.04410  0.59030  Biso   1.000  O
  O25      1.0000 0.09120  0.04660  0.71630  Biso   1.000  O
  O26      1.0000 0.06850  0.10870  0.31750  Biso   1.000  O
  O27      1.0000 0.70250  0.37570  0.49090  Biso   1.000  O
  O28      1.0000 0.13030  0.14890  0.20280  Biso   1.000  O
  K4       1.0000 0.96578  0.12756  0.45262  Biso   1.000  K
  C61      1.0000 0.54450  0.23380  0.15140  Biso   1.000  C
  H61      1.0000 0.55970  0.28140  0.18390  Biso   1.000  H
  H62      1.0000 0.48260  0.22960  0.14760  Biso   1.000  H
  H63      1.0000 0.56730  0.18400  0.17610  Biso   1.000  H
  C62      1.0000 0.58230  0.24370  0.06740  Biso   1.000  C
  C63      1.0000 0.55810  0.18960  0.00390  Biso   1.000  C
  C64      1.0000 0.49850  0.11840  0.02060  Biso   1.000  C
  H64      1.0000 0.50960  0.07510  0.98060  Biso   1.000  H
  H65      1.0000 0.51340  0.09540  0.07330  Biso   1.000  H
  C65      1.0000 0.40230  0.13690  0.02000  Biso   1.000  C
  C66      1.0000 0.55710  0.15050  0.85820  Biso   1.000  C
  H66      1.0000 0.50020  0.12990  0.87020  Biso   1.000  H
  H67      1.0000 0.55530  0.18290  0.80910  Biso   1.000  H
  H68      1.0000 0.59600  0.10420  0.85130  Biso   1.000  H
  C67      1.0000 0.58820  0.20440  0.92670  Biso   1.000  C
  C68      1.0000 0.64510  0.26990  0.91050  Biso   1.000  C
  C69      1.0000 0.67070  0.32490  0.97450  Biso   1.000  C
  C70      1.0000 0.63840  0.31020  0.05160  Biso   1.000  C
  C71      1.0000 0.72610  0.40000  0.95650  Biso   1.000  C
  H69      1.0000 0.71990  0.44040  0.99920  Biso   1.000  H
  H70      1.0000 0.78560  0.38320  0.95270  Biso   1.000  H
  H71      1.0000 0.70810  0.42450  0.90590  Biso   1.000  H
  C72      1.0000 0.66180  0.36810  0.12140  Biso   1.000  C
  H72      1.0000 0.71430  0.39830  0.10760  Biso   1.000  H
  H73      1.0000 0.67390  0.33460  0.16920  Biso   1.000  H
  C73      1.0000 0.59110  0.43050  0.14120  Biso   1.000  C
  C74      1.0000 0.62100  0.34710  0.77730  Biso   1.000  C
  C75      1.0000 0.67770  0.28660  0.82460  Biso   1.000  C
  H74      1.0000 0.68040  0.23390  0.79530  Biso   1.000  H
  H75      1.0000 0.73600  0.30900  0.82760  Biso   1.000  H
  O29      1.0000 0.37760  0.20820  0.99800  Biso   1.000  O
  O30      1.0000 0.35390  0.07850  0.03980  Biso   1.000  O
  O31      1.0000 0.54160  0.45590  0.09030  Biso   1.000  O
  O32      1.0000 0.59120  0.45340  0.21630  Biso   1.000  O
  O33      1.0000 0.56850  0.39130  0.81750  Biso   1.000  O
  O34      1.0000 0.20250  0.12430  0.99090  Biso   1.000  O
  O35      1.0000 0.63030  0.35110  0.70280  Biso   1.000  O
  K5       1.0000 0.46578  0.37244  0.95262  Biso   1.000  K
  C76      1.0000 0.04450  0.73380  0.15140  Biso   1.000  C
  H76      1.0000 0.05970  0.78140  0.18390  Biso   1.000  H
  H77      1.0000 0.98260  0.72960  0.14760  Biso   1.000  H
  H78      1.0000 0.06730  0.68400  0.17610  Biso   1.000  H
  C77      1.0000 0.08230  0.74370  0.06740  Biso   1.000  C
  C78      1.0000 0.05810  0.68960  0.00390  Biso   1.000  C
  C79      1.0000 0.99850  0.61840  0.02060  Biso   1.000  C
  H79      1.0000 0.00960  0.57510  0.98060  Biso   1.000  H
  H80      1.0000 0.01340  0.59540  0.07330  Biso   1.000  H
  C80      1.0000 0.90230  0.63690  0.02000  Biso   1.000  C
  C81      1.0000 0.05710  0.65050  0.85820  Biso   1.000  C
  H81      1.0000 0.00020  0.62990  0.87020  Biso   1.000  H
  H82      1.0000 0.05530  0.68290  0.80910  Biso   1.000  H
  H83      1.0000 0.09600  0.60420  0.85130  Biso   1.000  H
  C82      1.0000 0.08820  0.70440  0.92670  Biso   1.000  C
  C83      1.0000 0.14510  0.76990  0.91050  Biso   1.000  C
  C84      1.0000 0.17070  0.82490  0.97450  Biso   1.000  C
  C85      1.0000 0.13840  0.81020  0.05160  Biso   1.000  C
  C86      1.0000 0.22610  0.90000  0.95650  Biso   1.000  C
  H84      1.0000 0.21990  0.94040  0.99920  Biso   1.000  H
  H85      1.0000 0.28560  0.88320  0.95270  Biso   1.000  H
  H86      1.0000 0.20810  0.92450  0.90590  Biso   1.000  H
  C87      1.0000 0.16180  0.86810  0.12140  Biso   1.000  C
  H87      1.0000 0.21430  0.89830  0.10760  Biso   1.000  H
  H88      1.0000 0.17390  0.83460  0.16920  Biso   1.000  H
  C88      1.0000 0.09110  0.93050  0.14120  Biso   1.000  C
  C89      1.0000 0.12100  0.84710  0.77730  Biso   1.000  C
  C90      1.0000 0.17770  0.78660  0.82460  Biso   1.000  C
  H89      1.0000 0.18040  0.73390  0.79530  Biso   1.000  H
  H90      1.0000 0.23600  0.80900  0.82760  Biso   1.000  H
  O36      1.0000 0.87760  0.70820  0.99800  Biso   1.000  O
  O37      1.0000 0.85390  0.57850  0.03980  Biso   1.000  O
  O38      1.0000 0.04160  0.95590  0.09030  Biso   1.000  O
  O39      1.0000 0.09120  0.95340  0.21630  Biso   1.000  O
  O40      1.0000 0.06850  0.89130  0.81750  Biso   1.000  O
  O41      1.0000 0.70250  0.62430  0.99090  Biso   1.000  O
  O42      1.0000 0.13030  0.85110  0.70280  Biso   1.000  O
  K6       1.0000 0.96578  0.87244  0.95262  Biso   1.000  K
  C91      1.0000 0.45550  0.23380  0.34860  Biso   1.000  C
  H91      1.0000 0.44030  0.28140  0.31610  Biso   1.000  H
  H92      1.0000 0.51740  0.22960  0.35240  Biso   1.000  H
  H93      1.0000 0.43270  0.18400  0.32390  Biso   1.000  H
  C92      1.0000 0.41770  0.24370  0.43260  Biso   1.000  C
  C93      1.0000 0.44190  0.18960  0.49610  Biso   1.000  C
  C94      1.0000 0.50150  0.11840  0.47940  Biso   1.000  C
  H94      1.0000 0.49040  0.07510  0.51940  Biso   1.000  H
  H95      1.0000 0.48660  0.09540  0.42670  Biso   1.000  H
  C95      1.0000 0.59770  0.13690  0.48000  Biso   1.000  C
  C96      1.0000 0.44290  0.15050  0.64180  Biso   1.000  C
  H96      1.0000 0.49980  0.12990  0.62980  Biso   1.000  H
  H97      1.0000 0.44470  0.18290  0.69090  Biso   1.000  H
  H98      1.0000 0.40400  0.10420  0.64870  Biso   1.000  H
  C97      1.0000 0.41180  0.20440  0.57330  Biso   1.000  C
  C98      1.0000 0.35490  0.26990  0.58950  Biso   1.000  C
  C99      1.0000 0.32930  0.32490  0.52550  Biso   1.000  C
  C100     1.0000 0.36160  0.31020  0.44840  Biso   1.000  C
  C101     1.0000 0.27390  0.40000  0.54350  Biso   1.000  C
  H99      1.0000 0.28010  0.44040  0.50080  Biso   1.000  H
  H100     1.0000 0.21440  0.38320  0.54730  Biso   1.000  H
  H101     1.0000 0.29190  0.42450  0.59410  Biso   1.000  H
  C102     1.0000 0.33820  0.36810  0.37860  Biso   1.000  C
  H102     1.0000 0.28570  0.39830  0.39240  Biso   1.000  H
  H103     1.0000 0.32610  0.33460  0.33080  Biso   1.000  H
  C103     1.0000 0.40890  0.43050  0.35880  Biso   1.000  C
  C104     1.0000 0.37900  0.34710  0.72270  Biso   1.000  C
  C105     1.0000 0.32230  0.28660  0.67540  Biso   1.000  C
  H104     1.0000 0.31960  0.23390  0.70470  Biso   1.000  H
  H105     1.0000 0.26400  0.30900  0.67240  Biso   1.000  H
  O43      1.0000 0.62240  0.20820  0.50200  Biso   1.000  O
  O44      1.0000 0.64610  0.07850  0.46020  Biso   1.000  O
  O45      1.0000 0.45840  0.45590  0.40970  Biso   1.000  O
  O46      1.0000 0.40880  0.45340  0.28370  Biso   1.000  O
  O47      1.0000 0.43150  0.39130  0.68250  Biso   1.000  O
  O48      1.0000 0.79750  0.12430  0.50910  Biso   1.000  O
  O49      1.0000 0.36970  0.35110  0.79720  Biso   1.000  O
  K7       1.0000 0.53422  0.37244  0.54738  Biso   1.000  K
  C106     1.0000 0.95550  0.73380  0.34860  Biso   1.000  C
  H106     1.0000 0.94030  0.78140  0.31610  Biso   1.000  H
  H107     1.0000 0.01740  0.72960  0.35240  Biso   1.000  H
  H108     1.0000 0.93270  0.68400  0.32390  Biso   1.000  H
  C107     1.0000 0.91770  0.74370  0.43260  Biso   1.000  C
  C108     1.0000 0.94190  0.68960  0.49610  Biso   1.000  C
  C109     1.0000 0.00150  0.61840  0.47940  Biso   1.000  C
  H109     1.0000 0.99040  0.57510  0.51940  Biso   1.000  H
  H110     1.0000 0.98660  0.59540  0.42670  Biso   1.000  H
  C110     1.0000 0.09770  0.63690  0.48000  Biso   1.000  C
  C111     1.0000 0.94290  0.65050  0.64180  Biso   1.000  C
  H111     1.0000 0.99980  0.62990  0.62980  Biso   1.000  H
  H112     1.0000 0.94470  0.68290  0.69090  Biso   1.000  H
  H113     1.0000 0.90400  0.60420  0.64870  Biso   1.000  H
  C112     1.0000 0.91180  0.70440  0.57330  Biso   1.000  C
  C113     1.0000 0.85490  0.76990  0.58950  Biso   1.000  C
  C114     1.0000 0.82930  0.82490  0.52550  Biso   1.000  C
  C115     1.0000 0.86160  0.81020  0.44840  Biso   1.000  C
  C116     1.0000 0.77390  0.90000  0.54350  Biso   1.000  C
  H114     1.0000 0.78010  0.94040  0.50080  Biso   1.000  H
  H115     1.0000 0.71440  0.88320  0.54730  Biso   1.000  H
  H116     1.0000 0.79190  0.92450  0.59410  Biso   1.000  H
  C117     1.0000 0.83820  0.86810  0.37860  Biso   1.000  C
  H117     1.0000 0.78570  0.89830  0.39240  Biso   1.000  H
  H118     1.0000 0.82610  0.83460  0.33080  Biso   1.000  H
  C118     1.0000 0.90890  0.93050  0.35880  Biso   1.000  C
  C119     1.0000 0.87900  0.84710  0.72270  Biso   1.000  C
  C120     1.0000 0.82230  0.78660  0.67540  Biso   1.000  C
  H119     1.0000 0.81960  0.73390  0.70470  Biso   1.000  H
  H120     1.0000 0.76400  0.80900  0.67240  Biso   1.000  H
  O50      1.0000 0.12240  0.70820  0.50200  Biso   1.000  O
  O51      1.0000 0.14610  0.57850  0.46020  Biso   1.000  O
  O52      1.0000 0.95840  0.95590  0.40970  Biso   1.000  O
  O53      1.0000 0.90880  0.95340  0.28370  Biso   1.000  O
  O54      1.0000 0.93150  0.89130  0.68250  Biso   1.000  O
  O55      1.0000 0.29750  0.62430  0.50910  Biso   1.000  O
  O56      1.0000 0.86970  0.85110  0.79720  Biso   1.000  O
  K8       1.0000 0.03422  0.87244  0.54738  Biso   1.000  K
  Zn1      1.0000 0.50000  0.46868  0.75000  Biso   1.000  Zn
  Zn2      1.0000 0.00000  0.96868  0.75000  Biso   1.000  Zn
  Zn3      1.0000 0.50000  0.53132  0.25000  Biso   1.000  Zn
  Zn4      1.0000 0.00000  0.03132  0.25000  Biso   1.000  Zn
  Zn5      1.0000 0.75000  0.75000  0.00000  Biso   1.000  Zn
  Zn6      1.0000 0.25000  0.75000  0.50000  Biso   1.000  Zn
  Zn7      1.0000 0.25000  0.25000  0.00000  Biso   1.000  Zn
  Zn8      1.0000 0.75000  0.25000  0.50000  Biso   1.000  Zn
