data_SOKKOT_ion_b
_audit_creation_date              2014-07-02
_audit_creation_method            'Materials Studio'
_symmetry_space_group_name_H-M    'P1'
_symmetry_Int_Tables_number       1
_symmetry_cell_setting            triclinic
loop_
_symmetry_equiv_pos_as_xyz
  x,y,z
_cell_length_a                    13.5065
_cell_length_b                    13.5065
_cell_length_c                    15.9076
_cell_angle_alpha                 90.0000
_cell_angle_beta                  90.0000
_cell_angle_gamma                 90.0000
loop_
_atom_site_label
_atom_site_type_symbol
_atom_site_fract_x
_atom_site_fract_y
_atom_site_fract_z
_atom_site_U_iso_or_equiv
_atom_site_adp_type
_atom_site_occupancy
S1     S     0.19977   0.26432   0.42451   0.00000  Uiso   1.00
O2     O     0.12432   0.44142   0.52348   0.00000  Uiso   1.00
O3     O     0.01301   0.50120   0.42841   0.00000  Uiso   1.00
O4     O     0.28308   0.11954   0.21921   0.00000  Uiso   1.00
O5     O     0.29951   0.07759   0.34507   0.00000  Uiso   1.00
C6     C     0.20631   0.22711   0.32166   0.00000  Uiso   1.00
C7     C     0.12569   0.36092   0.39380   0.00000  Uiso   1.00
C8     C     0.08871   0.43642   0.45315   0.00000  Uiso   1.00
C9     C     0.26389   0.13985   0.29471   0.00000  Uiso   1.00
C10    C     0.10621   0.36228   0.30856   0.00000  Uiso   1.00
H11    H     0.06069   0.41702   0.27743   0.00000  Uiso   1.00
C12    C     0.15309   0.28628   0.26720   0.00000  Uiso   1.00
H13    H     0.14816   0.27437   0.20005   0.00000  Uiso   1.00
C14    C     0.49795   0.21848   0.50826   0.00000  Uiso   1.00
C15    C     0.40467   0.16478   0.53790   0.00000  Uiso   1.00
S16    S     0.73562   0.72592   0.91912   0.00000  Uiso   1.00
O17    O     0.80937   0.54624   1.01411   0.00000  Uiso   1.00
O18    O     0.92810   0.49511   0.92197   0.00000  Uiso   1.00
O19    O     0.66532   0.88372   0.71784   0.00000  Uiso   1.00
O20    O     0.63937   0.91631   0.84481   0.00000  Uiso   1.00
C21    C     0.73535   0.76961   0.81817   0.00000  Uiso   1.00
C22    C     0.81249   0.63234   0.88736   0.00000  Uiso   1.00
C23    C     0.84853   0.55553   0.94550   0.00000  Uiso   1.00
C24    C     0.67905   0.85813   0.79305   0.00000  Uiso   1.00
C25    C     0.83705   0.63619   0.80316   0.00000  Uiso   1.00
H26    H     0.88516   0.58400   0.77166   0.00000  Uiso   1.00
C27    C     0.79227   0.71447   0.76342   0.00000  Uiso   1.00
H28    H     0.80115   0.73081   0.69731   0.00000  Uiso   1.00
C29    C     0.46266   0.79303   0.03534   0.00000  Uiso   1.00
C30    C     0.56524   0.83553   0.05488   0.00000  Uiso   1.00
S31    S     0.70550   0.22613   0.17128   0.00000  Uiso   1.00
O32    O     0.53126   0.14777   0.27117   0.00000  Uiso   1.00
O33    O     0.47028   0.03757   0.17592   0.00000  Uiso   1.00
O34    O     0.85275   0.30583   0.96603   0.00000  Uiso   1.00
O35    O     0.88903   0.33060   0.09233   0.00000  Uiso   1.00
C36    C     0.74266   0.23273   0.06848   0.00000  Uiso   1.00
C37    C     0.60964   0.15113   0.14074   0.00000  Uiso   1.00
C38    C     0.53512   0.11320   0.20048   0.00000  Uiso   1.00
C39    C     0.82969   0.29069   0.04166   0.00000  Uiso   1.00
C40    C     0.60821   0.13166   0.05549   0.00000  Uiso   1.00
H41    H     0.55383   0.08564   1.02442   0.00000  Uiso   1.00
C42    C     0.68388   0.17902   1.01408   0.00000  Uiso   1.00
H43    H     0.69579   0.17428   0.94697   0.00000  Uiso   1.00
C44    C     0.76758   0.50911   0.27962   0.00000  Uiso   1.00
C45    C     0.80952   0.40747   0.30294   0.00000  Uiso   1.00
S46    S     0.24598   0.76289   0.67543   0.00000  Uiso   1.00
O47    O     0.41626   0.85044   0.77575   0.00000  Uiso   1.00
O48    O     0.47448   0.96005   0.67855   0.00000  Uiso   1.00
O49    O     0.09354   0.69055   0.47105   0.00000  Uiso   1.00
O50    O     0.05725   0.66594   0.59750   0.00000  Uiso   1.00
C51    C     0.20539   0.76080   0.57331   0.00000  Uiso   1.00
C52    C     0.33827   0.84266   0.64516   0.00000  Uiso   1.00
C53    C     0.41176   0.88323   0.70442   0.00000  Uiso   1.00
C54    C     0.11727   0.70459   0.54669   0.00000  Uiso   1.00
C55    C     0.33679   0.86556   0.56054   0.00000  Uiso   1.00
H56    H     0.38845   0.91502   0.52992   0.00000  Uiso   1.00
C57    C     0.26119   0.81815   0.51931   0.00000  Uiso   1.00
H58    H     0.24663   0.82633   0.45279   0.00000  Uiso   1.00
C59    C     0.53606   0.60770   0.72910   0.00000  Uiso   1.00
C60    C     0.57432   0.64006   0.64273   0.00000  Uiso   1.00
S61    S     0.73375   0.27874   0.58718   0.00000  Uiso   1.00
O62    O     0.79587   0.47053   0.50159   0.00000  Uiso   1.00
O63    O     0.93203   0.50334   0.58161   0.00000  Uiso   1.00
O64    O     0.66889   0.11717   0.78741   0.00000  Uiso   1.00
O65    O     0.63838   0.08597   0.66077   0.00000  Uiso   1.00
C66    C     0.73888   0.23014   0.68649   0.00000  Uiso   1.00
C67    C     0.81396   0.36956   0.61899   0.00000  Uiso   1.00
C68    C     0.84552   0.45050   0.56327   0.00000  Uiso   1.00
C69    C     0.68110   0.14275   0.71201   0.00000  Uiso   1.00
C70    C     0.84444   0.36050   0.70145   0.00000  Uiso   1.00
H71    H     0.89526   0.41035   0.73259   0.00000  Uiso   1.00
C72    C     0.80069   0.28113   0.74033   0.00000  Uiso   1.00
H73    H     0.81333   0.26134   0.80534   0.00000  Uiso   1.00
C74    C     0.44233   0.37909   0.45199   0.00000  Uiso   1.00
C75    C     0.52537   0.45115   0.47563   0.00000  Uiso   1.00
S76    S     0.20407   0.73002   0.07898   0.00000  Uiso   1.00
O77    O     0.12464   0.55402  -0.01936   0.00000  Uiso   1.00
O78    O     0.00990   0.49896   0.07495   0.00000  Uiso   1.00
O79    O     0.28105   0.87774   0.28439   0.00000  Uiso   1.00
O80    O     0.30231   0.91808   0.15849   0.00000  Uiso   1.00
C81    C     0.20669   0.76996   0.18125   0.00000  Uiso   1.00
C82    C     0.12551   0.63670   0.10927   0.00000  Uiso   1.00
C83    C     0.08782   0.56119   0.05039   0.00000  Uiso   1.00
C84    C     0.26441   0.85679   0.20858   0.00000  Uiso   1.00
C85    C     0.10228   0.63822   0.19380   0.00000  Uiso   1.00
H86    H     0.05349   0.58598   0.22450   0.00000  Uiso   1.00
C87    C     0.14949   0.71389   0.23512   0.00000  Uiso   1.00
H88    H     0.14175   0.72800   0.30178   0.00000  Uiso   1.00
C89    C     0.49870   0.62402   0.98509   0.00000  Uiso   1.00
C90    C     0.41650   0.56012   1.02323   0.00000  Uiso   1.00
S91    S     0.25563   0.24865   0.83659   0.00000  Uiso   1.00
O92    O     0.43940   0.17529   0.74582   0.00000  Uiso   1.00
O93    O     0.47727   0.04475   0.83088   0.00000  Uiso   1.00
O94    O     0.08960   0.30862   0.03490   0.00000  Uiso   1.00
O95    O     0.05635   0.33375   0.90784   0.00000  Uiso   1.00
C96    C     0.20437   0.23967   0.93483   0.00000  Uiso   1.00
C97    C     0.34340   0.16394   0.86691   0.00000  Uiso   1.00
C98    C     0.42269   0.12965   0.81037   0.00000  Uiso   1.00
C99    C     0.11520   0.29508   0.95969   0.00000  Uiso   1.00
C100   C     0.33241   0.13100   0.94856   0.00000  Uiso   1.00
H101   H     0.37999   0.07713  -0.02139   0.00000  Uiso   1.00
C102   C     0.25340   0.17516  -0.01227   0.00000  Uiso   1.00
H103   H     0.23157   0.15964   0.05184   0.00000  Uiso   1.00
C104   C     0.54195   0.42554   0.72908   0.00000  Uiso   1.00
C105   C     0.56748   0.39716   0.81982   0.00000  Uiso   1.00
S106   S     0.69548   0.75937   0.33764   0.00000  Uiso   1.00
O107   O     0.50522   0.82268   0.24980   0.00000  Uiso   1.00
O108   O     0.46965   0.95807   0.32989   0.00000  Uiso   1.00
O109   O     0.85635   0.69428   0.53852   0.00000  Uiso   1.00
O110   O     0.89038   0.66771   0.41199   0.00000  Uiso   1.00
C111   C     0.74373   0.76515   0.43718   0.00000  Uiso   1.00
C112   C     0.60449   0.84038   0.36843   0.00000  Uiso   1.00
C113   C     0.52387   0.87208   0.31192   0.00000  Uiso   1.00
C114   C     0.83184   0.70819   0.46307   0.00000  Uiso   1.00
C115   C     0.61298   0.87095   0.45096   0.00000  Uiso   1.00
H116   H     0.56294   0.92203   0.48166   0.00000  Uiso   1.00
C117   C     0.69207   0.82711   0.49049   0.00000  Uiso   1.00
H118   H     0.71154   0.84033   0.55549   0.00000  Uiso   1.00
C119   C     0.60537   0.47219   0.21554   0.00000  Uiso   1.00
C120   C     0.53717   0.55596   0.24483   0.00000  Uiso   1.00
In121  In   -0.02627   0.61524   0.50459   0.00000  Uiso   1.00
In122  In   -0.02918   0.38414  -0.00038   0.00000  Uiso   1.00
In123  In    0.35661  -0.00194   0.25234   0.00000  Uiso   1.00
In124  In    0.58844   0.00143   0.75341   0.00000  Uiso   1.00
N125   N     0.48032   0.27924   0.43256   0.00000  Uiso   1.00
N126   N     0.46402   0.72442  -0.03688   0.00000  Uiso   1.00
N127   N     0.70800   0.50622   0.20184   0.00000  Uiso   1.00
N128   N     0.47888   0.51468   0.72467   0.00000  Uiso   1.00
H129   H     0.55493   0.16140   0.49385   0.00000  Uiso   1.00
H130   H     0.52650   0.26399   0.56096   0.00000  Uiso   1.00
H131   H     0.42351   0.11563   0.59115   0.00000  Uiso   1.00
H132   H     0.37406   0.11804   0.48694   0.00000  Uiso   1.00
H133   H     0.34795   0.21859   0.55931   0.00000  Uiso   1.00
H134   H     0.41287   0.85627   0.02042   0.00000  Uiso   1.00
H135   H     0.43250   0.75654   0.09244   0.00000  Uiso   1.00
H136   H     0.59645   0.87272  -0.00125   0.00000  Uiso   1.00
H137   H     0.61648   0.77680   0.07679   0.00000  Uiso   1.00
H138   H     0.55930   0.89176   0.10523   0.00000  Uiso   1.00
H139   H     0.83127   0.56019   0.27015   0.00000  Uiso   1.00
H140   H     0.72384   0.53838   0.33327   0.00000  Uiso   1.00
H141   H     0.86055   0.41492   0.35702   0.00000  Uiso   1.00
H142   H     0.85243   0.37608   0.24983   0.00000  Uiso   1.00
H143   H     0.74937   0.35579   0.32105   0.00000  Uiso   1.00
H144   H     0.48756   0.66758   0.75364   0.00000  Uiso   1.00
H145   H     0.59929   0.60111   0.77340   0.00000  Uiso   1.00
H146   H     0.51147   0.65178   0.59881   0.00000  Uiso   1.00
H147   H     0.62570   0.58409   0.61624   0.00000  Uiso   1.00
H148   H     0.61477   0.71104   0.64876   0.00000  Uiso   1.00
H149   H     0.40414   0.40919   0.39550   0.00000  Uiso   1.00
H150   H     0.38662   0.37663   0.50342   0.00000  Uiso   1.00
H151   H     0.49396   0.52652   0.48385   0.00000  Uiso   1.00
H152   H     0.58209   0.45421   0.42525   0.00000  Uiso   1.00
H153   H     0.56129   0.42879   0.53526   0.00000  Uiso   1.00
H154   H     0.52497   0.58648   0.92706   0.00000  Uiso   1.00
H155   H     0.56260   0.62653   1.02897   0.00000  Uiso   1.00
H156   H     0.35256   0.55521   0.97952   0.00000  Uiso   1.00
H157   H     0.39128   0.59082   1.08423   0.00000  Uiso   1.00
H158   H     0.44503   0.48414   1.03439   0.00000  Uiso   1.00
H159   H     0.50186   0.36223   0.70007   0.00000  Uiso   1.00
H160   H     0.61148   0.43569   0.69272   0.00000  Uiso   1.00
H161   H     0.61519   0.45430   0.84930   0.00000  Uiso   1.00
H162   H     0.60829   0.32588   0.82036   0.00000  Uiso   1.00
H163   H     0.49904   0.38778   0.85768   0.00000  Uiso   1.00
H164   H     0.57535   0.44305   0.15528   0.00000  Uiso   1.00
H165   H     0.60237   0.41044   0.26163   0.00000  Uiso   1.00
H166   H     0.53815   0.61790   0.19892   0.00000  Uiso   1.00
H167   H     0.56000   0.58387   0.30742   0.00000  Uiso   1.00
H168   H     0.46012   0.52787   0.24982   0.00000  Uiso   1.00
H169   H     0.42980   0.24343   0.39304   0.00000  Uiso   1.00
H170   H     0.39262   0.72027  -0.06230   0.00000  Uiso   1.00
H171   H     0.70731   0.57700   0.17497   0.00000  Uiso   1.00
H172   H     0.43809   0.51268   0.66869   0.00000  Uiso   1.00
H173   H     0.74202   0.45937   0.15814   0.00000  Uiso   1.00
H174   H     0.54664   0.28531   0.39885   0.00000  Uiso   1.00
H175   H     0.42729   0.51360   0.77380   0.00000  Uiso   1.00
H176   H     0.50960   0.75320   0.91582   0.00000  Uiso   1.00
loop_
_geom_bond_atom_site_label_1
_geom_bond_atom_site_label_2
_geom_bond_distance
_geom_bond_site_symmetry_2
_ccdc_geom_bond_type
S1     C6      1.714   .     A
S1     C7      1.715   .     A
O2     C8      1.220   .     D
O3     C8      1.402   .     S
O3     In121   2.030   .     S
O4     C9      1.259   .     A
O4     In123   1.989   .     S
O5     C9      1.257   .     A
O5     In123   1.981   .     S
C6     C9      1.476   .     S
C6     C12     1.381   .     A
C7     C8      1.477   .     S
C7     C10     1.381   .     A
C10    H11     1.082   .     S
C10    C12     1.374   .     A
C12    H13     1.082   .     S
C14    C15     1.528   .     S
C14    N125    1.477   .     S
C14    H129    1.113   .     S
C14    H130    1.109   .     S
C15    H131    1.106   .     S
C15    H132    1.108   .     S
C15    H133    1.110   .     S
S16    C21     1.711   .     A
S16    C22     1.712   .     A
O17    C23     1.219   .     D
O18    C23     1.400   .     S
O18    In122   2.026   1_656 A
O19    C24     1.259   .     A
O19    In124   1.981   1_565 A
O20    C24     1.258   .     A
O20    In124   1.977   1_565 D
C21    C24     1.472   .     S
C21    C27     1.380   .     A
C22    C23     1.473   .     S
C22    C25     1.381   .     A
C25    H26     1.082   .     S
C25    C27     1.372   .     A
C27    H28     1.081   .     S
C29    C30     1.532   .     S
C29    N126    1.476   .     S
C29    H134    1.113   .     S
C29    H135    1.111   .     S
C30    H136    1.108   .     S
C30    H137    1.109   .     S
C30    H138    1.107   .     S
S31    C36     1.713   .     A
S31    C37     1.714   .     A
O32    C38     1.219   .     D
O33    C38     1.401   .     S
O33    In123   2.030   .     S
O34    C39     1.259   1_556 S
O34    In122   1.987   1_656 S
O35    C39     1.258   .     A
O35    In122   1.979   1_655 A
C36    C39     1.475   .     S
C36    C42     1.380   1_554 S
C37    C38     1.476   .     S
C37    C40     1.382   .     A
C39    O34     1.259   1_554 S
C40    H41     1.082   1_554 S
C40    C42     1.374   1_554 S
H41    C40     1.082   1_556 S
C42    H43     1.082   .     S
C42    C36     1.380   1_556 S
C42    C40     1.374   1_556 S
C44    C45     1.531   .     S
C44    N127    1.476   .     S
C44    H139    1.113   .     S
C44    H140    1.111   .     S
C45    H141    1.107   .     S
C45    H142    1.109   .     S
C45    H143    1.109   .     S
S46    C51     1.715   .     A
S46    C52     1.717   .     A
O47    C53     1.220   .     D
O48    C53     1.401   .     S
O48    In124   2.025   1_565 S
O49    C54     1.260   .     A
O49    In121   1.984   .     S
O50    C54     1.258   .     A
O50    In121   1.981   .     S
C51    C54     1.474   .     S
C51    C57     1.381   .     A
C52    C53     1.475   .     S
C52    C55     1.381   .     A
C55    H56     1.082   .     S
C55    C57     1.372   .     A
C57    H58     1.082   .     S
C59    C60     1.532   .     S
C59    N128    1.476   .     S
C59    H144    1.112   .     S
C59    H145    1.111   .     S
C60    H146    1.111   .     S
C60    H147    1.109   .     S
C60    H148    1.108   .     S
S61    C66     1.712   .     A
S61    C67     1.713   .     A
O62    C68     1.219   .     D
O63    C68     1.400   .     S
O63    In121   2.025   1_655 A
O64    C69     1.259   .     A
O64    In124   1.979   .     S
O65    C69     1.259   .     A
O65    In124   1.983   .     S
C66    C69     1.472   .     S
C66    C72     1.380   .     A
C67    C68     1.471   .     S
C67    C70     1.380   .     A
C70    H71     1.082   .     S
C70    C72     1.371   .     A
C72    H73     1.082   .     S
C74    C75     1.532   .     S
C74    N125    1.476   .     S
C74    H149    1.113   .     S
C74    H150    1.112   .     S
C75    H151    1.111   .     S
C75    H152    1.109   .     S
C75    H153    1.107   .     S
S76    C81     1.714   .     A
S76    C82     1.717   .     A
O77    C83     1.220   .     D
O78    C83     1.402   .     S
O78    In122   2.030   .     S
O79    C84     1.259   .     A
O79    In123   1.986   1_565 S
O80    C84     1.258   .     A
O80    In123   1.983   1_565 S
C81    C84     1.474   .     S
C81    C87     1.380   .     A
C82    C83     1.475   .     S
C82    C85     1.381   .     A
C85    H86     1.082   .     S
C85    C87     1.372   .     A
C87    H88     1.082   .     S
C89    C90     1.532   .     S
C89    H154    1.111   .     S
C89    H155    1.111   .     S
C89    N126    1.477   1_556 S
C90    H156    1.111   .     S
C90    H157    1.109   .     S
C90    H158    1.110   .     S
S91    C96     1.714   .     A
S91    C97     1.717   .     A
O92    C98     1.219   .     D
O93    C98     1.402   .     S
O93    In124   2.029   .     S
O94    In122   1.982   .     S
O94    C99     1.259   1_554 S
O95    C99     1.259   .     A
O95    In122   1.982   1_556 S
C96    C99     1.472   .     S
C96    C102    1.381   1_556 S
C97    C98     1.473   .     S
C97    C100    1.381   .     A
C99    O94     1.259   1_556 S
C100   H101    1.082   1_556 S
C100   C102    1.372   1_556 A
H101   C100    1.082   1_554 S
C102   H103    1.082   .     S
C102   C96     1.381   1_554 S
C102   C100    1.372   1_554 A
C104   C105    1.533   .     S
C104   N128    1.477   .     S
C104   H159    1.112   .     S
C104   H160    1.111   .     S
C105   H161    1.109   .     S
C105   H162    1.109   .     S
C105   H163    1.111   .     S
S106   C111    1.714   .     A
S106   C112    1.717   .     A
O107   C113    1.219   .     D
O108   C113    1.402   .     S
O108   In123   2.036   1_565 A
O109   C114    1.259   .     A
O109   In121   1.986   1_655 A
O110   C114    1.259   .     A
O110   In121   1.985   1_655 S
C111   C114    1.476   .     S
C111   C117    1.381   .     A
C112   C113    1.475   .     S
C112   C115    1.381   .     A
C115   H116    1.082   .     S
C115   C117    1.374   .     A
C117   H118    1.082   .     S
C119   C120    1.532   .     S
C119   N127    1.477   .     S
C119   H164    1.113   .     S
C119   H165    1.111   .     S
C120   H166    1.111   .     S
C120   H167    1.108   .     S
C120   H168    1.111   .     S
In121  O63     2.025   1_455 A
In121  O109    1.986   1_455 A
In121  O110    1.985   1_455 S
In122  O18     2.026   1_454 A
In122  O34     1.987   1_454 S
In122  O35     1.979   1_455 A
In122  O95     1.982   1_554 S
In123  O79     1.986   1_545 S
In123  O80     1.983   1_545 S
In123  O108    2.036   1_545 A
In124  O19     1.981   1_545 A
In124  O20     1.977   1_545 D
In124  O48     2.025   1_545 S
N125   H169    1.046   .     S
N125   H174    1.047   .     S
N126   H170    1.047   .     S
N126   C89     1.477   1_554 S
N126   H176    1.047   1_554 A
N127   H171    1.047   .     S
N127   H173    1.046   .     S
N128   H172    1.048   .     S
N128   H175    1.047   .     S
H176   N126    1.047   1_556 A
