data_image0
_cell_length_a       13.565
_cell_length_b       13.565
_cell_length_c       15.503
_cell_angle_alpha    90
_cell_angle_beta     90
_cell_angle_gamma    90

_symmetry_space_group_name_H-M    "P 1"
_symmetry_int_tables_number       1

loop_
  _symmetry_equiv_pos_as_xyz
  'x, y, z'

loop_
  _atom_site_label
  _atom_site_occupancy
  _atom_site_fract_x
  _atom_site_fract_y
  _atom_site_fract_z
  _atom_site_thermal_displace_type
  _atom_site_B_iso_or_equiv
  _atom_site_type_symbol
  S1       1.0000 0.22329  0.28493  0.10762  Biso   1.000  S
  O1       1.0000 0.30710  0.10630  0.29000  Biso   1.000  O
  O2       1.0000 0.35200  0.11390  0.15560  Biso   1.000  O
  O3       1.0000 0.02630  0.49780  0.12280  Biso   1.000  O
  O4       1.0000 0.12090  0.45260  0.01530  Biso   1.000  O
  C1       1.0000 0.23040  0.22550  0.20440  Biso   1.000  C
  C2       1.0000 0.16680  0.26350  0.26250  Biso   1.000  C
  H1       1.0000 0.15810  0.23840  0.31780  Biso   1.000  H
  C3       1.0000 0.11470  0.34620  0.22950  Biso   1.000  C
  H2       1.0000 0.07030  0.38340  0.26150  Biso   1.000  H
  C4       1.0000 0.13710  0.36450  0.14660  Biso   1.000  C
  C5       1.0000 0.29840  0.14390  0.21670  Biso   1.000  C
  C6       1.0000 0.09320  0.44300  0.09030  Biso   1.000  C
  S2       1.0000 0.77671  0.71507  0.60762  Biso   1.000  S
  O5       1.0000 0.69290  0.89370  0.79000  Biso   1.000  O
  O6       1.0000 0.64800  0.88610  0.65560  Biso   1.000  O
  O7       1.0000 0.97370  0.50220  0.62280  Biso   1.000  O
  O8       1.0000 0.87910  0.54740  0.51530  Biso   1.000  O
  C7       1.0000 0.76960  0.77450  0.70440  Biso   1.000  C
  C8       1.0000 0.83320  0.73650  0.76250  Biso   1.000  C
  H3       1.0000 0.84190  0.76160  0.81780  Biso   1.000  H
  C9       1.0000 0.88530  0.65380  0.72950  Biso   1.000  C
  H4       1.0000 0.92970  0.61660  0.76150  Biso   1.000  H
  C10      1.0000 0.86290  0.63550  0.64660  Biso   1.000  C
  C11      1.0000 0.70160  0.85610  0.71670  Biso   1.000  C
  C12      1.0000 0.90680  0.55700  0.59030  Biso   1.000  C
  S3       1.0000 0.71507  0.22329  0.35762  Biso   1.000  S
  O9       1.0000 0.89370  0.30710  0.54000  Biso   1.000  O
  O10      1.0000 0.88610  0.35200  0.40560  Biso   1.000  O
  O11      1.0000 0.50220  0.02630  0.37280  Biso   1.000  O
  O12      1.0000 0.54740  0.12090  0.26530  Biso   1.000  O
  C13      1.0000 0.77450  0.23040  0.45440  Biso   1.000  C
  C14      1.0000 0.73650  0.16680  0.51250  Biso   1.000  C
  H5       1.0000 0.76160  0.15810  0.56780  Biso   1.000  H
  C15      1.0000 0.65380  0.11470  0.47950  Biso   1.000  C
  H6       1.0000 0.61660  0.07030  0.51150  Biso   1.000  H
  C16      1.0000 0.63550  0.13710  0.39660  Biso   1.000  C
  C17      1.0000 0.85610  0.29840  0.46670  Biso   1.000  C
  C18      1.0000 0.55700  0.09320  0.34030  Biso   1.000  C
  S4       1.0000 0.28493  0.77671  0.85762  Biso   1.000  S
  O13      1.0000 0.10630  0.69290  0.04000  Biso   1.000  O
  O14      1.0000 0.11390  0.64800  0.90560  Biso   1.000  O
  O15      1.0000 0.49780  0.97370  0.87280  Biso   1.000  O
  O16      1.0000 0.45260  0.87910  0.76530  Biso   1.000  O
  C19      1.0000 0.22550  0.76960  0.95440  Biso   1.000  C
  C20      1.0000 0.26350  0.83320  0.01250  Biso   1.000  C
  H7       1.0000 0.23840  0.84190  0.06780  Biso   1.000  H
  C21      1.0000 0.34620  0.88530  0.97950  Biso   1.000  C
  H8       1.0000 0.38340  0.92970  0.01150  Biso   1.000  H
  C22      1.0000 0.36450  0.86290  0.89660  Biso   1.000  C
  C23      1.0000 0.14390  0.70160  0.96670  Biso   1.000  C
  C24      1.0000 0.44300  0.90680  0.84030  Biso   1.000  C
  S5       1.0000 0.77671  0.28493  0.89238  Biso   1.000  S
  O17      1.0000 0.69290  0.10630  0.71000  Biso   1.000  O
  O18      1.0000 0.64800  0.11390  0.84440  Biso   1.000  O
  O19      1.0000 0.97370  0.49780  0.87720  Biso   1.000  O
  O20      1.0000 0.87910  0.45260  0.98470  Biso   1.000  O
  C25      1.0000 0.76960  0.22550  0.79560  Biso   1.000  C
  C26      1.0000 0.83320  0.26350  0.73750  Biso   1.000  C
  H9       1.0000 0.84190  0.23840  0.68220  Biso   1.000  H
  C27      1.0000 0.88530  0.34620  0.77050  Biso   1.000  C
  H10      1.0000 0.92970  0.38340  0.73850  Biso   1.000  H
  C28      1.0000 0.86290  0.36450  0.85340  Biso   1.000  C
  C29      1.0000 0.70160  0.14390  0.78330  Biso   1.000  C
  C30      1.0000 0.90680  0.44300  0.90970  Biso   1.000  C
  S6       1.0000 0.22329  0.71507  0.39238  Biso   1.000  S
  O21      1.0000 0.30710  0.89370  0.21000  Biso   1.000  O
  O22      1.0000 0.35200  0.88610  0.34440  Biso   1.000  O
  O23      1.0000 0.02630  0.50220  0.37720  Biso   1.000  O
  O24      1.0000 0.12090  0.54740  0.48470  Biso   1.000  O
  C31      1.0000 0.23040  0.77450  0.29560  Biso   1.000  C
  C32      1.0000 0.16680  0.73650  0.23750  Biso   1.000  C
  H11      1.0000 0.15810  0.76160  0.18220  Biso   1.000  H
  C33      1.0000 0.11470  0.65380  0.27050  Biso   1.000  C
  H12      1.0000 0.07030  0.61660  0.23850  Biso   1.000  H
  C34      1.0000 0.13710  0.63550  0.35340  Biso   1.000  C
  C35      1.0000 0.29840  0.85610  0.28330  Biso   1.000  C
  C36      1.0000 0.09320  0.55700  0.40970  Biso   1.000  C
  S7       1.0000 0.28493  0.22329  0.64238  Biso   1.000  S
  O25      1.0000 0.10630  0.30710  0.46000  Biso   1.000  O
  O26      1.0000 0.11390  0.35200  0.59440  Biso   1.000  O
  O27      1.0000 0.49780  0.02630  0.62720  Biso   1.000  O
  O28      1.0000 0.45260  0.12090  0.73470  Biso   1.000  O
  C37      1.0000 0.22550  0.23040  0.54560  Biso   1.000  C
  C38      1.0000 0.26350  0.16680  0.48750  Biso   1.000  C
  H13      1.0000 0.23840  0.15810  0.43220  Biso   1.000  H
  C39      1.0000 0.34620  0.11470  0.52050  Biso   1.000  C
  H14      1.0000 0.38340  0.07030  0.48850  Biso   1.000  H
  C40      1.0000 0.36450  0.13710  0.60340  Biso   1.000  C
  C41      1.0000 0.14390  0.29840  0.53330  Biso   1.000  C
  C42      1.0000 0.44300  0.09320  0.65970  Biso   1.000  C
  S8       1.0000 0.71507  0.77671  0.14238  Biso   1.000  S
  O29      1.0000 0.89370  0.69290  0.96000  Biso   1.000  O
  O30      1.0000 0.88610  0.64800  0.09440  Biso   1.000  O
  O31      1.0000 0.50220  0.97370  0.12720  Biso   1.000  O
  O32      1.0000 0.54740  0.87910  0.23470  Biso   1.000  O
  C43      1.0000 0.77450  0.76960  0.04560  Biso   1.000  C
  C44      1.0000 0.73650  0.83320  0.98750  Biso   1.000  C
  H15      1.0000 0.76160  0.84190  0.93220  Biso   1.000  H
  C45      1.0000 0.65380  0.88530  0.02050  Biso   1.000  C
  H16      1.0000 0.61660  0.92970  0.98850  Biso   1.000  H
  C46      1.0000 0.63550  0.86290  0.10340  Biso   1.000  C
  C47      1.0000 0.85610  0.70160  0.03330  Biso   1.000  C
  C48      1.0000 0.55700  0.90680  0.15970  Biso   1.000  C
  In1      1.0000 0.42366  0.00000  0.25000  Biso   1.000  In
  In2      1.0000 0.57634  0.00000  0.75000  Biso   1.000  In
  In3      1.0000 0.00000  0.42366  0.50000  Biso   1.000  In
  In4      1.0000 0.00000  0.57634  0.00000  Biso   1.000  In
