data_image0
_cell_length_a       9.7799
_cell_length_b       11.3381
_cell_length_c       12.6008
_cell_angle_alpha    90
_cell_angle_beta     90
_cell_angle_gamma    90

_symmetry_space_group_name_H-M    "P 1"
_symmetry_int_tables_number       1

loop_
  _symmetry_equiv_pos_as_xyz
  'x, y, z'

loop_
  _atom_site_label
  _atom_site_occupancy
  _atom_site_fract_x
  _atom_site_fract_y
  _atom_site_fract_z
  _atom_site_thermal_displace_type
  _atom_site_B_iso_or_equiv
  _atom_site_type_symbol
  U1       1.0000 0.92668  0.32386  0.45650  Biso   1.000  U
  S1       1.0000 0.51514  0.50707  0.24219  Biso   1.000  S
  O1       1.0000 0.71030  0.39400  0.38930  Biso   1.000  O
  O2       1.0000 0.55830  0.34910  0.51630  Biso   1.000  O
  O3       1.0000 0.18800  0.66820  0.13870  Biso   1.000  O
  O4       1.0000 0.37940  0.61740  0.05430  Biso   1.000  O
  C1       1.0000 0.59210  0.39720  0.43010  Biso   1.000  C
  C2       1.0000 0.48580  0.46400  0.37030  Biso   1.000  C
  C3       1.0000 0.35870  0.49390  0.40530  Biso   1.000  C
  H1       1.0000 0.32590  0.47700  0.47460  Biso   1.000  H
  C4       1.0000 0.28140  0.55280  0.32700  Biso   1.000  C
  H2       1.0000 0.19030  0.57990  0.33700  Biso   1.000  H
  C5       1.0000 0.35420  0.56630  0.23450  Biso   1.000  C
  C6       1.0000 0.30390  0.62200  0.13520  Biso   1.000  C
  U2       1.0000 0.57332  0.67614  0.95650  Biso   1.000  U
  S2       1.0000 0.98486  0.49293  0.74219  Biso   1.000  S
  O5       1.0000 0.78970  0.60600  0.88930  Biso   1.000  O
  O6       1.0000 0.94170  0.65090  0.01630  Biso   1.000  O
  O7       1.0000 0.31200  0.33180  0.63870  Biso   1.000  O
  O8       1.0000 0.12060  0.38260  0.55430  Biso   1.000  O
  C7       1.0000 0.90790  0.60280  0.93010  Biso   1.000  C
  C8       1.0000 0.01420  0.53600  0.87030  Biso   1.000  C
  C9       1.0000 0.14130  0.50610  0.90530  Biso   1.000  C
  H3       1.0000 0.17410  0.52300  0.97460  Biso   1.000  H
  C10      1.0000 0.21860  0.44720  0.82700  Biso   1.000  C
  H4       1.0000 0.30970  0.42010  0.83700  Biso   1.000  H
  C11      1.0000 0.14580  0.43370  0.73450  Biso   1.000  C
  C12      1.0000 0.19610  0.37800  0.63520  Biso   1.000  C
  U3       1.0000 0.07332  0.82386  0.04350  Biso   1.000  U
  S3       1.0000 0.48486  0.00707  0.25781  Biso   1.000  S
  O9       1.0000 0.28970  0.89400  0.11070  Biso   1.000  O
  O10      1.0000 0.44170  0.84910  0.98370  Biso   1.000  O
  O11      1.0000 0.81200  0.16820  0.36130  Biso   1.000  O
  O12      1.0000 0.62060  0.11740  0.44570  Biso   1.000  O
  C13      1.0000 0.40790  0.89720  0.06990  Biso   1.000  C
  C14      1.0000 0.51420  0.96400  0.12970  Biso   1.000  C
  C15      1.0000 0.64130  0.99390  0.09470  Biso   1.000  C
  H5       1.0000 0.67410  0.97700  0.02540  Biso   1.000  H
  C16      1.0000 0.71860  0.05280  0.17300  Biso   1.000  C
  H6       1.0000 0.80970  0.07990  0.16300  Biso   1.000  H
  C17      1.0000 0.64580  0.06630  0.26550  Biso   1.000  C
  C18      1.0000 0.69610  0.12200  0.36480  Biso   1.000  C
  U4       1.0000 0.42668  0.17614  0.54350  Biso   1.000  U
  S4       1.0000 0.01514  0.99293  0.75781  Biso   1.000  S
  O13      1.0000 0.21030  0.10600  0.61070  Biso   1.000  O
  O14      1.0000 0.05830  0.15090  0.48370  Biso   1.000  O
  O15      1.0000 0.68800  0.83180  0.86130  Biso   1.000  O
  O16      1.0000 0.87940  0.88260  0.94570  Biso   1.000  O
  C19      1.0000 0.09210  0.10280  0.56990  Biso   1.000  C
  C20      1.0000 0.98580  0.03600  0.62970  Biso   1.000  C
  C21      1.0000 0.85870  0.00610  0.59470  Biso   1.000  C
  H7       1.0000 0.82590  0.02300  0.52540  Biso   1.000  H
  C22      1.0000 0.78140  0.94720  0.67300  Biso   1.000  C
  H8       1.0000 0.69030  0.92010  0.66300  Biso   1.000  H
  C23      1.0000 0.85420  0.93370  0.76550  Biso   1.000  C
  C24      1.0000 0.80390  0.87800  0.86480  Biso   1.000  C
