data_image0
_cell_length_a       12.7337
_cell_length_b       12.5615
_cell_length_c       17.8737
_cell_angle_alpha    90
_cell_angle_beta     90
_cell_angle_gamma    90

_symmetry_space_group_name_H-M    "P 1"
_symmetry_int_tables_number       1

loop_
  _symmetry_equiv_pos_as_xyz
  'x, y, z'

loop_
  _atom_site_label
  _atom_site_occupancy
  _atom_site_fract_x
  _atom_site_fract_y
  _atom_site_fract_z
  _atom_site_thermal_displace_type
  _atom_site_B_iso_or_equiv
  _atom_site_type_symbol
  U1       1.0000 0.08222  0.64426  0.38048  Biso   1.000  U
  S1       1.0000 0.27728  0.63238  0.58533  Biso   1.000  S
  O1       1.0000 0.14918  0.52422  0.47124  Biso   1.000  O
  O2       1.0000 0.06322  0.41363  0.54653  Biso   1.000  O
  O3       1.0000 0.43090  0.76945  0.66604  Biso   1.000  O
  O4       1.0000 0.36710  0.73624  0.78057  Biso   1.000  O
  C1       1.0000 0.13140  0.48510  0.53478  Biso   1.000  C
  C2       1.0000 0.19500  0.52450  0.59805  Biso   1.000  C
  C3       1.0000 0.19120  0.49300  0.67132  Biso   1.000  C
  H1       1.0000 0.15140  0.43400  0.68860  Biso   1.000  H
  C4       1.0000 0.25340  0.55810  0.71854  Biso   1.000  C
  H2       1.0000 0.25910  0.54840  0.77110  Biso   1.000  H
  C5       1.0000 0.30420  0.63630  0.67980  Biso   1.000  C
  C6       1.0000 0.37300  0.72030  0.71131  Biso   1.000  C
  U2       1.0000 0.41778  0.85574  0.88048  Biso   1.000  U
  S2       1.0000 0.22272  0.86762  0.08533  Biso   1.000  S
  O5       1.0000 0.35082  0.97578  0.97124  Biso   1.000  O
  O6       1.0000 0.43678  0.08637  0.04653  Biso   1.000  O
  O7       1.0000 0.06910  0.73055  0.16604  Biso   1.000  O
  O8       1.0000 0.13290  0.76376  0.28057  Biso   1.000  O
  C7       1.0000 0.36860  0.01490  0.03478  Biso   1.000  C
  C8       1.0000 0.30500  0.97550  0.09805  Biso   1.000  C
  C9       1.0000 0.30880  0.00700  0.17132  Biso   1.000  C
  H3       1.0000 0.34860  0.06600  0.18860  Biso   1.000  H
  C10      1.0000 0.24660  0.94190  0.21854  Biso   1.000  C
  H4       1.0000 0.24090  0.95160  0.27110  Biso   1.000  H
  C11      1.0000 0.19580  0.86370  0.17980  Biso   1.000  C
  C12      1.0000 0.12700  0.77970  0.21131  Biso   1.000  C
  U3       1.0000 0.91778  0.64426  0.11952  Biso   1.000  U
  S3       1.0000 0.72272  0.63238  0.91467  Biso   1.000  S
  O9       1.0000 0.85082  0.52422  0.02876  Biso   1.000  O
  O10      1.0000 0.93678  0.41363  0.95347  Biso   1.000  O
  O11      1.0000 0.56910  0.76945  0.83396  Biso   1.000  O
  O12      1.0000 0.63290  0.73624  0.71943  Biso   1.000  O
  C13      1.0000 0.86860  0.48510  0.96522  Biso   1.000  C
  C14      1.0000 0.80500  0.52450  0.90195  Biso   1.000  C
  C15      1.0000 0.80880  0.49300  0.82868  Biso   1.000  C
  H5       1.0000 0.84860  0.43400  0.81140  Biso   1.000  H
  C16      1.0000 0.74660  0.55810  0.78146  Biso   1.000  C
  H6       1.0000 0.74090  0.54840  0.72890  Biso   1.000  H
  C17      1.0000 0.69580  0.63630  0.82020  Biso   1.000  C
  C18      1.0000 0.62700  0.72030  0.78869  Biso   1.000  C
  U4       1.0000 0.58222  0.85574  0.61952  Biso   1.000  U
  S4       1.0000 0.77728  0.86762  0.41467  Biso   1.000  S
  O13      1.0000 0.64918  0.97578  0.52876  Biso   1.000  O
  O14      1.0000 0.56322  0.08637  0.45347  Biso   1.000  O
  O15      1.0000 0.93090  0.73055  0.33396  Biso   1.000  O
  O16      1.0000 0.86710  0.76376  0.21943  Biso   1.000  O
  C19      1.0000 0.63140  0.01490  0.46522  Biso   1.000  C
  C20      1.0000 0.69500  0.97550  0.40195  Biso   1.000  C
  C21      1.0000 0.69120  0.00700  0.32868  Biso   1.000  C
  H7       1.0000 0.65140  0.06600  0.31140  Biso   1.000  H
  C22      1.0000 0.75340  0.94190  0.28146  Biso   1.000  C
  H8       1.0000 0.75910  0.95160  0.22890  Biso   1.000  H
  C23      1.0000 0.80420  0.86370  0.32020  Biso   1.000  C
  C24      1.0000 0.87300  0.77970  0.28869  Biso   1.000  C
  U5       1.0000 0.91778  0.35574  0.61952  Biso   1.000  U
  S5       1.0000 0.72272  0.36762  0.41467  Biso   1.000  S
  O17      1.0000 0.85082  0.47578  0.52876  Biso   1.000  O
  O18      1.0000 0.93678  0.58637  0.45347  Biso   1.000  O
  O19      1.0000 0.56910  0.23055  0.33396  Biso   1.000  O
  O20      1.0000 0.63290  0.26376  0.21943  Biso   1.000  O
  C25      1.0000 0.86860  0.51490  0.46522  Biso   1.000  C
  C26      1.0000 0.80500  0.47550  0.40195  Biso   1.000  C
  C27      1.0000 0.80880  0.50700  0.32868  Biso   1.000  C
  H9       1.0000 0.84860  0.56600  0.31140  Biso   1.000  H
  C28      1.0000 0.74660  0.44190  0.28146  Biso   1.000  C
  H10      1.0000 0.74090  0.45160  0.22890  Biso   1.000  H
  C29      1.0000 0.69580  0.36370  0.32020  Biso   1.000  C
  C30      1.0000 0.62700  0.27970  0.28869  Biso   1.000  C
  U6       1.0000 0.58222  0.14426  0.11952  Biso   1.000  U
  S6       1.0000 0.77728  0.13238  0.91467  Biso   1.000  S
  O21      1.0000 0.64918  0.02422  0.02876  Biso   1.000  O
  O22      1.0000 0.56322  0.91363  0.95347  Biso   1.000  O
  O23      1.0000 0.93090  0.26945  0.83396  Biso   1.000  O
  O24      1.0000 0.86710  0.23624  0.71943  Biso   1.000  O
  C31      1.0000 0.63140  0.98510  0.96522  Biso   1.000  C
  C32      1.0000 0.69500  0.02450  0.90195  Biso   1.000  C
  C33      1.0000 0.69120  0.99300  0.82868  Biso   1.000  C
  H11      1.0000 0.65140  0.93400  0.81140  Biso   1.000  H
  C34      1.0000 0.75340  0.05810  0.78146  Biso   1.000  C
  H12      1.0000 0.75910  0.04840  0.72890  Biso   1.000  H
  C35      1.0000 0.80420  0.13630  0.82020  Biso   1.000  C
  C36      1.0000 0.87300  0.22030  0.78869  Biso   1.000  C
  U7       1.0000 0.08222  0.35574  0.88048  Biso   1.000  U
  S7       1.0000 0.27728  0.36762  0.08533  Biso   1.000  S
  O25      1.0000 0.14918  0.47578  0.97124  Biso   1.000  O
  O26      1.0000 0.06322  0.58637  0.04653  Biso   1.000  O
  O27      1.0000 0.43090  0.23055  0.16604  Biso   1.000  O
  O28      1.0000 0.36710  0.26376  0.28057  Biso   1.000  O
  C37      1.0000 0.13140  0.51490  0.03478  Biso   1.000  C
  C38      1.0000 0.19500  0.47550  0.09805  Biso   1.000  C
  C39      1.0000 0.19120  0.50700  0.17132  Biso   1.000  C
  H13      1.0000 0.15140  0.56600  0.18860  Biso   1.000  H
  C40      1.0000 0.25340  0.44190  0.21854  Biso   1.000  C
  H14      1.0000 0.25910  0.45160  0.27110  Biso   1.000  H
  C41      1.0000 0.30420  0.36370  0.17980  Biso   1.000  C
  C42      1.0000 0.37300  0.27970  0.21131  Biso   1.000  C
  U8       1.0000 0.41778  0.14426  0.38048  Biso   1.000  U
  S8       1.0000 0.22272  0.13238  0.58533  Biso   1.000  S
  O29      1.0000 0.35082  0.02422  0.47124  Biso   1.000  O
  O30      1.0000 0.43678  0.91363  0.54653  Biso   1.000  O
  O31      1.0000 0.06910  0.26945  0.66604  Biso   1.000  O
  O32      1.0000 0.13290  0.23624  0.78057  Biso   1.000  O
  C43      1.0000 0.36860  0.98510  0.53478  Biso   1.000  C
  C44      1.0000 0.30500  0.02450  0.59805  Biso   1.000  C
  C45      1.0000 0.30880  0.99300  0.67132  Biso   1.000  C
  H15      1.0000 0.34860  0.93400  0.68860  Biso   1.000  H
  C46      1.0000 0.24660  0.05810  0.71854  Biso   1.000  C
  H16      1.0000 0.24090  0.04840  0.77110  Biso   1.000  H
  C47      1.0000 0.19580  0.13630  0.67980  Biso   1.000  C
  C48      1.0000 0.12700  0.22030  0.71131  Biso   1.000  C
