data_image0
_cell_length_a       14.0316
_cell_length_b       15.2564
_cell_length_c       17.7817
_cell_angle_alpha    90
_cell_angle_beta     102.405
_cell_angle_gamma    90

_symmetry_space_group_name_H-M    "P 1"
_symmetry_int_tables_number       1

loop_
  _symmetry_equiv_pos_as_xyz
  'x, y, z'

loop_
  _atom_site_label
  _atom_site_occupancy
  _atom_site_fract_x
  _atom_site_fract_y
  _atom_site_fract_z
  _atom_site_thermal_displace_type
  _atom_site_B_iso_or_equiv
  _atom_site_type_symbol
  U1       1.0000 0.86978  0.16600  0.61374  Biso   1.000  U
  U2       1.0000 0.61480  0.85378  0.89071  Biso   1.000  U
  O1       1.0000 0.89170  0.05510  0.72164  Biso   1.000  O
  O2       1.0000 0.97080  0.18030  0.74490  Biso   1.000  O
  O3       1.0000 0.71130  0.97260  0.93993  Biso   1.000  O
  O4       1.0000 0.86530  0.94900  0.00020  Biso   1.000  O
  O5       1.0000 0.07040  0.80830  0.87070  Biso   1.000  O
  O6       1.0000 0.05190  0.88380  0.97342  Biso   1.000  O
  O7       1.0000 0.78750  0.04100  0.56269  Biso   1.000  O
  O8       1.0000 0.63440  0.05270  0.49850  Biso   1.000  O
  O9       1.0000 0.61050  0.95530  0.77898  Biso   1.000  O
  O10      1.0000 0.51430  0.83940  0.76132  Biso   1.000  O
  O11      1.0000 0.46010  0.21940  0.61110  Biso   1.000  O
  O12      1.0000 0.44870  0.11920  0.52026  Biso   1.000  O
  N1       1.0000 0.93960  0.00950  0.88272  Biso   1.000  N
  N2       1.0000 0.55890  0.99890  0.61755  Biso   1.000  N
  C1       1.0000 0.98660  0.08320  0.85100  Biso   1.000  C
  H1       1.0000 0.05680  0.06930  0.85720  Biso   1.000  H
  H2       1.0000 0.98180  0.13580  0.88260  Biso   1.000  H
  C2       1.0000 0.94660  0.10660  0.76740  Biso   1.000  C
  C3       1.0000 0.83530  0.02550  0.87950  Biso   1.000  C
  H3       1.0000 0.79630  0.00430  0.82970  Biso   1.000  H
  H4       1.0000 0.82380  0.08930  0.88300  Biso   1.000  H
  C4       1.0000 0.80240  0.97840  0.94570  Biso   1.000  C
  C5       1.0000 0.95750  0.92300  0.84920  Biso   1.000  C
  H5       1.0000 0.98000  0.93290  0.80070  Biso   1.000  H
  H6       1.0000 0.89530  0.89010  0.83630  Biso   1.000  H
  C6       1.0000 0.03280  0.86830  0.90330  Biso   1.000  C
  C7       1.0000 0.66400  0.98330  0.62200  Biso   1.000  C
  H7       1.0000 0.67620  0.91960  0.61930  Biso   1.000  H
  H8       1.0000 0.70230  0.00540  0.67170  Biso   1.000  H
  C8       1.0000 0.69590  0.02980  0.55580  Biso   1.000  C
  C9       1.0000 0.51170  0.92670  0.65120  Biso   1.000  C
  H9       1.0000 0.51850  0.87260  0.62210  Biso   1.000  H
  H10      1.0000 0.44110  0.93980  0.64270  Biso   1.000  H
  C10      1.0000 0.54830  0.90720  0.73600  Biso   1.000  C
  C11      1.0000 0.54020  0.08710  0.64850  Biso   1.000  C
  H11      1.0000 0.60330  0.11640  0.66900  Biso   1.000  H
  H12      1.0000 0.50650  0.07930  0.69160  Biso   1.000  H
  C12      1.0000 0.47850  0.14490  0.58770  Biso   1.000  C
  U3       1.0000 0.13022  0.66600  0.88626  Biso   1.000  U
  U4       1.0000 0.38520  0.35378  0.60929  Biso   1.000  U
  O13      1.0000 0.10830  0.55510  0.77836  Biso   1.000  O
  O14      1.0000 0.02920  0.68030  0.75510  Biso   1.000  O
  O15      1.0000 0.28870  0.47260  0.56007  Biso   1.000  O
  O16      1.0000 0.13470  0.44900  0.49980  Biso   1.000  O
  O17      1.0000 0.92960  0.30830  0.62930  Biso   1.000  O
  O18      1.0000 0.94810  0.38380  0.52658  Biso   1.000  O
  O19      1.0000 0.21250  0.54100  0.93731  Biso   1.000  O
  O20      1.0000 0.36560  0.55270  0.00150  Biso   1.000  O
  O21      1.0000 0.38950  0.45530  0.72102  Biso   1.000  O
  O22      1.0000 0.48570  0.33940  0.73868  Biso   1.000  O
  O23      1.0000 0.53990  0.71940  0.88890  Biso   1.000  O
  O24      1.0000 0.55130  0.61920  0.97974  Biso   1.000  O
  N3       1.0000 0.06040  0.50950  0.61728  Biso   1.000  N
  N4       1.0000 0.44110  0.49890  0.88245  Biso   1.000  N
  C13      1.0000 0.01340  0.58320  0.64900  Biso   1.000  C
  H13      1.0000 0.94320  0.56930  0.64280  Biso   1.000  H
  H14      1.0000 0.01820  0.63580  0.61740  Biso   1.000  H
  C14      1.0000 0.05340  0.60660  0.73260  Biso   1.000  C
  C15      1.0000 0.16470  0.52550  0.62050  Biso   1.000  C
  H15      1.0000 0.20370  0.50430  0.67030  Biso   1.000  H
  H16      1.0000 0.17620  0.58930  0.61700  Biso   1.000  H
  C16      1.0000 0.19760  0.47840  0.55430  Biso   1.000  C
  C17      1.0000 0.04250  0.42300  0.65080  Biso   1.000  C
  H17      1.0000 0.02000  0.43290  0.69930  Biso   1.000  H
  H18      1.0000 0.10470  0.39010  0.66370  Biso   1.000  H
  C18      1.0000 0.96720  0.36830  0.59670  Biso   1.000  C
  C19      1.0000 0.33600  0.48330  0.87800  Biso   1.000  C
  H19      1.0000 0.32380  0.41960  0.88070  Biso   1.000  H
  H20      1.0000 0.29770  0.50540  0.82830  Biso   1.000  H
  C20      1.0000 0.30410  0.52980  0.94420  Biso   1.000  C
  C21      1.0000 0.48830  0.42670  0.84880  Biso   1.000  C
  H21      1.0000 0.48150  0.37260  0.87790  Biso   1.000  H
  H22      1.0000 0.55890  0.43980  0.85730  Biso   1.000  H
  C22      1.0000 0.45170  0.40720  0.76400  Biso   1.000  C
  C23      1.0000 0.45980  0.58710  0.85150  Biso   1.000  C
  H23      1.0000 0.39670  0.61640  0.83100  Biso   1.000  H
  H24      1.0000 0.49350  0.57930  0.80840  Biso   1.000  H
  C24      1.0000 0.52150  0.64490  0.91230  Biso   1.000  C
  U5       1.0000 0.13022  0.83400  0.38626  Biso   1.000  U
  U6       1.0000 0.38520  0.14622  0.10929  Biso   1.000  U
  O25      1.0000 0.10830  0.94490  0.27836  Biso   1.000  O
  O26      1.0000 0.02920  0.81970  0.25510  Biso   1.000  O
  O27      1.0000 0.28870  0.02740  0.06007  Biso   1.000  O
  O28      1.0000 0.13470  0.05100  0.99980  Biso   1.000  O
  O29      1.0000 0.92960  0.19170  0.12930  Biso   1.000  O
  O30      1.0000 0.94810  0.11620  0.02658  Biso   1.000  O
  O31      1.0000 0.21250  0.95900  0.43731  Biso   1.000  O
  O32      1.0000 0.36560  0.94730  0.50150  Biso   1.000  O
  O33      1.0000 0.38950  0.04470  0.22102  Biso   1.000  O
  O34      1.0000 0.48570  0.16060  0.23868  Biso   1.000  O
  O35      1.0000 0.53990  0.78060  0.38890  Biso   1.000  O
  O36      1.0000 0.55130  0.88080  0.47974  Biso   1.000  O
  N5       1.0000 0.06040  0.99050  0.11728  Biso   1.000  N
  N6       1.0000 0.44110  0.00110  0.38245  Biso   1.000  N
  C25      1.0000 0.01340  0.91680  0.14900  Biso   1.000  C
  H25      1.0000 0.94320  0.93070  0.14280  Biso   1.000  H
  H26      1.0000 0.01820  0.86420  0.11740  Biso   1.000  H
  C26      1.0000 0.05340  0.89340  0.23260  Biso   1.000  C
  C27      1.0000 0.16470  0.97450  0.12050  Biso   1.000  C
  H27      1.0000 0.20370  0.99570  0.17030  Biso   1.000  H
  H28      1.0000 0.17620  0.91070  0.11700  Biso   1.000  H
  C28      1.0000 0.19760  0.02160  0.05430  Biso   1.000  C
  C29      1.0000 0.04250  0.07700  0.15080  Biso   1.000  C
  H29      1.0000 0.02000  0.06710  0.19930  Biso   1.000  H
  H30      1.0000 0.10470  0.10990  0.16370  Biso   1.000  H
  C30      1.0000 0.96720  0.13170  0.09670  Biso   1.000  C
  C31      1.0000 0.33600  0.01670  0.37800  Biso   1.000  C
  H31      1.0000 0.32380  0.08040  0.38070  Biso   1.000  H
  H32      1.0000 0.29770  0.99460  0.32830  Biso   1.000  H
  C32      1.0000 0.30410  0.97020  0.44420  Biso   1.000  C
  C33      1.0000 0.48830  0.07330  0.34880  Biso   1.000  C
  H33      1.0000 0.48150  0.12740  0.37790  Biso   1.000  H
  H34      1.0000 0.55890  0.06020  0.35730  Biso   1.000  H
  C34      1.0000 0.45170  0.09280  0.26400  Biso   1.000  C
  C35      1.0000 0.45980  0.91290  0.35150  Biso   1.000  C
  H35      1.0000 0.39670  0.88360  0.33100  Biso   1.000  H
  H36      1.0000 0.49350  0.92070  0.30840  Biso   1.000  H
  C36      1.0000 0.52150  0.85510  0.41230  Biso   1.000  C
  U7       1.0000 0.86978  0.33400  0.11374  Biso   1.000  U
  U8       1.0000 0.61480  0.64622  0.39071  Biso   1.000  U
  O37      1.0000 0.89170  0.44490  0.22164  Biso   1.000  O
  O38      1.0000 0.97080  0.31970  0.24490  Biso   1.000  O
  O39      1.0000 0.71130  0.52740  0.43993  Biso   1.000  O
  O40      1.0000 0.86530  0.55100  0.50020  Biso   1.000  O
  O41      1.0000 0.07040  0.69170  0.37070  Biso   1.000  O
  O42      1.0000 0.05190  0.61620  0.47342  Biso   1.000  O
  O43      1.0000 0.78750  0.45900  0.06269  Biso   1.000  O
  O44      1.0000 0.63440  0.44730  0.99850  Biso   1.000  O
  O45      1.0000 0.61050  0.54470  0.27898  Biso   1.000  O
  O46      1.0000 0.51430  0.66060  0.26132  Biso   1.000  O
  O47      1.0000 0.46010  0.28060  0.11110  Biso   1.000  O
  O48      1.0000 0.44870  0.38080  0.02026  Biso   1.000  O
  N7       1.0000 0.93960  0.49050  0.38272  Biso   1.000  N
  N8       1.0000 0.55890  0.50110  0.11755  Biso   1.000  N
  C37      1.0000 0.98660  0.41680  0.35100  Biso   1.000  C
  H37      1.0000 0.05680  0.43070  0.35720  Biso   1.000  H
  H38      1.0000 0.98180  0.36420  0.38260  Biso   1.000  H
  C38      1.0000 0.94660  0.39340  0.26740  Biso   1.000  C
  C39      1.0000 0.83530  0.47450  0.37950  Biso   1.000  C
  H39      1.0000 0.79630  0.49570  0.32970  Biso   1.000  H
  H40      1.0000 0.82380  0.41070  0.38300  Biso   1.000  H
  C40      1.0000 0.80240  0.52160  0.44570  Biso   1.000  C
  C41      1.0000 0.95750  0.57700  0.34920  Biso   1.000  C
  H41      1.0000 0.98000  0.56710  0.30070  Biso   1.000  H
  H42      1.0000 0.89530  0.60990  0.33630  Biso   1.000  H
  C42      1.0000 0.03280  0.63170  0.40330  Biso   1.000  C
  C43      1.0000 0.66400  0.51670  0.12200  Biso   1.000  C
  H43      1.0000 0.67620  0.58040  0.11930  Biso   1.000  H
  H44      1.0000 0.70230  0.49460  0.17170  Biso   1.000  H
  C44      1.0000 0.69590  0.47020  0.05580  Biso   1.000  C
  C45      1.0000 0.51170  0.57330  0.15120  Biso   1.000  C
  H45      1.0000 0.51850  0.62740  0.12210  Biso   1.000  H
  H46      1.0000 0.44110  0.56020  0.14270  Biso   1.000  H
  C46      1.0000 0.54830  0.59280  0.23600  Biso   1.000  C
  C47      1.0000 0.54020  0.41290  0.14850  Biso   1.000  C
  H47      1.0000 0.60330  0.38360  0.16900  Biso   1.000  H
  H48      1.0000 0.50650  0.42070  0.19160  Biso   1.000  H
  C48      1.0000 0.47850  0.35510  0.08770  Biso   1.000  C
  Ni1      1.0000 0.00000  0.00000  0.00000  Biso   1.000  Ni
  Ni2      1.0000 0.00000  0.50000  0.50000  Biso   1.000  Ni
  Ni3      1.0000 0.50000  0.00000  0.50000  Biso   1.000  Ni
  Ni4      1.0000 0.50000  0.50000  0.00000  Biso   1.000  Ni
