data_image0
_cell_length_a       13.51
_cell_length_b       13.51
_cell_length_c       16.0684
_cell_angle_alpha    90
_cell_angle_beta     90
_cell_angle_gamma    90

_symmetry_space_group_name_H-M    "P 1"
_symmetry_int_tables_number       1

loop_
  _symmetry_equiv_pos_as_xyz
  'x, y, z'

loop_
  _atom_site_label
  _atom_site_occupancy
  _atom_site_fract_x
  _atom_site_fract_y
  _atom_site_fract_z
  _atom_site_thermal_displace_type
  _atom_site_B_iso_or_equiv
  _atom_site_type_symbol
  S1       1.0000 0.28620  0.22180  0.13937  Biso   1.000  S
  O1       1.0000 0.45550  0.12390  0.23300  Biso   1.000  O
  O2       1.0000 0.50200  0.02600  0.13240  Biso   1.000  O
  O3       1.0000 0.10730  0.30080  0.95820  Biso   1.000  O
  O4       1.0000 0.11460  0.34720  0.08830  Biso   1.000  O
  C1       1.0000 0.36810  0.13710  0.10500  Biso   1.000  C
  C2       1.0000 0.35400  0.11490  0.02290  Biso   1.000  C
  H1       1.0000 0.39480  0.07210  0.99330  Biso   1.000  H
  C3       1.0000 0.27220  0.16250  0.98750  Biso   1.000  C
  H2       1.0000 0.24940  0.15190  0.93360  Biso   1.000  H
  C4       1.0000 0.23010  0.22750  0.04360  Biso   1.000  C
  C5       1.0000 0.44750  0.09370  0.16050  Biso   1.000  C
  C6       1.0000 0.14680  0.29410  0.02880  Biso   1.000  C
  S2       1.0000 0.71380  0.77820  0.63937  Biso   1.000  S
  O5       1.0000 0.54450  0.87610  0.73300  Biso   1.000  O
  O6       1.0000 0.49800  0.97400  0.63240  Biso   1.000  O
  O7       1.0000 0.89270  0.69920  0.45820  Biso   1.000  O
  O8       1.0000 0.88540  0.65280  0.58830  Biso   1.000  O
  C7       1.0000 0.63190  0.86290  0.60500  Biso   1.000  C
  C8       1.0000 0.64600  0.88510  0.52290  Biso   1.000  C
  H3       1.0000 0.60520  0.92790  0.49330  Biso   1.000  H
  C9       1.0000 0.72780  0.83750  0.48750  Biso   1.000  C
  H4       1.0000 0.75060  0.84810  0.43360  Biso   1.000  H
  C10      1.0000 0.76990  0.77250  0.54360  Biso   1.000  C
  C11      1.0000 0.55250  0.90630  0.66050  Biso   1.000  C
  C12      1.0000 0.85320  0.70590  0.52880  Biso   1.000  C
  S3       1.0000 0.77820  0.28620  0.38937  Biso   1.000  S
  O9       1.0000 0.87610  0.45550  0.48300  Biso   1.000  O
  O10      1.0000 0.97400  0.50200  0.38240  Biso   1.000  O
  O11      1.0000 0.69920  0.10730  0.20820  Biso   1.000  O
  O12      1.0000 0.65280  0.11460  0.33830  Biso   1.000  O
  C13      1.0000 0.86290  0.36810  0.35500  Biso   1.000  C
  C14      1.0000 0.88510  0.35400  0.27290  Biso   1.000  C
  H5       1.0000 0.92790  0.39480  0.24330  Biso   1.000  H
  C15      1.0000 0.83750  0.27220  0.23750  Biso   1.000  C
  H6       1.0000 0.84810  0.24940  0.18360  Biso   1.000  H
  C16      1.0000 0.77250  0.23010  0.29360  Biso   1.000  C
  C17      1.0000 0.90630  0.44750  0.41050  Biso   1.000  C
  C18      1.0000 0.70590  0.14680  0.27880  Biso   1.000  C
  S4       1.0000 0.22180  0.71380  0.88937  Biso   1.000  S
  O13      1.0000 0.12390  0.54450  0.98300  Biso   1.000  O
  O14      1.0000 0.02600  0.49800  0.88240  Biso   1.000  O
  O15      1.0000 0.30080  0.89270  0.70820  Biso   1.000  O
  O16      1.0000 0.34720  0.88540  0.83830  Biso   1.000  O
  C19      1.0000 0.13710  0.63190  0.85500  Biso   1.000  C
  C20      1.0000 0.11490  0.64600  0.77290  Biso   1.000  C
  H7       1.0000 0.07210  0.60520  0.74330  Biso   1.000  H
  C21      1.0000 0.16250  0.72780  0.73750  Biso   1.000  C
  H8       1.0000 0.15190  0.75060  0.68360  Biso   1.000  H
  C22      1.0000 0.22750  0.76990  0.79360  Biso   1.000  C
  C23      1.0000 0.09370  0.55250  0.91050  Biso   1.000  C
  C24      1.0000 0.29410  0.85320  0.77880  Biso   1.000  C
  S5       1.0000 0.71380  0.22180  0.86063  Biso   1.000  S
  O17      1.0000 0.54450  0.12390  0.76700  Biso   1.000  O
  O18      1.0000 0.49800  0.02600  0.86760  Biso   1.000  O
  O19      1.0000 0.89270  0.30080  0.04180  Biso   1.000  O
  O20      1.0000 0.88540  0.34720  0.91170  Biso   1.000  O
  C25      1.0000 0.63190  0.13710  0.89500  Biso   1.000  C
  C26      1.0000 0.64600  0.11490  0.97710  Biso   1.000  C
  H9       1.0000 0.60520  0.07210  0.00670  Biso   1.000  H
  C27      1.0000 0.72780  0.16250  0.01250  Biso   1.000  C
  H10      1.0000 0.75060  0.15190  0.06640  Biso   1.000  H
  C28      1.0000 0.76990  0.22750  0.95640  Biso   1.000  C
  C29      1.0000 0.55250  0.09370  0.83950  Biso   1.000  C
  C30      1.0000 0.85320  0.29410  0.97120  Biso   1.000  C
  S6       1.0000 0.28620  0.77820  0.36063  Biso   1.000  S
  O21      1.0000 0.45550  0.87610  0.26700  Biso   1.000  O
  O22      1.0000 0.50200  0.97400  0.36760  Biso   1.000  O
  O23      1.0000 0.10730  0.69920  0.54180  Biso   1.000  O
  O24      1.0000 0.11460  0.65280  0.41170  Biso   1.000  O
  C31      1.0000 0.36810  0.86290  0.39500  Biso   1.000  C
  C32      1.0000 0.35400  0.88510  0.47710  Biso   1.000  C
  H11      1.0000 0.39480  0.92790  0.50670  Biso   1.000  H
  C33      1.0000 0.27220  0.83750  0.51250  Biso   1.000  C
  H12      1.0000 0.24940  0.84810  0.56640  Biso   1.000  H
  C34      1.0000 0.23010  0.77250  0.45640  Biso   1.000  C
  C35      1.0000 0.44750  0.90630  0.33950  Biso   1.000  C
  C36      1.0000 0.14680  0.70590  0.47120  Biso   1.000  C
  S7       1.0000 0.22180  0.28620  0.61063  Biso   1.000  S
  O25      1.0000 0.12390  0.45550  0.51700  Biso   1.000  O
  O26      1.0000 0.02600  0.50200  0.61760  Biso   1.000  O
  O27      1.0000 0.30080  0.10730  0.79180  Biso   1.000  O
  O28      1.0000 0.34720  0.11460  0.66170  Biso   1.000  O
  C37      1.0000 0.13710  0.36810  0.64500  Biso   1.000  C
  C38      1.0000 0.11490  0.35400  0.72710  Biso   1.000  C
  H13      1.0000 0.07210  0.39480  0.75670  Biso   1.000  H
  C39      1.0000 0.16250  0.27220  0.76250  Biso   1.000  C
  H14      1.0000 0.15190  0.24940  0.81640  Biso   1.000  H
  C40      1.0000 0.22750  0.23010  0.70640  Biso   1.000  C
  C41      1.0000 0.09370  0.44750  0.58950  Biso   1.000  C
  C42      1.0000 0.29410  0.14680  0.72120  Biso   1.000  C
  S8       1.0000 0.77820  0.71380  0.11063  Biso   1.000  S
  O29      1.0000 0.87610  0.54450  0.01700  Biso   1.000  O
  O30      1.0000 0.97400  0.49800  0.11760  Biso   1.000  O
  O31      1.0000 0.69920  0.89270  0.29180  Biso   1.000  O
  O32      1.0000 0.65280  0.88540  0.16170  Biso   1.000  O
  C43      1.0000 0.86290  0.63190  0.14500  Biso   1.000  C
  C44      1.0000 0.88510  0.64600  0.22710  Biso   1.000  C
  H15      1.0000 0.92790  0.60520  0.25670  Biso   1.000  H
  C45      1.0000 0.83750  0.72780  0.26250  Biso   1.000  C
  H16      1.0000 0.84810  0.75060  0.31640  Biso   1.000  H
  C46      1.0000 0.77250  0.76990  0.20640  Biso   1.000  C
  C47      1.0000 0.90630  0.55250  0.08950  Biso   1.000  C
  C48      1.0000 0.70590  0.85320  0.22120  Biso   1.000  C
  In1      1.0000 0.58169  0.00000  0.25000  Biso   1.000  In
  In2      1.0000 0.41831  0.00000  0.75000  Biso   1.000  In
  In3      1.0000 0.00000  0.58169  0.50000  Biso   1.000  In
  In4      1.0000 0.00000  0.41831  0.00000  Biso   1.000  In
