data_image0
_cell_length_a       13.559
_cell_length_b       13.559
_cell_length_c       15.6782
_cell_angle_alpha    90
_cell_angle_beta     90
_cell_angle_gamma    90

_symmetry_space_group_name_H-M    "P 1"
_symmetry_int_tables_number       1

loop_
  _symmetry_equiv_pos_as_xyz
  'x, y, z'

loop_
  _atom_site_label
  _atom_site_occupancy
  _atom_site_fract_x
  _atom_site_fract_y
  _atom_site_fract_z
  _atom_site_thermal_displace_type
  _atom_site_B_iso_or_equiv
  _atom_site_type_symbol
  S1       1.0000 0.27708  0.78504  0.10828  Biso   1.000  S
  O1       1.0000 0.37910  0.95270  0.01600  Biso   1.000  O
  O2       1.0000 0.47330  0.99790  0.12190  Biso   1.000  O
  O3       1.0000 0.14800  0.61560  0.15750  Biso   1.000  O
  O4       1.0000 0.19430  0.60600  0.29080  Biso   1.000  O
  C1       1.0000 0.38480  0.84910  0.22860  Biso   1.000  C
  H1       1.0000 0.42850  0.88750  0.26010  Biso   1.000  H
  C2       1.0000 0.27010  0.72760  0.20380  Biso   1.000  C
  C3       1.0000 0.36350  0.86600  0.14590  Biso   1.000  C
  C4       1.0000 0.33400  0.76690  0.26260  Biso   1.000  C
  H2       1.0000 0.34260  0.74270  0.31760  Biso   1.000  H
  C5       1.0000 0.40690  0.94290  0.09120  Biso   1.000  C
  C6       1.0000 0.20040  0.64500  0.21770  Biso   1.000  C
  S2       1.0000 0.72292  0.21496  0.60828  Biso   1.000  S
  O5       1.0000 0.62090  0.04730  0.51600  Biso   1.000  O
  O6       1.0000 0.52670  0.00210  0.62190  Biso   1.000  O
  O7       1.0000 0.85200  0.38440  0.65750  Biso   1.000  O
  O8       1.0000 0.80570  0.39400  0.79080  Biso   1.000  O
  C7       1.0000 0.61520  0.15090  0.72860  Biso   1.000  C
  H3       1.0000 0.57150  0.11250  0.76010  Biso   1.000  H
  C8       1.0000 0.72990  0.27240  0.70380  Biso   1.000  C
  C9       1.0000 0.63650  0.13400  0.64590  Biso   1.000  C
  C10      1.0000 0.66600  0.23310  0.76260  Biso   1.000  C
  H4       1.0000 0.65740  0.25730  0.81760  Biso   1.000  H
  C11      1.0000 0.59310  0.05710  0.59120  Biso   1.000  C
  C12      1.0000 0.79960  0.35500  0.71770  Biso   1.000  C
  S3       1.0000 0.21496  0.27708  0.85828  Biso   1.000  S
  O9       1.0000 0.04730  0.37910  0.76600  Biso   1.000  O
  O10      1.0000 0.00210  0.47330  0.87190  Biso   1.000  O
  O11      1.0000 0.38440  0.14800  0.90750  Biso   1.000  O
  O12      1.0000 0.39400  0.19430  0.04080  Biso   1.000  O
  C13      1.0000 0.15090  0.38480  0.97860  Biso   1.000  C
  H5       1.0000 0.11250  0.42850  0.01010  Biso   1.000  H
  C14      1.0000 0.27240  0.27010  0.95380  Biso   1.000  C
  C15      1.0000 0.13400  0.36350  0.89590  Biso   1.000  C
  C16      1.0000 0.23310  0.33400  0.01260  Biso   1.000  C
  H6       1.0000 0.25730  0.34260  0.06760  Biso   1.000  H
  C17      1.0000 0.05710  0.40690  0.84120  Biso   1.000  C
  C18      1.0000 0.35500  0.20040  0.96770  Biso   1.000  C
  S4       1.0000 0.78504  0.72292  0.35828  Biso   1.000  S
  O13      1.0000 0.95270  0.62090  0.26600  Biso   1.000  O
  O14      1.0000 0.99790  0.52670  0.37190  Biso   1.000  O
  O15      1.0000 0.61560  0.85200  0.40750  Biso   1.000  O
  O16      1.0000 0.60600  0.80570  0.54080  Biso   1.000  O
  C19      1.0000 0.84910  0.61520  0.47860  Biso   1.000  C
  H7       1.0000 0.88750  0.57150  0.51010  Biso   1.000  H
  C20      1.0000 0.72760  0.72990  0.45380  Biso   1.000  C
  C21      1.0000 0.86600  0.63650  0.39590  Biso   1.000  C
  C22      1.0000 0.76690  0.66600  0.51260  Biso   1.000  C
  H8       1.0000 0.74270  0.65740  0.56760  Biso   1.000  H
  C23      1.0000 0.94290  0.59310  0.34120  Biso   1.000  C
  C24      1.0000 0.64500  0.79960  0.46770  Biso   1.000  C
  S5       1.0000 0.72292  0.78504  0.89172  Biso   1.000  S
  O17      1.0000 0.62090  0.95270  0.98400  Biso   1.000  O
  O18      1.0000 0.52670  0.99790  0.87810  Biso   1.000  O
  O19      1.0000 0.85200  0.61560  0.84250  Biso   1.000  O
  O20      1.0000 0.80570  0.60600  0.70920  Biso   1.000  O
  C25      1.0000 0.61520  0.84910  0.77140  Biso   1.000  C
  H9       1.0000 0.57150  0.88750  0.73990  Biso   1.000  H
  C26      1.0000 0.72990  0.72760  0.79620  Biso   1.000  C
  C27      1.0000 0.63650  0.86600  0.85410  Biso   1.000  C
  C28      1.0000 0.66600  0.76690  0.73740  Biso   1.000  C
  H10      1.0000 0.65740  0.74270  0.68240  Biso   1.000  H
  C29      1.0000 0.59310  0.94290  0.90880  Biso   1.000  C
  C30      1.0000 0.79960  0.64500  0.78230  Biso   1.000  C
  S6       1.0000 0.27708  0.21496  0.39172  Biso   1.000  S
  O21      1.0000 0.37910  0.04730  0.48400  Biso   1.000  O
  O22      1.0000 0.47330  0.00210  0.37810  Biso   1.000  O
  O23      1.0000 0.14800  0.38440  0.34250  Biso   1.000  O
  O24      1.0000 0.19430  0.39400  0.20920  Biso   1.000  O
  C31      1.0000 0.38480  0.15090  0.27140  Biso   1.000  C
  H11      1.0000 0.42850  0.11250  0.23990  Biso   1.000  H
  C32      1.0000 0.27010  0.27240  0.29620  Biso   1.000  C
  C33      1.0000 0.36350  0.13400  0.35410  Biso   1.000  C
  C34      1.0000 0.33400  0.23310  0.23740  Biso   1.000  C
  H12      1.0000 0.34260  0.25730  0.18240  Biso   1.000  H
  C35      1.0000 0.40690  0.05710  0.40880  Biso   1.000  C
  C36      1.0000 0.20040  0.35500  0.28230  Biso   1.000  C
  S7       1.0000 0.78504  0.27708  0.14172  Biso   1.000  S
  O25      1.0000 0.95270  0.37910  0.23400  Biso   1.000  O
  O26      1.0000 0.99790  0.47330  0.12810  Biso   1.000  O
  O27      1.0000 0.61560  0.14800  0.09250  Biso   1.000  O
  O28      1.0000 0.60600  0.19430  0.95920  Biso   1.000  O
  C37      1.0000 0.84910  0.38480  0.02140  Biso   1.000  C
  H13      1.0000 0.88750  0.42850  0.98990  Biso   1.000  H
  C38      1.0000 0.72760  0.27010  0.04620  Biso   1.000  C
  C39      1.0000 0.86600  0.36350  0.10410  Biso   1.000  C
  C40      1.0000 0.76690  0.33400  0.98740  Biso   1.000  C
  H14      1.0000 0.74270  0.34260  0.93240  Biso   1.000  H
  C41      1.0000 0.94290  0.40690  0.15880  Biso   1.000  C
  C42      1.0000 0.64500  0.20040  0.03230  Biso   1.000  C
  S8       1.0000 0.21496  0.72292  0.64172  Biso   1.000  S
  O29      1.0000 0.04730  0.62090  0.73400  Biso   1.000  O
  O30      1.0000 0.00210  0.52670  0.62810  Biso   1.000  O
  O31      1.0000 0.38440  0.85200  0.59250  Biso   1.000  O
  O32      1.0000 0.39400  0.80570  0.45920  Biso   1.000  O
  C43      1.0000 0.15090  0.61520  0.52140  Biso   1.000  C
  H15      1.0000 0.11250  0.57150  0.48990  Biso   1.000  H
  C44      1.0000 0.27240  0.72990  0.54620  Biso   1.000  C
  C45      1.0000 0.13400  0.63650  0.60410  Biso   1.000  C
  C46      1.0000 0.23310  0.66600  0.48740  Biso   1.000  C
  H16      1.0000 0.25730  0.65740  0.43240  Biso   1.000  H
  C47      1.0000 0.05710  0.59310  0.65880  Biso   1.000  C
  C48      1.0000 0.35500  0.79960  0.53230  Biso   1.000  C
  In1      1.0000 0.50000  0.07701  0.00000  Biso   1.000  In
  In2      1.0000 0.50000  0.92299  0.50000  Biso   1.000  In
  In3      1.0000 0.92299  0.50000  0.75000  Biso   1.000  In
  In4      1.0000 0.07701  0.50000  0.25000  Biso   1.000  In
