data_image0
_cell_length_a       13.577
_cell_length_b       13.577
_cell_length_c       15.5394
_cell_angle_alpha    90
_cell_angle_beta     90
_cell_angle_gamma    90

_symmetry_space_group_name_H-M    "P 1"
_symmetry_int_tables_number       1

loop_
  _symmetry_equiv_pos_as_xyz
  'x, y, z'

loop_
  _atom_site_label
  _atom_site_occupancy
  _atom_site_fract_x
  _atom_site_fract_y
  _atom_site_fract_z
  _atom_site_thermal_displace_type
  _atom_site_B_iso_or_equiv
  _atom_site_type_symbol
  S1       1.0000 0.22330  0.28496  0.10754  Biso   1.000  S
  O1       1.0000 0.30670  0.10520  0.29030  Biso   1.000  O
  O2       1.0000 0.35290  0.11490  0.15600  Biso   1.000  O
  O3       1.0000 0.02620  0.49700  0.12330  Biso   1.000  O
  O4       1.0000 0.12070  0.45310  0.01550  Biso   1.000  O
  C1       1.0000 0.23000  0.22490  0.20360  Biso   1.000  C
  C2       1.0000 0.16520  0.26250  0.26270  Biso   1.000  C
  H1       1.0000 0.15540  0.23680  0.31750  Biso   1.000  H
  C3       1.0000 0.11500  0.34570  0.22930  Biso   1.000  C
  H2       1.0000 0.07150  0.38360  0.26150  Biso   1.000  H
  C4       1.0000 0.13660  0.36440  0.14640  Biso   1.000  C
  C5       1.0000 0.29980  0.14320  0.21670  Biso   1.000  C
  C6       1.0000 0.09250  0.44290  0.09130  Biso   1.000  C
  S2       1.0000 0.77670  0.71504  0.60754  Biso   1.000  S
  O5       1.0000 0.69330  0.89480  0.79030  Biso   1.000  O
  O6       1.0000 0.64710  0.88510  0.65600  Biso   1.000  O
  O7       1.0000 0.97380  0.50300  0.62330  Biso   1.000  O
  O8       1.0000 0.87930  0.54690  0.51550  Biso   1.000  O
  C7       1.0000 0.77000  0.77510  0.70360  Biso   1.000  C
  C8       1.0000 0.83480  0.73750  0.76270  Biso   1.000  C
  H3       1.0000 0.84460  0.76320  0.81750  Biso   1.000  H
  C9       1.0000 0.88500  0.65430  0.72930  Biso   1.000  C
  H4       1.0000 0.92850  0.61640  0.76150  Biso   1.000  H
  C10      1.0000 0.86340  0.63560  0.64640  Biso   1.000  C
  C11      1.0000 0.70020  0.85680  0.71670  Biso   1.000  C
  C12      1.0000 0.90750  0.55710  0.59130  Biso   1.000  C
  S3       1.0000 0.71504  0.22330  0.35754  Biso   1.000  S
  O9       1.0000 0.89480  0.30670  0.54030  Biso   1.000  O
  O10      1.0000 0.88510  0.35290  0.40600  Biso   1.000  O
  O11      1.0000 0.50300  0.02620  0.37330  Biso   1.000  O
  O12      1.0000 0.54690  0.12070  0.26550  Biso   1.000  O
  C13      1.0000 0.77510  0.23000  0.45360  Biso   1.000  C
  C14      1.0000 0.73750  0.16520  0.51270  Biso   1.000  C
  H5       1.0000 0.76320  0.15540  0.56750  Biso   1.000  H
  C15      1.0000 0.65430  0.11500  0.47930  Biso   1.000  C
  H6       1.0000 0.61640  0.07150  0.51150  Biso   1.000  H
  C16      1.0000 0.63560  0.13660  0.39640  Biso   1.000  C
  C17      1.0000 0.85680  0.29980  0.46670  Biso   1.000  C
  C18      1.0000 0.55710  0.09250  0.34130  Biso   1.000  C
  S4       1.0000 0.28496  0.77670  0.85754  Biso   1.000  S
  O13      1.0000 0.10520  0.69330  0.04030  Biso   1.000  O
  O14      1.0000 0.11490  0.64710  0.90600  Biso   1.000  O
  O15      1.0000 0.49700  0.97380  0.87330  Biso   1.000  O
  O16      1.0000 0.45310  0.87930  0.76550  Biso   1.000  O
  C19      1.0000 0.22490  0.77000  0.95360  Biso   1.000  C
  C20      1.0000 0.26250  0.83480  0.01270  Biso   1.000  C
  H7       1.0000 0.23680  0.84460  0.06750  Biso   1.000  H
  C21      1.0000 0.34570  0.88500  0.97930  Biso   1.000  C
  H8       1.0000 0.38360  0.92850  0.01150  Biso   1.000  H
  C22      1.0000 0.36440  0.86340  0.89640  Biso   1.000  C
  C23      1.0000 0.14320  0.70020  0.96670  Biso   1.000  C
  C24      1.0000 0.44290  0.90750  0.84130  Biso   1.000  C
  S5       1.0000 0.77670  0.28496  0.89246  Biso   1.000  S
  O17      1.0000 0.69330  0.10520  0.70970  Biso   1.000  O
  O18      1.0000 0.64710  0.11490  0.84400  Biso   1.000  O
  O19      1.0000 0.97380  0.49700  0.87670  Biso   1.000  O
  O20      1.0000 0.87930  0.45310  0.98450  Biso   1.000  O
  C25      1.0000 0.77000  0.22490  0.79640  Biso   1.000  C
  C26      1.0000 0.83480  0.26250  0.73730  Biso   1.000  C
  H9       1.0000 0.84460  0.23680  0.68250  Biso   1.000  H
  C27      1.0000 0.88500  0.34570  0.77070  Biso   1.000  C
  H10      1.0000 0.92850  0.38360  0.73850  Biso   1.000  H
  C28      1.0000 0.86340  0.36440  0.85360  Biso   1.000  C
  C29      1.0000 0.70020  0.14320  0.78330  Biso   1.000  C
  C30      1.0000 0.90750  0.44290  0.90870  Biso   1.000  C
  S6       1.0000 0.22330  0.71504  0.39246  Biso   1.000  S
  O21      1.0000 0.30670  0.89480  0.20970  Biso   1.000  O
  O22      1.0000 0.35290  0.88510  0.34400  Biso   1.000  O
  O23      1.0000 0.02620  0.50300  0.37670  Biso   1.000  O
  O24      1.0000 0.12070  0.54690  0.48450  Biso   1.000  O
  C31      1.0000 0.23000  0.77510  0.29640  Biso   1.000  C
  C32      1.0000 0.16520  0.73750  0.23730  Biso   1.000  C
  H11      1.0000 0.15540  0.76320  0.18250  Biso   1.000  H
  C33      1.0000 0.11500  0.65430  0.27070  Biso   1.000  C
  H12      1.0000 0.07150  0.61640  0.23850  Biso   1.000  H
  C34      1.0000 0.13660  0.63560  0.35360  Biso   1.000  C
  C35      1.0000 0.29980  0.85680  0.28330  Biso   1.000  C
  C36      1.0000 0.09250  0.55710  0.40870  Biso   1.000  C
  S7       1.0000 0.28496  0.22330  0.64246  Biso   1.000  S
  O25      1.0000 0.10520  0.30670  0.45970  Biso   1.000  O
  O26      1.0000 0.11490  0.35290  0.59400  Biso   1.000  O
  O27      1.0000 0.49700  0.02620  0.62670  Biso   1.000  O
  O28      1.0000 0.45310  0.12070  0.73450  Biso   1.000  O
  C37      1.0000 0.22490  0.23000  0.54640  Biso   1.000  C
  C38      1.0000 0.26250  0.16520  0.48730  Biso   1.000  C
  H13      1.0000 0.23680  0.15540  0.43250  Biso   1.000  H
  C39      1.0000 0.34570  0.11500  0.52070  Biso   1.000  C
  H14      1.0000 0.38360  0.07150  0.48850  Biso   1.000  H
  C40      1.0000 0.36440  0.13660  0.60360  Biso   1.000  C
  C41      1.0000 0.14320  0.29980  0.53330  Biso   1.000  C
  C42      1.0000 0.44290  0.09250  0.65870  Biso   1.000  C
  S8       1.0000 0.71504  0.77670  0.14246  Biso   1.000  S
  O29      1.0000 0.89480  0.69330  0.95970  Biso   1.000  O
  O30      1.0000 0.88510  0.64710  0.09400  Biso   1.000  O
  O31      1.0000 0.50300  0.97380  0.12670  Biso   1.000  O
  O32      1.0000 0.54690  0.87930  0.23450  Biso   1.000  O
  C43      1.0000 0.77510  0.77000  0.04640  Biso   1.000  C
  C44      1.0000 0.73750  0.83480  0.98730  Biso   1.000  C
  H15      1.0000 0.76320  0.84460  0.93250  Biso   1.000  H
  C45      1.0000 0.65430  0.88500  0.02070  Biso   1.000  C
  H16      1.0000 0.61640  0.92850  0.98850  Biso   1.000  H
  C46      1.0000 0.63560  0.86340  0.10360  Biso   1.000  C
  C47      1.0000 0.85680  0.70020  0.03330  Biso   1.000  C
  C48      1.0000 0.55710  0.90750  0.15870  Biso   1.000  C
  In1      1.0000 0.42385  0.00000  0.25000  Biso   1.000  In
  In2      1.0000 0.57615  0.00000  0.75000  Biso   1.000  In
  In3      1.0000 0.00000  0.42385  0.50000  Biso   1.000  In
  In4      1.0000 0.00000  0.57615  0.00000  Biso   1.000  In
