data_image0
_cell_length_a       14.8281
_cell_length_b       6.4872
_cell_length_c       11.3503
_cell_angle_alpha    90
_cell_angle_beta     90
_cell_angle_gamma    90

_symmetry_space_group_name_H-M    "P 1"
_symmetry_int_tables_number       1

loop_
  _symmetry_equiv_pos_as_xyz
  'x, y, z'

loop_
  _atom_site_label
  _atom_site_occupancy
  _atom_site_fract_x
  _atom_site_fract_y
  _atom_site_fract_z
  _atom_site_thermal_displace_type
  _atom_site_B_iso_or_equiv
  _atom_site_type_symbol
  C1       1.0000 0.66500  0.58640  0.66570  Biso   1.000  C
  N1       1.0000 0.59880  0.64120  0.59600  Biso   1.000  N
  C2       1.0000 0.16500  0.08640  0.16570  Biso   1.000  C
  N2       1.0000 0.09880  0.14120  0.09600  Biso   1.000  N
  C3       1.0000 0.33500  0.91360  0.66570  Biso   1.000  C
  N3       1.0000 0.40120  0.85880  0.59600  Biso   1.000  N
  C4       1.0000 0.83500  0.41360  0.16570  Biso   1.000  C
  N4       1.0000 0.90120  0.35880  0.09600  Biso   1.000  N
  C5       1.0000 0.33500  0.08640  0.33430  Biso   1.000  C
  N5       1.0000 0.40120  0.14120  0.40400  Biso   1.000  N
  C6       1.0000 0.83500  0.58640  0.83430  Biso   1.000  C
  N6       1.0000 0.90120  0.64120  0.90400  Biso   1.000  N
  C7       1.0000 0.66500  0.41360  0.33430  Biso   1.000  C
  N7       1.0000 0.59880  0.35880  0.40400  Biso   1.000  N
  C8       1.0000 0.16500  0.91360  0.83430  Biso   1.000  C
  N8       1.0000 0.09880  0.85880  0.90400  Biso   1.000  N
  C9       1.0000 0.33500  0.41360  0.33430  Biso   1.000  C
  N9       1.0000 0.40120  0.35880  0.40400  Biso   1.000  N
  C10      1.0000 0.83500  0.91360  0.83430  Biso   1.000  C
  N10      1.0000 0.90120  0.85880  0.90400  Biso   1.000  N
  C11      1.0000 0.66500  0.08640  0.33430  Biso   1.000  C
  N11      1.0000 0.59880  0.14120  0.40400  Biso   1.000  N
  C12      1.0000 0.16500  0.58640  0.83430  Biso   1.000  C
  N12      1.0000 0.09880  0.64120  0.90400  Biso   1.000  N
  C13      1.0000 0.66500  0.91360  0.66570  Biso   1.000  C
  N13      1.0000 0.59880  0.85880  0.59600  Biso   1.000  N
  C14      1.0000 0.16500  0.41360  0.16570  Biso   1.000  C
  N14      1.0000 0.09880  0.35880  0.09600  Biso   1.000  N
  C15      1.0000 0.33500  0.58640  0.66570  Biso   1.000  C
  N15      1.0000 0.40120  0.64120  0.59600  Biso   1.000  N
  C16      1.0000 0.83500  0.08640  0.16570  Biso   1.000  C
  N16      1.0000 0.90120  0.14120  0.09600  Biso   1.000  N
  Ga1      1.0000 0.50000  0.50000  0.50000  Biso   1.000  Ga
  Ga2      1.0000 0.00000  0.00000  0.00000  Biso   1.000  Ga
  Ga3      1.0000 0.50000  0.00000  0.50000  Biso   1.000  Ga
  Ga4      1.0000 0.00000  0.50000  0.00000  Biso   1.000  Ga
  C17      1.0000 0.71171  0.75000  0.71120  Biso   1.000  C
  C18      1.0000 0.21171  0.25000  0.21120  Biso   1.000  C
  C19      1.0000 0.28829  0.75000  0.71120  Biso   1.000  C
  C20      1.0000 0.78829  0.25000  0.21120  Biso   1.000  C
  C21      1.0000 0.28829  0.25000  0.28880  Biso   1.000  C
  C22      1.0000 0.78829  0.75000  0.78880  Biso   1.000  C
  C23      1.0000 0.71171  0.25000  0.28880  Biso   1.000  C
  C24      1.0000 0.21171  0.75000  0.78880  Biso   1.000  C
  O1       1.0000 0.50000  0.25000  0.58720  Biso   1.000  O
  O2       1.0000 0.00000  0.75000  0.08720  Biso   1.000  O
  O3       1.0000 0.50000  0.75000  0.41280  Biso   1.000  O
  O4       1.0000 0.00000  0.25000  0.91280  Biso   1.000  O
