data_SONTUL_neutral_b
_audit_creation_date              2014-07-02
_audit_creation_method            'Materials Studio'
_symmetry_space_group_name_H-M    'P1'
_symmetry_Int_Tables_number       1
_symmetry_cell_setting            triclinic
loop_
_symmetry_equiv_pos_as_xyz
  x,y,z
_cell_length_a                    18.6000
_cell_length_b                    18.6000
_cell_length_c                    18.6000
_cell_angle_alpha                 60.0000
_cell_angle_beta                  60.0000
_cell_angle_gamma                 60.0000
loop_
_atom_site_label
_atom_site_type_symbol
_atom_site_fract_x
_atom_site_fract_y
_atom_site_fract_z
_atom_site_U_iso_or_equiv
_atom_site_adp_type
_atom_site_occupancy
Cu1    Cu    0.50000   0.07028   0.92972   0.01267  Uiso   1.00
Cu2    Cu    0.07028   0.50000   0.50000   0.01267  Uiso   1.00
Cu3    Cu    0.92972   0.50000   0.50000   0.01267  Uiso   1.00
Cu4    Cu    0.50000   0.92972   0.07028   0.01267  Uiso   1.00
Cu5    Cu    0.50000   0.92972   0.50000   0.01267  Uiso   1.00
Cu6    Cu    0.07028   0.50000   0.92972   0.01267  Uiso   1.00
Cu7    Cu    0.92972   0.50000   0.07028   0.01267  Uiso   1.00
Cu8    Cu    0.50000   0.07028   0.50000   0.01267  Uiso   1.00
Cu9    Cu    0.50000   0.50000   0.07028   0.01267  Uiso   1.00
Cu10   Cu    0.07028   0.92972   0.50000   0.01267  Uiso   1.00
Cu11   Cu    0.92972   0.07028   0.50000   0.01267  Uiso   1.00
Cu12   Cu    0.50000   0.50000   0.92972   0.01267  Uiso   1.00
H1     H     0.22710   0.01070   0.22710   0.01267  Uiso   1.00
H2     H     0.01070   0.22710   0.53510   0.01267  Uiso   1.00
H3     H     0.22710   0.53510   0.22710   0.01267  Uiso   1.00
H4     H     0.53510   0.22710   0.01070   0.01267  Uiso   1.00
H5     H     0.22710   0.22710   0.53510   0.01267  Uiso   1.00
H6     H     0.01070   0.53510   0.22710   0.01267  Uiso   1.00
H7     H     0.22710   0.22710   0.01070   0.01267  Uiso   1.00
H8     H     0.53510   0.01070   0.22710   0.01267  Uiso   1.00
H9     H     0.22710   0.53510   0.01070   0.01267  Uiso   1.00
H10    H     0.01070   0.22710   0.22710   0.01267  Uiso   1.00
H11    H     0.22710   0.01070   0.53510   0.01267  Uiso   1.00
H12    H     0.53510   0.22710   0.22710   0.01267  Uiso   1.00
H13    H     0.98930   0.77290   0.77290   0.01267  Uiso   1.00
H14    H     0.77290   0.98930   0.46490   0.01267  Uiso   1.00
H15    H     0.46490   0.77290   0.77290   0.01267  Uiso   1.00
H16    H     0.77290   0.46490   0.98930   0.01267  Uiso   1.00
H17    H     0.77290   0.77290   0.46490   0.01267  Uiso   1.00
H18    H     0.46490   0.98930   0.77290   0.01267  Uiso   1.00
H19    H     0.77290   0.77290   0.98930   0.01267  Uiso   1.00
H20    H     0.98930   0.46490   0.77290   0.01267  Uiso   1.00
H21    H     0.46490   0.77290   0.98930   0.01267  Uiso   1.00
H22    H     0.77290   0.98930   0.77290   0.01267  Uiso   1.00
H23    H     0.98930   0.77290   0.46490   0.01267  Uiso   1.00
H24    H     0.77290   0.46490   0.77290   0.01267  Uiso   1.00
C1     C     0.33694   0.06810   0.06810   0.01267  Uiso   1.00
C2     C     0.24220   0.11180   0.11180   0.01267  Uiso   1.00
C3     C     0.06810   0.33694   0.52686   0.01267  Uiso   1.00
C4     C     0.11180   0.24220   0.53420   0.01267  Uiso   1.00
C5     C     0.06810   0.52686   0.33694   0.01267  Uiso   1.00
C6     C     0.11180   0.53420   0.24220   0.01267  Uiso   1.00
C7     C     0.52686   0.06810   0.06810   0.01267  Uiso   1.00
C8     C     0.53420   0.11180   0.11180   0.01267  Uiso   1.00
C9     C     0.33694   0.06810   0.52686   0.01267  Uiso   1.00
C10    C     0.24220   0.11180   0.53420   0.01267  Uiso   1.00
C11    C     0.06810   0.52686   0.06810   0.01267  Uiso   1.00
C12    C     0.11180   0.53420   0.11180   0.01267  Uiso   1.00
C13    C     0.06810   0.33694   0.06810   0.01267  Uiso   1.00
C14    C     0.11180   0.24220   0.11180   0.01267  Uiso   1.00
C15    C     0.52686   0.06810   0.33694   0.01267  Uiso   1.00
C16    C     0.53420   0.11180   0.24220   0.01267  Uiso   1.00
C17    C     0.33694   0.52686   0.06810   0.01267  Uiso   1.00
C18    C     0.24220   0.53420   0.11180   0.01267  Uiso   1.00
C19    C     0.06810   0.06810   0.33694   0.01267  Uiso   1.00
C20    C     0.11180   0.11180   0.24220   0.01267  Uiso   1.00
C21    C     0.06810   0.06810   0.52686   0.01267  Uiso   1.00
C22    C     0.11180   0.11180   0.53420   0.01267  Uiso   1.00
C23    C     0.52686   0.33694   0.06810   0.01267  Uiso   1.00
C24    C     0.53420   0.24220   0.11180   0.01267  Uiso   1.00
C25    C     0.93190   0.66306   0.93190   0.01267  Uiso   1.00
C26    C     0.88820   0.75780   0.88820   0.01267  Uiso   1.00
C27    C     0.66306   0.93190   0.47314   0.01267  Uiso   1.00
C28    C     0.75780   0.88820   0.46580   0.01267  Uiso   1.00
C29    C     0.47314   0.93190   0.66306   0.01267  Uiso   1.00
C30    C     0.46580   0.88820   0.75780   0.01267  Uiso   1.00
C31    C     0.93190   0.47314   0.93190   0.01267  Uiso   1.00
C32    C     0.88820   0.46580   0.88820   0.01267  Uiso   1.00
C33    C     0.93190   0.66306   0.47314   0.01267  Uiso   1.00
C34    C     0.88820   0.75780   0.46580   0.01267  Uiso   1.00
C35    C     0.47314   0.93190   0.93190   0.01267  Uiso   1.00
C36    C     0.46580   0.88820   0.88820   0.01267  Uiso   1.00
C37    C     0.66306   0.93190   0.93190   0.01267  Uiso   1.00
C38    C     0.75780   0.88820   0.88820   0.01267  Uiso   1.00
C39    C     0.93190   0.47314   0.66306   0.01267  Uiso   1.00
C40    C     0.88820   0.46580   0.75780   0.01267  Uiso   1.00
C41    C     0.47314   0.66306   0.93190   0.01267  Uiso   1.00
C42    C     0.46580   0.75780   0.88820   0.01267  Uiso   1.00
C43    C     0.93190   0.93190   0.66306   0.01267  Uiso   1.00
C44    C     0.88820   0.88820   0.75780   0.01267  Uiso   1.00
C45    C     0.93190   0.93190   0.47314   0.01267  Uiso   1.00
C46    C     0.88820   0.88820   0.46580   0.01267  Uiso   1.00
C47    C     0.66306   0.47314   0.93190   0.01267  Uiso   1.00
C48    C     0.75780   0.46580   0.88820   0.01267  Uiso   1.00
C49    C     0.19840   0.06860   0.19840   0.01267  Uiso   1.00
C50    C     0.06860   0.19840   0.53460   0.01267  Uiso   1.00
C51    C     0.19840   0.53460   0.19840   0.01267  Uiso   1.00
C52    C     0.53460   0.19840   0.06860   0.01267  Uiso   1.00
C53    C     0.19840   0.19840   0.53460   0.01267  Uiso   1.00
C54    C     0.06860   0.53460   0.19840   0.01267  Uiso   1.00
C55    C     0.19840   0.19840   0.06860   0.01267  Uiso   1.00
C56    C     0.53460   0.06860   0.19840   0.01267  Uiso   1.00
C57    C     0.19840   0.53460   0.06860   0.01267  Uiso   1.00
C58    C     0.06860   0.19840   0.19840   0.01267  Uiso   1.00
C59    C     0.19840   0.06860   0.53460   0.01267  Uiso   1.00
C60    C     0.53460   0.19840   0.19840   0.01267  Uiso   1.00
C61    C     0.93140   0.80160   0.80160   0.01267  Uiso   1.00
C62    C     0.80160   0.93140   0.46540   0.01267  Uiso   1.00
C63    C     0.46540   0.80160   0.80160   0.01267  Uiso   1.00
C64    C     0.80160   0.46540   0.93140   0.01267  Uiso   1.00
C65    C     0.80160   0.80160   0.46540   0.01267  Uiso   1.00
C66    C     0.46540   0.93140   0.80160   0.01267  Uiso   1.00
C67    C     0.80160   0.80160   0.93140   0.01267  Uiso   1.00
C68    C     0.93140   0.46540   0.80160   0.01267  Uiso   1.00
C69    C     0.46540   0.80160   0.93140   0.01267  Uiso   1.00
C70    C     0.80160   0.93140   0.80160   0.01267  Uiso   1.00
C71    C     0.93140   0.80160   0.46540   0.01267  Uiso   1.00
C72    C     0.80160   0.46540   0.80160   0.01267  Uiso   1.00
O1     O     0.37397   0.11277   0.99199   0.01267  Uiso   1.00
O2     O     0.11277   0.37397   0.52127   0.01267  Uiso   1.00
O3     O     0.99199   0.52127   0.37397   0.01267  Uiso   1.00
O4     O     0.52127   0.99199   0.11277   0.01267  Uiso   1.00
O5     O     0.37397   0.99199   0.52127   0.01267  Uiso   1.00
O6     O     0.11277   0.52127   0.99199   0.01267  Uiso   1.00
O7     O     0.99199   0.37397   0.11277   0.01267  Uiso   1.00
O8     O     0.52127   0.11277   0.37397   0.01267  Uiso   1.00
O9     O     0.37397   0.52127   0.11277   0.01267  Uiso   1.00
O10    O     0.11277   0.99199   0.37397   0.01267  Uiso   1.00
O11    O     0.99199   0.11277   0.52127   0.01267  Uiso   1.00
O12    O     0.52127   0.37397   0.99199   0.01267  Uiso   1.00
O13    O     0.88723   0.62603   0.00801   0.01267  Uiso   1.00
O14    O     0.62603   0.88723   0.47873   0.01267  Uiso   1.00
O15    O     0.47873   0.00801   0.62603   0.01267  Uiso   1.00
O16    O     0.00801   0.47873   0.88723   0.01267  Uiso   1.00
O17    O     0.00801   0.62603   0.47873   0.01267  Uiso   1.00
O18    O     0.47873   0.88723   0.00801   0.01267  Uiso   1.00
O19    O     0.62603   0.00801   0.88723   0.01267  Uiso   1.00
O20    O     0.88723   0.47873   0.62603   0.01267  Uiso   1.00
O21    O     0.47873   0.62603   0.88723   0.01267  Uiso   1.00
O22    O     0.00801   0.88723   0.62603   0.01267  Uiso   1.00
O23    O     0.88723   0.00801   0.47873   0.01267  Uiso   1.00
O24    O     0.62603   0.47873   0.00801   0.01267  Uiso   1.00
O25    O     0.62603   0.88723   0.00801   0.01267  Uiso   1.00
O26    O     0.88723   0.62603   0.47873   0.01267  Uiso   1.00
O27    O     0.00801   0.47873   0.62603   0.01267  Uiso   1.00
O28    O     0.47873   0.00801   0.88723   0.01267  Uiso   1.00
O29    O     0.62603   0.00801   0.47873   0.01267  Uiso   1.00
O30    O     0.88723   0.47873   0.00801   0.01267  Uiso   1.00
O31    O     0.00801   0.62603   0.88723   0.01267  Uiso   1.00
O32    O     0.47873   0.88723   0.62603   0.01267  Uiso   1.00
O33    O     0.62603   0.47873   0.88723   0.01267  Uiso   1.00
O34    O     0.88723   0.00801   0.62603   0.01267  Uiso   1.00
O35    O     0.00801   0.88723   0.47873   0.01267  Uiso   1.00
O36    O     0.47873   0.62603   0.00801   0.01267  Uiso   1.00
O37    O     0.11277   0.37397   0.99199   0.01267  Uiso   1.00
O38    O     0.37397   0.11277   0.52127   0.01267  Uiso   1.00
O39    O     0.52127   0.99199   0.37397   0.01267  Uiso   1.00
O40    O     0.99199   0.52127   0.11277   0.01267  Uiso   1.00
O41    O     0.99199   0.37397   0.52127   0.01267  Uiso   1.00
O42    O     0.52127   0.11277   0.99199   0.01267  Uiso   1.00
O44    O     0.11277   0.52127   0.37397   0.01267  Uiso   1.00
O45    O     0.52127   0.37397   0.11277   0.01267  Uiso   1.00
O46    O     0.99199   0.11277   0.37397   0.01267  Uiso   1.00
O47    O     0.11277   0.99199   0.52127   0.01267  Uiso   1.00
O48    O     0.37397   0.52127   0.99199   0.01267  Uiso   1.00
O52    O     0.50000   0.81180   0.18820   0.01267  Uiso   1.00
loop_
_geom_bond_atom_site_label_1
_geom_bond_atom_site_label_2
_geom_bond_distance
_geom_bond_site_symmetry_2
_ccdc_geom_bond_type
Cu1    O1      1.952   .     S
Cu1    O19     1.952   .     S
Cu1    O28     1.952   .     S
Cu1    O42     1.952   .     S
Cu1    Cu4     2.614   1_546 S
Cu2    O2      1.952   .     S
Cu2    O17     1.952   .     S
Cu2    O27     1.952   .     S
Cu2    O44     1.952   .     S
Cu2    Cu3     2.614   1_455 S
Cu3    O3      1.952   .     S
Cu3    O20     1.952   .     S
Cu3    O26     1.952   .     S
Cu3    O41     1.952   .     S
Cu3    Cu2     2.614   1_655 S
Cu4    O4      1.952   .     S
Cu4    O18     1.952   .     S
Cu4    O25     1.952   .     S
Cu4    O52     2.193   .     S
Cu4    Cu1     2.614   1_564 S
Cu5    O5      1.952   .     S
Cu5    O14     1.952   .     S
Cu5    O32     1.952   .     S
Cu5    O39     1.952   .     S
Cu5    Cu8     2.614   1_565 S
Cu6    O6      1.952   .     S
Cu6    O16     1.952   .     S
Cu6    O31     1.952   .     S
Cu6    O37     1.952   .     S
Cu6    Cu7     2.614   1_456 S
Cu7    O7      1.952   .     S
Cu7    O13     1.952   .     S
Cu7    O30     1.952   .     S
Cu7    O40     1.952   .     S
Cu7    Cu6     2.614   1_654 S
Cu8    O8      1.952   .     S
Cu8    O15     1.952   .     S
Cu8    O29     1.952   .     S
Cu8    O38     1.952   .     S
Cu8    Cu5     2.614   1_545 S
Cu9    O9      1.952   .     S
Cu9    O24     1.952   .     S
Cu9    O36     1.952   .     S
Cu9    O45     1.952   .     S
Cu9    Cu12    2.614   1_554 S
Cu10   O10     1.952   .     S
Cu10   O22     1.952   .     S
Cu10   O35     1.952   .     S
Cu10   O47     1.952   .     S
Cu10   Cu11    2.614   1_465 S
Cu11   O11     1.952   .     S
Cu11   O23     1.952   .     S
Cu11   O34     1.952   .     S
Cu11   O46     1.952   .     S
Cu11   Cu10    2.614   1_645 S
Cu12   O12     1.952   .     S
Cu12   O21     1.952   .     S
Cu12   O33     1.952   .     S
Cu12   O48     1.952   .     S
Cu12   Cu9     2.614   1_556 S
H1     C49     0.930   .     S
H2     C50     0.930   .     S
H3     C51     0.930   .     S
H4     C52     0.930   .     S
H5     C53     0.930   .     S
H6     C54     0.930   .     S
H7     C55     0.930   .     S
H8     C56     0.930   .     S
H9     C57     0.930   .     S
H10    C58     0.930   .     S
H11    C59     0.930   .     S
H12    C60     0.930   .     S
H13    C61     0.930   .     S
H14    C62     0.930   .     S
H15    C63     0.930   .     S
H16    C64     0.930   .     S
H17    C65     0.930   .     S
H18    C66     0.930   .     S
H19    C67     0.930   .     S
H20    C68     0.930   .     S
H21    C69     0.930   .     S
H22    C70     0.930   .     S
H23    C71     0.930   .     S
H24    C72     0.930   .     S
C1     C2      1.491   .     S
C1     O1      1.261   1_554 S
C2     C49     1.397   .     A
C2     C55     1.397   .     A
C3     C4      1.491   .     S
C3     O2      1.261   .     A
C3     O41     1.261   1_455 S
C4     C50     1.397   .     A
C4     C53     1.397   .     A
C5     C6      1.491   .     S
C5     O44     1.261   .     A
C5     O3      1.261   1_455 S
C6     C51     1.397   .     A
C6     C54     1.397   .     A
C7     C8      1.491   .     S
C7     O4      1.261   1_545 S
C7     O42     1.261   1_554 S
C8     C52     1.397   .     A
C8     C56     1.397   .     A
C9     C10     1.491   .     S
C9     O38     1.261   .     A
C9     O5      1.261   1_545 S
C10    C53     1.397   .     A
C10    C59     1.397   .     A
C11    C12     1.491   .     S
C11    O6      1.261   1_554 S
C11    O40     1.261   1_455 S
C12    C54     1.397   .     A
C12    C57     1.397   .     A
C13    C14     1.491   .     S
C13    O7      1.261   1_455 S
C13    O37     1.261   1_554 S
C14    C55     1.397   .     A
C14    C58     1.397   .     A
C15    C16     1.491   .     S
C15    O8      1.261   .     A
C15    O39     1.261   1_545 S
C16    C56     1.397   .     A
C16    C60     1.397   .     A
C17    C18     1.491   .     S
C17    O9      1.261   .     A
C17    O48     1.261   1_554 S
C18    C51     1.397   .     A
C18    C57     1.397   .     A
C19    C20     1.491   .     S
C19    O10     1.261   1_545 S
C19    O46     1.261   1_455 S
C20    C49     1.397   .     A
C20    C58     1.397   .     A
C21    C22     1.491   .     S
C21    O11     1.261   1_455 S
C21    O47     1.261   1_545 S
C22    C50     1.397   .     A
C22    C59     1.397   .     A
C23    C24     1.491   .     S
C23    O45     1.261   .     A
C23    O12     1.261   1_554 S
C24    C52     1.397   .     A
C24    C60     1.397   .     A
C25    C26     1.491   .     S
C25    O13     1.261   1_556 S
C25    O31     1.261   1_655 S
C26    C61     1.397   .     A
C26    C67     1.397   .     A
C27    C28     1.491   .     S
C27    O14     1.261   .     A
C27    O29     1.261   1_565 S
C28    C62     1.397   .     A
C28    C65     1.397   .     A
C29    C30     1.491   .     S
C29    O32     1.261   .     A
C29    O15     1.261   1_565 S
C30    C63     1.397   .     A
C30    C66     1.397   .     A
C31    C32     1.491   .     S
C31    O16     1.261   1_655 S
C31    O30     1.261   1_556 S
C32    C64     1.397   .     A
C32    C68     1.397   .     A
C33    C34     1.491   .     S
C33    O26     1.261   .     A
C33    O17     1.261   1_655 S
C34    C65     1.397   .     A
C34    C71     1.397   .     A
C35    C36     1.491   .     S
C35    O18     1.261   1_556 S
C35    O28     1.261   1_565 S
C36    C66     1.397   .     A
C36    C69     1.397   .     A
C37    C38     1.491   .     S
C37    O19     1.261   1_565 S
C37    O25     1.261   1_556 S
C38    C67     1.397   .     A
C38    C70     1.397   .     A
C39    C40     1.491   .     S
C39    O20     1.261   .     A
C39    O27     1.261   1_655 S
C40    C68     1.397   .     A
C40    C72     1.397   .     A
C41    C42     1.491   .     S
C41    O21     1.261   .     A
C41    O36     1.261   1_556 S
C42    C63     1.397   .     A
C42    C69     1.397   .     A
C43    C44     1.491   .     S
C43    O22     1.261   1_655 S
C43    O34     1.261   1_565 S
C44    C61     1.397   .     A
C44    C70     1.397   .     A
C45    C46     1.491   .     S
C45    O23     1.261   1_565 S
C45    O35     1.261   1_655 S
C46    C62     1.397   .     A
C46    C71     1.397   .     A
C47    C48     1.491   .     S
C47    O33     1.261   .     A
C47    O24     1.261   1_556 S
C48    C64     1.397   .     A
C48    C72     1.397   .     A
O1     C1      1.261   1_556 S
O3     C5      1.261   1_655 S
O4     C7      1.261   1_565 S
O5     C9      1.261   1_565 S
O6     C11     1.261   1_556 S
O7     C13     1.261   1_655 S
O10    C19     1.261   1_565 S
O11    C21     1.261   1_655 S
O12    C23     1.261   1_556 S
O13    C25     1.261   1_554 S
O15    C29     1.261   1_545 S
O16    C31     1.261   1_455 S
O17    C33     1.261   1_455 S
O18    C35     1.261   1_554 S
O19    C37     1.261   1_545 S
O22    C43     1.261   1_455 S
O23    C45     1.261   1_545 S
O24    C47     1.261   1_554 S
O25    C37     1.261   1_554 S
O27    C39     1.261   1_455 S
O28    C35     1.261   1_545 S
O29    C27     1.261   1_545 S
O30    C31     1.261   1_554 S
O31    C25     1.261   1_455 S
O34    C43     1.261   1_545 S
O35    C45     1.261   1_455 S
O36    C41     1.261   1_554 S
O37    C13     1.261   1_556 S
O39    C15     1.261   1_565 S
O40    C11     1.261   1_655 S
O41    C3      1.261   1_655 S
O42    C7      1.261   1_556 S
O46    C19     1.261   1_655 S
O47    C21     1.261   1_565 S
O48    C17     1.261   1_556 S
