data_SONTAR_clean5b
_audit_creation_date              2014-07-02
_audit_creation_method            'Materials Studio'
_symmetry_space_group_name_H-M    'P1'
_symmetry_Int_Tables_number       1
_symmetry_cell_setting            triclinic
loop_
_symmetry_equiv_pos_as_xyz
  x,y,z
_cell_length_a                    10.4951
_cell_length_b                    11.3396
_cell_length_c                    12.7954
_cell_angle_alpha                 100.7300
_cell_angle_beta                  110.1420
_cell_angle_gamma                 99.7320
loop_
_atom_site_label
_atom_site_type_symbol
_atom_site_fract_x
_atom_site_fract_y
_atom_site_fract_z
_atom_site_U_iso_or_equiv
_atom_site_adp_type
_atom_site_occupancy
Pr1    Pr    0.61101   0.57328   0.63661   0.01267  Uiso   1.00
Pr2    Pr    0.40060   0.44496   0.34263   0.01267  Uiso   1.00
H3     H     0.90966   0.64500   0.59562   0.01267  Uiso   1.00
H4     H     0.53805   0.88904   0.34098   0.01267  Uiso   1.00
H5     H     0.10046   0.80161   0.96413   0.01267  Uiso   1.00
H6     H     0.36267   0.81398   0.63298   0.01267  Uiso   1.00
H7     H     0.41785   0.96218   0.73430   0.01267  Uiso   1.00
H8     H     0.63947  -0.11564  -0.12316   0.01267  Uiso   1.00
H9     H     0.67849   1.03157   0.97503   0.01267  Uiso   1.00
H10    H     0.09073   0.35530   0.37794   0.01267  Uiso   1.00
H11    H     0.48285   0.14666   0.67487   0.01267  Uiso   1.00
H12    H     0.91494   0.14787   0.09826   0.01267  Uiso   1.00
H13    H     0.27336   0.66409   0.75352   0.01267  Uiso   1.00
H14    H     0.14387   0.74935   0.73186   0.01267  Uiso   1.00
C15    C     0.69614   0.47976   0.41053   0.01267  Uiso   1.00
C16    C     0.85248   0.49025   0.44967   0.01267  Uiso   1.00
C17    C     0.90754   0.40887   0.38980   0.01267  Uiso   1.00
C18    C     0.94871   0.58123   0.54837   0.01267  Uiso   1.00
C19    C     0.49127   0.75608   0.48619   0.01267  Uiso   1.00
C20    C     0.48341   0.88599   0.48864   0.01267  Uiso   1.00
C21    C     0.46792   0.96119   0.58380   0.01267  Uiso   1.00
C22    C     0.52271   0.94340   0.41273   0.01267  Uiso   1.00
C23    C     0.81132   0.74278   0.84687   0.01267  Uiso   1.00
C24    C     0.90909   0.85804   0.94712   0.01267  Uiso   1.00
C25    C     0.86034   0.96047   0.98862   0.01267  Uiso   1.00
C26    C     0.05673   0.87466   0.99383   0.01267  Uiso   1.00
C27    C     0.30879   0.52468   0.56090   0.01267  Uiso   1.00
C28    C     0.15131   0.51082   0.52635   0.01267  Uiso   1.00
C29    C     0.09487   0.59033   0.58938   0.01267  Uiso   1.00
C30    C     0.05379   0.41943   0.42708   0.01267  Uiso   1.00
C31    C     0.53794   0.27798   0.53276   0.01267  Uiso   1.00
C32    C     0.53848   0.14725   0.52845   0.01267  Uiso   1.00
C33    C     0.54850   0.07241   0.43181   0.01267  Uiso   1.00
C34    C     0.49841   0.09073   0.60397   0.01267  Uiso   1.00
C35    C     0.20589   0.21135   0.20187   0.01267  Uiso   1.00
C36    C     0.10352   0.08742   0.11800   0.01267  Uiso   1.00
C37    C     0.15081  -0.01514   0.07819   0.01267  Uiso   1.00
C38    C     0.95637   0.07172   0.07129   0.01267  Uiso   1.00
N39    N     0.41648   0.90700   0.65863   0.01267  Uiso   1.00
N40    N     0.71400   0.95736  -0.05628   0.01267  Uiso   1.00
N41    N     0.18174   0.67850   0.69768   0.01267  Uiso   1.00
O42    O     0.62913   0.55198   0.46092   0.01267  Uiso   1.00
O43    O     0.60814   0.40985   0.32234   0.01267  Uiso   1.00
O44    O     0.56576   0.74386   0.58457   0.01267  Uiso   1.00
O45    O     0.42901   0.66546   0.39131   0.01267  Uiso   1.00
O46    O     0.83528   0.70308   0.75792   0.01267  Uiso   1.00
O47    O     0.69115   0.68087   0.83490   0.01267  Uiso   1.00
O48    O     0.37792   0.44914   0.51668   0.01267  Uiso   1.00
O49    O     0.39704   0.60505   0.64000   0.01267  Uiso   1.00
O50    O     0.45779   0.29272   0.43587   0.01267  Uiso   1.00
O51    O     0.61068   0.36709   0.62701   0.01267  Uiso   1.00
O52    O     0.17736   0.31641   0.21186   0.01267  Uiso   1.00
O53    O     0.33250   0.22503   0.26879   0.01267  Uiso   1.00
H54    H     0.83719   0.33672   0.31329   0.00000  Uiso   1.00
H55    H     0.57584   0.11435   0.37040   0.00000  Uiso   1.00
H56    H     0.26228  -0.00882   0.10972   0.00000  Uiso   1.00
loop_
_geom_bond_atom_site_label_1
_geom_bond_atom_site_label_2
_geom_bond_distance
_geom_bond_site_symmetry_2
_ccdc_geom_bond_type
Pr1    O42     2.293   .     S
Pr1    O44     2.232   .     S
Pr1    O46     2.362   .     S
Pr1    O47     2.380   .     S
Pr1    O48     2.401   .     S
Pr1    O49     2.347   .     S
Pr1    O51     2.318   .     S
Pr2    O42     2.313   .     S
Pr2    O43     2.369   .     S
Pr2    O45     2.402   .     S
Pr2    O48     2.313   .     S
Pr2    O50     2.321   .     S
Pr2    O52     2.377   .     S
Pr2    O53     2.383   .     S
H3     C18     1.079   .     S
H4     C22     1.083   .     S
H5     C26     1.083   .     S
H6     N39     1.040   .     S
H7     N39     1.044   .     S
H8     N40     1.042   1_545 S
H9     N40     1.044   1_556 S
H10    C30     1.080   .     S
H11    C34     1.084   .     S
H12    C38     1.083   .     S
H13    N41     1.042   .     S
H14    N41     1.045   .     S
C15    C16     1.518   .     S
C15    O42     1.375   .     S
C15    O43     1.207   .     D
C16    C17     1.412   .     A
C16    C18     1.401   .     A
C17    H54     1.083   .     S
C17    C30     1.418   1_655 S
C18    C29     1.418   1_655 S
C19    C20     1.484   .     S
C19    O44     1.280   .     A
C19    O45     1.311   .     A
C20    C21     1.426   .     A
C20    C22     1.399   .     A
C21    N39     1.431   .     S
C21    C34     1.403   1_565 S
C22    C33     1.400   1_565 S
C23    C24     1.556   .     S
C23    O46     1.267   .     A
C23    O47     1.278   .     A
C24    C25     1.432   .     A
C24    C26     1.420   1_655 S
C25    C38     1.437   1_566 S
C25    N40     1.434   1_556 S
C26    C24     1.420   1_455 S
C26    C37     1.431   1_566 S
C27    C28     1.528   .     S
C27    O48     1.376   .     S
C27    O49     1.199   .     D
C28    C29     1.433   .     A
C28    C30     1.411   .     A
C29    N41     1.434   .     S
C29    C18     1.418   1_455 S
C30    C17     1.418   1_455 S
C31    C32     1.474   .     S
C31    O50     1.296   .     A
C31    O51     1.308   .     A
C32    C33     1.410   .     A
C32    C34     1.393   .     A
C33    H55     1.084   .     S
C33    C22     1.400   1_545 S
C34    C21     1.403   1_545 S
C35    C36     1.554   .     S
C35    O52     1.271   .     A
C35    O53     1.273   .     A
C36    C37     1.417   .     A
C36    C38     1.416   1_455 S
C37    H56     1.083   .     S
C37    C26     1.431   1_544 S
C38    C25     1.437   1_544 S
C38    C36     1.416   1_655 S
N40    H8      1.042   1_565 S
N40    H9      1.044   1_554 S
N40    C25     1.434   1_554 S
