data_image0
_cell_length_a       10.5059
_cell_length_b       11.1476
_cell_length_c       12.7931
_cell_angle_alpha    100.955
_cell_angle_beta     110.45
_cell_angle_gamma    99.939

_symmetry_space_group_name_H-M    "P 1"
_symmetry_int_tables_number       1

loop_
  _symmetry_equiv_pos_as_xyz
  'x, y, z'

loop_
  _atom_site_label
  _atom_site_occupancy
  _atom_site_fract_x
  _atom_site_fract_y
  _atom_site_fract_z
  _atom_site_thermal_displace_type
  _atom_site_B_iso_or_equiv
  _atom_site_type_symbol
  Dy1      1.0000 0.39328  0.95091  0.82415  Biso   1.000  Dy
  O1       1.0000 0.34180  0.99440  0.98570  Biso   1.000  O
  O2       1.0000 0.38090  0.05840  0.16990  Biso   1.000  O
  O3       1.0000 0.43260  0.78030  0.90340  Biso   1.000  O
  O4       1.0000 0.50080  0.83070  0.09610  Biso   1.000  O
  O5       1.0000 0.16770  0.79300  0.73790  Biso   1.000  O
  O6       1.0000 0.31830  0.76500  0.65950  Biso   1.000  O
  C1       1.0000 0.29810  0.02280  0.06510  Biso   1.000  C
  C2       1.0000 0.14430  0.01260  0.03260  Biso   1.000  C
  C3       1.0000 0.09320  0.05770  0.11580  Biso   1.000  C
  C4       1.0000 0.05110  0.95490  0.91850  Biso   1.000  C
  H1       1.0000 0.08560  0.92410  0.86390  Biso   1.000  H
  C5       1.0000 0.47110  0.75450  0.99800  Biso   1.000  C
  C6       1.0000 0.48390  0.62160  0.99800  Biso   1.000  C
  C7       1.0000 0.48600  0.54070  0.90050  Biso   1.000  C
  C8       1.0000 0.49740  0.58000  0.09530  Biso   1.000  C
  H2       1.0000 0.49550  0.63380  0.15960  Biso   1.000  H
  C9       1.0000 0.20070  0.72940  0.66500  Biso   1.000  C
  C10      1.0000 0.09760  0.61020  0.58040  Biso   1.000  C
  C11      1.0000 0.13630  0.53130  0.50480  Biso   1.000  C
  C12      1.0000 0.96140  0.57910  0.57540  Biso   1.000  C
  N1       1.0000 0.17580  0.11630  0.22480  Biso   1.000  N
  N2       1.0000 0.27900  0.53400  0.52160  Biso   1.000  N
  N3       1.0000 0.90500  0.65300  0.64300  Biso   1.000  N
  Dy2      1.0000 0.60672  0.04909  0.17585  Biso   1.000  Dy
  O7       1.0000 0.65820  0.00560  0.01430  Biso   1.000  O
  O8       1.0000 0.61910  0.94160  0.83010  Biso   1.000  O
  O9       1.0000 0.56740  0.21970  0.09660  Biso   1.000  O
  O10      1.0000 0.49920  0.16930  0.90390  Biso   1.000  O
  O11      1.0000 0.83230  0.20700  0.26210  Biso   1.000  O
  O12      1.0000 0.68170  0.23500  0.34050  Biso   1.000  O
  C13      1.0000 0.70190  0.97720  0.93490  Biso   1.000  C
  C14      1.0000 0.85570  0.98740  0.96740  Biso   1.000  C
  C15      1.0000 0.90680  0.94230  0.88420  Biso   1.000  C
  C16      1.0000 0.94890  0.04510  0.08150  Biso   1.000  C
  H3       1.0000 0.91440  0.07590  0.13610  Biso   1.000  H
  C17      1.0000 0.52890  0.24550  0.00200  Biso   1.000  C
  C18      1.0000 0.51610  0.37840  0.00200  Biso   1.000  C
  C19      1.0000 0.51400  0.45930  0.09950  Biso   1.000  C
  C20      1.0000 0.50260  0.42000  0.90470  Biso   1.000  C
  H4       1.0000 0.50450  0.36620  0.84040  Biso   1.000  H
  C21      1.0000 0.79930  0.27060  0.33500  Biso   1.000  C
  C22      1.0000 0.90240  0.38980  0.41960  Biso   1.000  C
  C23      1.0000 0.86370  0.46870  0.49520  Biso   1.000  C
  C24      1.0000 0.03860  0.42090  0.42460  Biso   1.000  C
  N4       1.0000 0.82420  0.88370  0.77520  Biso   1.000  N
  N5       1.0000 0.72100  0.46600  0.47840  Biso   1.000  N
  N6       1.0000 0.09500  0.34700  0.35700  Biso   1.000  N
