data_image0
_cell_length_a       10.539
_cell_length_b       11.218
_cell_length_c       12.842
_cell_angle_alpha    101.472
_cell_angle_beta     110.5
_cell_angle_gamma    99.257

_symmetry_space_group_name_H-M    "P 1"
_symmetry_int_tables_number       1

loop_
  _symmetry_equiv_pos_as_xyz
  'x, y, z'

loop_
  _atom_site_label
  _atom_site_occupancy
  _atom_site_fract_x
  _atom_site_fract_y
  _atom_site_fract_z
  _atom_site_thermal_displace_type
  _atom_site_B_iso_or_equiv
  _atom_site_type_symbol
  Tb1      1.0000 0.39379  0.95009  0.82439  Biso   1.000  Tb
  O1       1.0000 0.65600  0.00310  0.01180  Biso   1.000  O
  O2       1.0000 0.61970  0.93760  0.82760  Biso   1.000  O
  O3       1.0000 0.43120  0.77970  0.90300  Biso   1.000  O
  O4       1.0000 0.50040  0.16920  0.90370  Biso   1.000  O
  O5       1.0000 0.16800  0.79330  0.73630  Biso   1.000  O
  O6       1.0000 0.31750  0.76310  0.65830  Biso   1.000  O
  C1       1.0000 0.70190  0.97410  0.93360  Biso   1.000  C
  C2       1.0000 0.85560  0.98580  0.96660  Biso   1.000  C
  C3       1.0000 0.90750  0.94150  0.88390  Biso   1.000  C
  C4       1.0000 0.94690  0.04340  0.08040  Biso   1.000  C
  H1       1.0000 0.91130  0.07280  0.13460  Biso   1.000  H
  C5       1.0000 0.47030  0.75450  0.99920  Biso   1.000  C
  C6       1.0000 0.48230  0.62170  0.99830  Biso   1.000  C
  C7       1.0000 0.48680  0.54000  0.90000  Biso   1.000  C
  C8       1.0000 0.49680  0.58100  0.09580  Biso   1.000  C
  H2       1.0000 0.49560  0.63530  0.16030  Biso   1.000  H
  C9       1.0000 0.19970  0.72950  0.66450  Biso   1.000  C
  C10      1.0000 0.09760  0.60980  0.58010  Biso   1.000  C
  C11      1.0000 0.13510  0.53080  0.50370  Biso   1.000  C
  C12      1.0000 0.96110  0.57880  0.57610  Biso   1.000  C
  N1       1.0000 0.82770  0.88510  0.77290  Biso   1.000  N
  N2       1.0000 0.27600  0.53200  0.51580  Biso   1.000  N
  N3       1.0000 0.90300  0.65800  0.63800  Biso   1.000  N
  Tb2      1.0000 0.60621  0.04991  0.17561  Biso   1.000  Tb
  O7       1.0000 0.34400  0.99690  0.98820  Biso   1.000  O
  O8       1.0000 0.38030  0.06240  0.17240  Biso   1.000  O
  O9       1.0000 0.56880  0.22030  0.09700  Biso   1.000  O
  O10      1.0000 0.49960  0.83080  0.09630  Biso   1.000  O
  O11      1.0000 0.83200  0.20670  0.26370  Biso   1.000  O
  O12      1.0000 0.68250  0.23690  0.34170  Biso   1.000  O
  C13      1.0000 0.29810  0.02590  0.06640  Biso   1.000  C
  C14      1.0000 0.14440  0.01420  0.03340  Biso   1.000  C
  C15      1.0000 0.09250  0.05850  0.11610  Biso   1.000  C
  C16      1.0000 0.05310  0.95660  0.91960  Biso   1.000  C
  H3       1.0000 0.08870  0.92720  0.86540  Biso   1.000  H
  C17      1.0000 0.52970  0.24550  0.00080  Biso   1.000  C
  C18      1.0000 0.51770  0.37830  0.00170  Biso   1.000  C
  C19      1.0000 0.51320  0.46000  0.10000  Biso   1.000  C
  C20      1.0000 0.50320  0.41900  0.90420  Biso   1.000  C
  H4       1.0000 0.50440  0.36470  0.83970  Biso   1.000  H
  C21      1.0000 0.80030  0.27050  0.33550  Biso   1.000  C
  C22      1.0000 0.90240  0.39020  0.41990  Biso   1.000  C
  C23      1.0000 0.86490  0.46920  0.49630  Biso   1.000  C
  C24      1.0000 0.03890  0.42120  0.42390  Biso   1.000  C
  N4       1.0000 0.17230  0.11490  0.22710  Biso   1.000  N
  N5       1.0000 0.72400  0.46800  0.48420  Biso   1.000  N
  N6       1.0000 0.09700  0.34200  0.36200  Biso   1.000  N
