data_SONVIB_neutral_b
_audit_creation_date              2014-07-02
_audit_creation_method            'Materials Studio'
_symmetry_space_group_name_H-M    'P1'
_symmetry_Int_Tables_number       1
_symmetry_cell_setting            triclinic
loop_
_symmetry_equiv_pos_as_xyz
  x,y,z
_cell_length_a                    18.6138
_cell_length_b                    18.6138
_cell_length_c                    18.6138
_cell_angle_alpha                 60.0000
_cell_angle_beta                  60.0000
_cell_angle_gamma                 60.0000
loop_
_atom_site_label
_atom_site_type_symbol
_atom_site_fract_x
_atom_site_fract_y
_atom_site_fract_z
_atom_site_U_iso_or_equiv
_atom_site_adp_type
_atom_site_occupancy
Cu1    Cu    0.42984   1.00000   0.57016   0.01267  Uiso   1.00
Cu2    Cu    0.00000   0.42984  -0.00000   0.01267  Uiso   1.00
Cu3    Cu    0.57016   0.00000   0.42984   0.01267  Uiso   1.00
Cu4    Cu    0.00000   0.57016   0.00000   0.01267  Uiso   1.00
Cu5    Cu    0.42984   0.57016   0.00000   0.01267  Uiso   1.00
Cu6    Cu    1.00000   0.00000   0.57016   0.01267  Uiso   1.00
Cu7    Cu    0.57016   0.42984   0.00000   0.01267  Uiso   1.00
Cu8    Cu    1.00000   1.00000   0.42984   0.01267  Uiso   1.00
Cu9    Cu    0.42984   1.00000   0.00000   0.01267  Uiso   1.00
Cu10   Cu    0.00000   0.57016   0.42984   0.01267  Uiso   1.00
Cu11   Cu    0.57016   0.00000  -0.00000   0.01267  Uiso   1.00
Cu12   Cu    0.00000   0.42984   0.57016   0.01267  Uiso   1.00
H1     H     0.72810   0.03170   0.51210   0.01267  Uiso   1.00
H2     H     0.03170   0.72810   0.72810   0.01267  Uiso   1.00
H3     H     0.51210   0.72810   0.72810   0.01267  Uiso   1.00
H4     H     0.72810   0.51210   0.03170   0.01267  Uiso   1.00
H5     H     0.72810   0.51210   0.72810   0.01267  Uiso   1.00
H6     H     0.03170   0.72810   0.51210   0.01267  Uiso   1.00
H7     H     0.51210   0.72810   0.03170   0.01267  Uiso   1.00
H8     H     0.72810   0.03170   0.72810   0.01267  Uiso   1.00
H9     H     0.72810   0.72810   0.03170   0.01267  Uiso   1.00
H10    H     0.03170   0.51210   0.72810   0.01267  Uiso   1.00
H11    H     0.51210   0.03170   0.72810   0.01267  Uiso   1.00
H12    H     0.72810   0.72810   0.51210   0.01267  Uiso   1.00
H13    H     0.96830   0.27190   0.48790   0.01267  Uiso   1.00
H14    H     0.27190   0.96830   0.27190   0.01267  Uiso   1.00
H15    H     0.27190   0.48790   0.27190   0.01267  Uiso   1.00
H16    H     0.48790   0.27190   0.96830   0.01267  Uiso   1.00
H17    H     0.48790   0.27190   0.27190   0.01267  Uiso   1.00
H18    H     0.27190   0.96830   0.48790   0.01267  Uiso   1.00
H19    H     0.27190   0.48790   0.96830   0.01267  Uiso   1.00
H20    H     0.96830   0.27190   0.27190   0.01267  Uiso   1.00
H21    H     0.27190   0.27190   0.96830   0.01267  Uiso   1.00
H22    H     0.48790   0.96830   0.27190   0.01267  Uiso   1.00
H23    H     0.96830   0.48790   0.27190   0.01267  Uiso   1.00
H24    H     0.27190   0.27190   0.48790   0.01267  Uiso   1.00
C1     C     0.56910   0.02528   0.56910   0.01267  Uiso   1.00
C2     C     0.61270   0.03228   0.61270   0.01267  Uiso   1.00
C3     C     0.02528   0.56910   0.83652   0.01267  Uiso   1.00
C4     C     0.03228   0.61270   0.74232   0.01267  Uiso   1.00
C5     C     0.56910   0.83652   0.56910   0.01267  Uiso   1.00
C6     C     0.61270   0.74232   0.61270   0.01267  Uiso   1.00
C7     C     0.83652   0.56910   0.02528   0.01267  Uiso   1.00
C8     C     0.74232   0.61270   0.03228   0.01267  Uiso   1.00
C9     C     0.56910   0.56910   0.83652   0.01267  Uiso   1.00
C10    C     0.61270   0.61270   0.74232   0.01267  Uiso   1.00
C11    C     0.02528   0.83652   0.56910   0.01267  Uiso   1.00
C12    C     0.03228   0.74232   0.61270   0.01267  Uiso   1.00
C13    C     0.56910   0.56910   0.02528   0.01267  Uiso   1.00
C14    C     0.61270   0.61270   0.03228   0.01267  Uiso   1.00
C15    C     0.83652   0.02528   0.56910   0.01267  Uiso   1.00
C16    C     0.74232   0.03228   0.61270   0.01267  Uiso   1.00
C17    C     0.56910   0.83652   0.02528   0.01267  Uiso   1.00
C18    C     0.61270   0.74232   0.03228   0.01267  Uiso   1.00
C19    C     0.02528   0.56910   0.56910   0.01267  Uiso   1.00
C20    C     0.03228   0.61270   0.61270   0.01267  Uiso   1.00
C21    C     0.56910   0.02528   0.83652   0.01267  Uiso   1.00
C22    C     0.61270   0.03228   0.74232   0.01267  Uiso   1.00
C23    C     0.83652   0.56910   0.56910   0.01267  Uiso   1.00
C24    C     0.74232   0.61270   0.61270   0.01267  Uiso   1.00
C25    C     0.97472   0.43090   0.43090   0.01267  Uiso   1.00
C26    C     0.96772   0.38730   0.38730   0.01267  Uiso   1.00
C27    C     0.43090   0.97472   0.16348   0.01267  Uiso   1.00
C28    C     0.38730   0.96772   0.25768   0.01267  Uiso   1.00
C29    C     0.16348   0.43090   0.43090   0.01267  Uiso   1.00
C30    C     0.25768   0.38730   0.38730   0.01267  Uiso   1.00
C31    C     0.43090   0.16348   0.97472   0.01267  Uiso   1.00
C32    C     0.38730   0.25768   0.96772   0.01267  Uiso   1.00
C33    C     0.43090   0.43090   0.16348   0.01267  Uiso   1.00
C34    C     0.38730   0.38730   0.25768   0.01267  Uiso   1.00
C35    C     0.16348   0.97472   0.43090   0.01267  Uiso   1.00
C36    C     0.25768   0.96772   0.38730   0.01267  Uiso   1.00
C37    C     0.43090   0.43090   0.97472   0.01267  Uiso   1.00
C38    C     0.38730   0.38730   0.96772   0.01267  Uiso   1.00
C39    C     0.97472   0.16348   0.43090   0.01267  Uiso   1.00
C40    C     0.96772   0.25768   0.38730   0.01267  Uiso   1.00
C41    C     0.16348   0.43090   0.97472   0.01267  Uiso   1.00
C42    C     0.25768   0.38730   0.96772   0.01267  Uiso   1.00
C43    C     0.43090   0.97472   0.43090   0.01267  Uiso   1.00
C44    C     0.38730   0.96772   0.38730   0.01267  Uiso   1.00
C45    C     0.97472   0.43090   0.16348   0.01267  Uiso   1.00
C46    C     0.96772   0.38730   0.25768   0.01267  Uiso   1.00
C47    C     0.43090   0.16348   0.43090   0.01267  Uiso   1.00
C48    C     0.38730   0.25768   0.38730   0.01267  Uiso   1.00
C49    C     0.69920   0.03206   0.56954   0.01267  Uiso   1.00
C50    C     0.03206   0.69920   0.69920   0.01267  Uiso   1.00
C51    C     0.56954   0.69920   0.69920   0.01267  Uiso   1.00
C52    C     0.69920   0.56954   0.03206   0.01267  Uiso   1.00
C53    C     0.69920   0.56954   0.69920   0.01267  Uiso   1.00
C54    C     0.03206   0.69920   0.56954   0.01267  Uiso   1.00
C55    C     0.56954   0.69920   0.03206   0.01267  Uiso   1.00
C56    C     0.69920   0.03206   0.69920   0.01267  Uiso   1.00
C57    C     0.69920   0.69920   0.03206   0.01267  Uiso   1.00
C58    C     0.03206   0.56954   0.69920   0.01267  Uiso   1.00
C59    C     0.56954   0.03206   0.69920   0.01267  Uiso   1.00
C60    C     0.69920   0.69920   0.56954   0.01267  Uiso   1.00
C61    C     0.96794   0.30080   0.43046   0.01267  Uiso   1.00
C62    C     0.30080   0.96794   0.30080   0.01267  Uiso   1.00
C63    C     0.30080   0.43046   0.30080   0.01267  Uiso   1.00
C64    C     0.43046   0.30080   0.96794   0.01267  Uiso   1.00
C65    C     0.43046   0.30080   0.30080   0.01267  Uiso   1.00
C66    C     0.30080   0.96794   0.43046   0.01267  Uiso   1.00
C67    C     0.30080   0.43046   0.96794   0.01267  Uiso   1.00
C68    C     0.96794   0.30080   0.30080   0.01267  Uiso   1.00
C69    C     0.30080   0.30080   0.96794   0.01267  Uiso   1.00
C70    C     0.43046   0.96794   0.30080   0.01267  Uiso   1.00
C71    C     0.96794   0.43046   0.30080   0.01267  Uiso   1.00
C72    C     0.30080   0.30080   0.43046   0.01267  Uiso   1.00
O1     O     0.49246   0.02118   0.61244   0.01267  Uiso   1.00
O2     O     0.02118   0.49246   0.87392   0.01267  Uiso   1.00
O3     O     0.61244   0.87392   0.49246   0.01267  Uiso   1.00
O4     O     0.87392   0.61244   0.02118   0.01267  Uiso   1.00
O5     O     0.49246   0.61244   0.87392   0.01267  Uiso   1.00
O6     O     0.02118   0.87392   0.61244   0.01267  Uiso   1.00
O7     O     0.61244   0.49246   0.02118   0.01267  Uiso   1.00
O8     O     0.87392   0.02118   0.49246   0.01267  Uiso   1.00
O9     O     0.49246   0.87392   0.02118   0.01267  Uiso   1.00
O10    O     0.02118   0.61244   0.49246   0.01267  Uiso   1.00
O11    O     0.61244   0.02118   0.87392   0.01267  Uiso   1.00
O12    O     0.87392   0.49246   0.61244   0.01267  Uiso   1.00
O13    O     0.97882   0.50754   0.38756   0.01267  Uiso   1.00
O14    O     0.50754   0.97882   0.12608   0.01267  Uiso   1.00
O15    O     0.12608   0.38756   0.50754   0.01267  Uiso   1.00
O16    O     0.38756   0.12608   0.97882   0.01267  Uiso   1.00
O17    O     0.38756   0.50754   0.12608   0.01267  Uiso   1.00
O18    O     0.12608   0.97882   0.38756   0.01267  Uiso   1.00
O19    O     0.50754   0.38756   0.97882   0.01267  Uiso   1.00
O20    O     0.97882   0.12608   0.50754   0.01267  Uiso   1.00
O21    O     0.12608   0.50754   0.97882   0.01267  Uiso   1.00
O22    O     0.38756   0.97882   0.50754   0.01267  Uiso   1.00
O23    O     0.97882   0.38756   0.12608   0.01267  Uiso   1.00
O24    O     0.50754   0.12608   0.38756   0.01267  Uiso   1.00
O25    O     0.50754   0.97882   0.38756   0.01267  Uiso   1.00
O26    O     0.97882   0.50754   0.12608   0.01267  Uiso   1.00
O27    O     0.38756   0.12608   0.50754   0.01267  Uiso   1.00
O28    O     0.12608   0.38756   0.97882   0.01267  Uiso   1.00
O29    O     0.50754   0.38756   0.12608   0.01267  Uiso   1.00
O30    O     0.97882   0.12608   0.38756   0.01267  Uiso   1.00
O31    O     0.38756   0.50754   0.97882   0.01267  Uiso   1.00
O32    O     0.12608   0.97882   0.50754   0.01267  Uiso   1.00
O33    O     0.50754   0.12608   0.97882   0.01267  Uiso   1.00
O34    O     0.97882   0.38756   0.50754   0.01267  Uiso   1.00
O35    O     0.38756   0.97882   0.12608   0.01267  Uiso   1.00
O36    O     0.12608   0.50754   0.38756   0.01267  Uiso   1.00
O37    O     0.02118   0.49246   0.61244   0.01267  Uiso   1.00
O38    O     0.49246   0.02118   0.87392   0.01267  Uiso   1.00
O39    O     0.87392   0.61244   0.49246   0.01267  Uiso   1.00
O40    O     0.61244   0.87392   0.02118   0.01267  Uiso   1.00
O41    O     0.61244   0.49246   0.87392   0.01267  Uiso   1.00
O42    O     0.87392   0.02118   0.61244   0.01267  Uiso   1.00
O43    O     0.49246   0.61244   0.02118   0.01267  Uiso   1.00
O44    O     0.02118   0.87392   0.49246   0.01267  Uiso   1.00
O45    O     0.87392   0.49246   0.02118   0.01267  Uiso   1.00
O46    O     0.61244   0.02118   0.49246   0.01267  Uiso   1.00
O47    O     0.02118   0.61244   0.87392   0.01267  Uiso   1.00
O48    O     0.49246   0.87392   0.61244   0.01267  Uiso   1.00
loop_
_geom_bond_atom_site_label_1
_geom_bond_atom_site_label_2
_geom_bond_distance
_geom_bond_site_symmetry_2
_ccdc_geom_bond_type
Cu1    O22     1.955   .     S
Cu1    O48     1.955   .     S
Cu1    Cu3     2.612   1_565 S
Cu1    O1      1.955   1_565 S
Cu1    O27     1.955   1_565 S
Cu2    Cu4     2.612   .     S
Cu2    O2      1.955   1_554 S
Cu2    O23     1.955   1_455 S
Cu2    O28     1.955   1_554 S
Cu2    O45     1.955   1_455 S
Cu3    O24     1.955   .     S
Cu3    O46     1.955   .     S
Cu3    Cu1     2.612   1_545 S
Cu3    O3      1.955   1_545 S
Cu3    O25     1.955   1_545 S
Cu4    O4      1.955   1_455 S
Cu4    O21     1.955   1_554 S
Cu4    O26     1.955   1_455 S
Cu4    O47     1.955   1_554 S
Cu5    Cu7     2.612   .     S
Cu5    O17     1.955   .     S
Cu5    O43     1.955   .     S
Cu5    O5      1.955   1_554 S
Cu5    O31     1.955   1_554 S
Cu6    O20     1.955   .     S
Cu6    O42     1.955   .     S
Cu6    Cu8     2.612   1_545 S
Cu6    O6      1.955   1_645 S
Cu6    O32     1.955   1_645 S
Cu7    O7      1.955   .     S
Cu7    O29     1.955   .     S
Cu7    O19     1.955   1_554 S
Cu7    O41     1.955   1_554 S
Cu8    Cu6     2.612   1_565 S
Cu8    O8      1.955   1_565 S
Cu8    O18     1.955   1_655 S
Cu8    O30     1.955   1_565 S
Cu8    O44     1.955   1_655 S
Cu9    O9      1.955   .     S
Cu9    O35     1.955   .     S
Cu9    Cu11    2.612   1_565 S
Cu9    O16     1.955   1_564 S
Cu9    O38     1.955   1_564 S
Cu10   Cu12    2.612   .     S
Cu10   O10     1.955   .     S
Cu10   O36     1.955   .     S
Cu10   O13     1.955   1_455 S
Cu10   O39     1.955   1_455 S
Cu11   Cu9     2.612   1_545 S
Cu11   O11     1.955   1_554 S
Cu11   O14     1.955   1_545 S
Cu11   O33     1.955   1_554 S
Cu11   O40     1.955   1_545 S
Cu12   O15     1.955   .     S
Cu12   O37     1.955   .     S
Cu12   O12     1.955   1_455 S
Cu12   O34     1.955   1_455 S
H1     C49     0.928   .     S
H2     C50     0.928   .     S
H3     C51     0.928   .     S
H4     C52     0.928   .     S
H5     C53     0.928   .     S
H6     C54     0.928   .     S
H7     C55     0.928   .     S
H8     C56     0.928   .     S
H9     C57     0.928   .     S
H10    C58     0.928   .     S
H11    C59     0.928   .     S
H12    C60     0.928   .     S
H13    C61     0.928   .     S
H14    C62     0.928   .     S
H15    C63     0.928   .     S
H16    C64     0.928   .     S
H17    C65     0.928   .     S
H18    C66     0.928   .     S
H19    C67     0.928   .     S
H20    C68     0.928   .     S
H21    C69     0.928   .     S
H22    C70     0.928   .     S
H23    C71     0.928   .     S
H24    C72     0.928   .     S
C1     C2      1.485   .     S
C1     O1      1.260   .     A
C1     O46     1.260   .     A
C2     C49     1.393   .     A
C2     C59     1.393   .     A
C3     C4      1.485   .     S
C3     O2      1.260   .     A
C3     O47     1.260   .     A
C4     C50     1.393   .     A
C4     C58     1.393   .     A
C5     C6      1.485   .     S
C5     O3      1.260   .     A
C5     O48     1.260   .     A
C6     C51     1.393   .     A
C6     C60     1.393   .     A
C7     C8      1.485   .     S
C7     O4      1.260   .     A
C7     O45     1.260   .     A
C8     C52     1.393   .     A
C8     C57     1.393   .     A
C9     C10     1.485   .     S
C9     O5      1.260   .     A
C9     O41     1.260   .     A
C10    C51     1.393   .     A
C10    C53     1.393   .     A
C11    C12     1.485   .     S
C11    O6      1.260   .     A
C11    O44     1.260   .     A
C12    C50     1.393   .     A
C12    C54     1.393   .     A
C13    C14     1.485   .     S
C13    O7      1.260   .     A
C13    O43     1.260   .     A
C14    C52     1.393   .     A
C14    C55     1.393   .     A
C15    C16     1.485   .     S
C15    O8      1.260   .     A
C15    O42     1.260   .     A
C16    C49     1.393   .     A
C16    C56     1.393   .     A
C17    C18     1.485   .     S
C17    O9      1.260   .     A
C17    O40     1.260   .     A
C18    C55     1.393   .     A
C18    C57     1.393   .     A
C19    C20     1.485   .     S
C19    O10     1.260   .     A
C19    O37     1.260   .     A
C20    C54     1.393   .     A
C20    C58     1.393   .     A
C21    C22     1.485   .     S
C21    O11     1.260   .     A
C21    O38     1.260   .     A
C22    C56     1.393   .     A
C22    C59     1.393   .     A
C23    C24     1.485   .     S
C23    O12     1.260   .     A
C23    O39     1.260   .     A
C24    C53     1.393   .     A
C24    C60     1.393   .     A
C25    C26     1.485   .     S
C25    O13     1.260   .     A
C25    O34     1.260   .     A
C26    C61     1.393   .     A
C26    C71     1.393   .     A
C27    C28     1.485   .     S
C27    O14     1.260   .     A
C27    O35     1.260   .     A
C28    C62     1.393   .     A
C28    C70     1.393   .     A
C29    C30     1.485   .     S
C29    O15     1.260   .     A
C29    O36     1.260   .     A
C30    C63     1.393   .     A
C30    C72     1.393   .     A
C31    C32     1.485   .     S
C31    O16     1.260   .     A
C31    O33     1.260   .     A
C32    C64     1.393   .     A
C32    C69     1.393   .     A
C33    C34     1.485   .     S
C33    O17     1.260   .     A
C33    O29     1.260   .     A
C34    C63     1.393   .     A
C34    C65     1.393   .     A
C35    C36     1.485   .     S
C35    O18     1.260   .     A
C35    O32     1.260   .     A
C36    C62     1.393   .     A
C36    C66     1.393   .     A
C37    C38     1.485   .     S
C37    O19     1.260   .     A
C37    O31     1.260   .     A
C38    C64     1.393   .     A
C38    C67     1.393   .     A
C39    C40     1.485   .     S
C39    O20     1.260   .     A
C39    O30     1.260   .     A
C40    C61     1.393   .     A
C40    C68     1.393   .     A
C41    C42     1.485   .     S
C41    O21     1.260   .     A
C41    O28     1.260   .     A
C42    C67     1.393   .     A
C42    C69     1.393   .     A
C43    C44     1.485   .     S
C43    O22     1.260   .     A
C43    O25     1.260   .     A
C44    C66     1.393   .     A
C44    C70     1.393   .     A
C45    C46     1.485   .     S
C45    O23     1.260   .     A
C45    O26     1.260   .     A
C46    C68     1.393   .     A
C46    C71     1.393   .     A
C47    C48     1.485   .     S
C47    O24     1.260   .     A
C47    O27     1.260   .     A
C48    C65     1.393   .     A
C48    C72     1.393   .     A
O1     Cu1     1.955   1_545 S
O2     Cu2     1.955   1_556 S
O3     Cu3     1.955   1_565 S
O4     Cu4     1.955   1_655 S
O5     Cu5     1.955   1_556 S
O6     Cu6     1.955   1_465 S
O8     Cu8     1.955   1_545 S
O11    Cu11    1.955   1_556 S
O12    Cu12    1.955   1_655 S
O13    Cu10    1.955   1_655 S
O14    Cu11    1.955   1_565 S
O16    Cu9     1.955   1_546 S
O18    Cu8     1.955   1_455 S
O19    Cu7     1.955   1_556 S
O21    Cu4     1.955   1_556 S
O23    Cu2     1.955   1_655 S
O25    Cu3     1.955   1_565 S
O26    Cu4     1.955   1_655 S
O27    Cu1     1.955   1_545 S
O28    Cu2     1.955   1_556 S
O30    Cu8     1.955   1_545 S
O31    Cu5     1.955   1_556 S
O32    Cu6     1.955   1_465 S
O33    Cu11    1.955   1_556 S
O34    Cu12    1.955   1_655 S
O38    Cu9     1.955   1_546 S
O39    Cu10    1.955   1_655 S
O40    Cu11    1.955   1_565 S
O41    Cu7     1.955   1_556 S
O44    Cu8     1.955   1_455 S
O45    Cu2     1.955   1_655 S
O47    Cu4     1.955   1_556 S
