data_SONVAT_neutral_b
_audit_creation_date              2014-07-02
_audit_creation_method            'Materials Studio'
_symmetry_space_group_name_H-M    'P1'
_symmetry_Int_Tables_number       1
_symmetry_cell_setting            triclinic
loop_
_symmetry_equiv_pos_as_xyz
  x,y,z
_cell_length_a                    18.6103
_cell_length_b                    18.6103
_cell_length_c                    18.6103
_cell_angle_alpha                 60.0000
_cell_angle_beta                  60.0000
_cell_angle_gamma                 60.0000
loop_
_atom_site_label
_atom_site_type_symbol
_atom_site_fract_x
_atom_site_fract_y
_atom_site_fract_z
_atom_site_U_iso_or_equiv
_atom_site_adp_type
_atom_site_occupancy
Cu1    Cu    0.50000   0.07040   0.92960   0.01267  Uiso   1.00
Cu2    Cu    0.07040   0.50000   0.50000   0.01267  Uiso   1.00
Cu3    Cu    0.92960   0.50000   0.50000   0.01267  Uiso   1.00
Cu4    Cu    0.50000   0.92960   0.07040   0.01267  Uiso   1.00
Cu5    Cu    0.50000   0.92960   0.50000   0.01267  Uiso   1.00
Cu6    Cu    0.07040   0.50000   0.92960   0.01267  Uiso   1.00
Cu7    Cu    0.92960   0.50000   0.07040   0.01267  Uiso   1.00
Cu8    Cu    0.50000   0.07040   0.50000   0.01267  Uiso   1.00
Cu9    Cu    0.50000   0.50000   0.07040   0.01267  Uiso   1.00
Cu10   Cu    0.07040   0.92960   0.50000   0.01267  Uiso   1.00
Cu11   Cu    0.92960   0.07040   0.50000   0.01267  Uiso   1.00
Cu12   Cu    0.50000   0.50000   0.92960   0.01267  Uiso   1.00
H1     H     0.46580   0.98940   0.77240   0.01267  Uiso   1.00
H2     H     0.98940   0.46580   0.77240   0.01267  Uiso   1.00
H3     H     0.77240   0.77240   0.46580   0.01267  Uiso   1.00
H4     H     0.77240   0.77240   0.98940   0.01267  Uiso   1.00
H5     H     0.46580   0.77240   0.77240   0.01267  Uiso   1.00
H6     H     0.98940   0.77240   0.77240   0.01267  Uiso   1.00
H7     H     0.77240   0.46580   0.98940   0.01267  Uiso   1.00
H8     H     0.77240   0.98940   0.46580   0.01267  Uiso   1.00
H9     H     0.46580   0.77240   0.98940   0.01267  Uiso   1.00
H10    H     0.98940   0.77240   0.46580   0.01267  Uiso   1.00
H11    H     0.77240   0.98940   0.77240   0.01267  Uiso   1.00
H12    H     0.77240   0.46580   0.77240   0.01267  Uiso   1.00
H13    H     0.01060   0.53420   0.22760   0.01267  Uiso   1.00
H14    H     0.53420   0.01060   0.22760   0.01267  Uiso   1.00
H15    H     0.22760   0.22760   0.53420   0.01267  Uiso   1.00
H16    H     0.22760   0.22760   0.01060   0.01267  Uiso   1.00
H17    H     0.22760   0.53420   0.22760   0.01267  Uiso   1.00
H18    H     0.22760   0.01060   0.22760   0.01267  Uiso   1.00
H19    H     0.53420   0.22760   0.01060   0.01267  Uiso   1.00
H20    H     0.01060   0.22760   0.53420   0.01267  Uiso   1.00
H21    H     0.22760   0.53420   0.01060   0.01267  Uiso   1.00
H22    H     0.22760   0.01060   0.53420   0.01267  Uiso   1.00
H23    H     0.01060   0.22760   0.22760   0.01267  Uiso   1.00
H24    H     0.53420   0.22760   0.22760   0.01267  Uiso   1.00
C1     C     0.46550   0.93190   0.80130   0.01267  Uiso   1.00
C2     C     0.93190   0.46550   0.80130   0.01267  Uiso   1.00
C3     C     0.80130   0.80130   0.46550   0.01267  Uiso   1.00
C4     C     0.80130   0.80130   0.93190   0.01267  Uiso   1.00
C5     C     0.46550   0.80130   0.80130   0.01267  Uiso   1.00
C6     C     0.93190   0.80130   0.80130   0.01267  Uiso   1.00
C7     C     0.80130   0.46550   0.93190   0.01267  Uiso   1.00
C8     C     0.80130   0.93190   0.46550   0.01267  Uiso   1.00
C9     C     0.46550   0.80130   0.93190   0.01267  Uiso   1.00
C10    C     0.93190   0.80130   0.46550   0.01267  Uiso   1.00
C11    C     0.80130   0.93190   0.80130   0.01267  Uiso   1.00
C12    C     0.80130   0.46550   0.80130   0.01267  Uiso   1.00
C13    C     0.06810   0.53450   0.19870   0.01267  Uiso   1.00
C14    C     0.53450   0.06810   0.19870   0.01267  Uiso   1.00
C15    C     0.19870   0.19870   0.53450   0.01267  Uiso   1.00
C16    C     0.19870   0.19870   0.06810   0.01267  Uiso   1.00
C17    C     0.19870   0.53450   0.19870   0.01267  Uiso   1.00
C18    C     0.19870   0.06810   0.19870   0.01267  Uiso   1.00
C19    C     0.53450   0.19870   0.06810   0.01267  Uiso   1.00
C20    C     0.06810   0.19870   0.53450   0.01267  Uiso   1.00
C21    C     0.19870   0.53450   0.06810   0.01267  Uiso   1.00
C22    C     0.19870   0.06810   0.53450   0.01267  Uiso   1.00
C23    C     0.06810   0.19870   0.19870   0.01267  Uiso   1.00
C24    C     0.53450   0.19870   0.19870   0.01267  Uiso   1.00
C25    C     0.47340   0.93140   0.93140   0.01267  Uiso   1.00
C26    C     0.46530   0.88850   0.88850   0.01267  Uiso   1.00
C27    C     0.93140   0.47340   0.66380   0.01267  Uiso   1.00
C28    C     0.88850   0.46530   0.75770   0.01267  Uiso   1.00
C29    C     0.93140   0.66380   0.47340   0.01267  Uiso   1.00
C30    C     0.88850   0.75770   0.46530   0.01267  Uiso   1.00
C31    C     0.66380   0.93140   0.93140   0.01267  Uiso   1.00
C32    C     0.75770   0.88850   0.88850   0.01267  Uiso   1.00
C33    C     0.47340   0.93140   0.66380   0.01267  Uiso   1.00
C34    C     0.46530   0.88850   0.75770   0.01267  Uiso   1.00
C35    C     0.93140   0.66380   0.93140   0.01267  Uiso   1.00
C36    C     0.88850   0.75770   0.88850   0.01267  Uiso   1.00
C37    C     0.93140   0.47340   0.93140   0.01267  Uiso   1.00
C38    C     0.88850   0.46530   0.88850   0.01267  Uiso   1.00
C39    C     0.66380   0.93140   0.47340   0.01267  Uiso   1.00
C40    C     0.75770   0.88850   0.46530   0.01267  Uiso   1.00
C41    C     0.47340   0.66380   0.93140   0.01267  Uiso   1.00
C42    C     0.46530   0.75770   0.88850   0.01267  Uiso   1.00
C43    C     0.93140   0.93140   0.47340   0.01267  Uiso   1.00
C44    C     0.88850   0.88850   0.46530   0.01267  Uiso   1.00
C45    C     0.93140   0.93140   0.66380   0.01267  Uiso   1.00
C46    C     0.88850   0.88850   0.75770   0.01267  Uiso   1.00
C47    C     0.66380   0.47340   0.93140   0.01267  Uiso   1.00
C48    C     0.75770   0.46530   0.88850   0.01267  Uiso   1.00
C49    C     0.06860   0.52660   0.06860   0.01267  Uiso   1.00
C50    C     0.11150   0.53470   0.11150   0.01267  Uiso   1.00
C51    C     0.52660   0.06860   0.33620   0.01267  Uiso   1.00
C52    C     0.53470   0.11150   0.24230   0.01267  Uiso   1.00
C53    C     0.33620   0.06860   0.52660   0.01267  Uiso   1.00
C54    C     0.24230   0.11150   0.53470   0.01267  Uiso   1.00
C55    C     0.06860   0.33620   0.06860   0.01267  Uiso   1.00
C56    C     0.11150   0.24230   0.11150   0.01267  Uiso   1.00
C57    C     0.06860   0.52660   0.33620   0.01267  Uiso   1.00
C58    C     0.11150   0.53470   0.24230   0.01267  Uiso   1.00
C59    C     0.33620   0.06860   0.06860   0.01267  Uiso   1.00
C60    C     0.24230   0.11150   0.11150   0.01267  Uiso   1.00
C61    C     0.52660   0.06860   0.06860   0.01267  Uiso   1.00
C62    C     0.53470   0.11150   0.11150   0.01267  Uiso   1.00
C63    C     0.06860   0.33620   0.52660   0.01267  Uiso   1.00
C64    C     0.11150   0.24230   0.53470   0.01267  Uiso   1.00
C65    C     0.33620   0.52660   0.06860   0.01267  Uiso   1.00
C66    C     0.24230   0.53470   0.11150   0.01267  Uiso   1.00
C67    C     0.06860   0.06860   0.52660   0.01267  Uiso   1.00
C68    C     0.11150   0.11150   0.53470   0.01267  Uiso   1.00
C69    C     0.06860   0.06860   0.33620   0.01267  Uiso   1.00
C70    C     0.11150   0.11150   0.24230   0.01267  Uiso   1.00
C71    C     0.52660   0.33620   0.06860   0.01267  Uiso   1.00
C72    C     0.53470   0.24230   0.11150   0.01267  Uiso   1.00
O1     O     0.47940   0.00760   0.88700   0.01267  Uiso   1.00
O2     O     0.00760   0.47940   0.62600   0.01267  Uiso   1.00
O3     O     0.88700   0.62600   0.47940   0.01267  Uiso   1.00
O4     O     0.62600   0.88700   0.00760   0.01267  Uiso   1.00
O5     O     0.47940   0.88700   0.62600   0.01267  Uiso   1.00
O6     O     0.00760   0.62600   0.88700   0.01267  Uiso   1.00
O7     O     0.88700   0.47940   0.00760   0.01267  Uiso   1.00
O8     O     0.62600   0.00760   0.47940   0.01267  Uiso   1.00
O9     O     0.47940   0.62600   0.00760   0.01267  Uiso   1.00
O10    O     0.00760   0.88700   0.47940   0.01267  Uiso   1.00
O11    O     0.88700   0.00760   0.62600   0.01267  Uiso   1.00
O12    O     0.62600   0.47940   0.88700   0.01267  Uiso   1.00
O13    O     0.99240   0.52060   0.11300   0.01267  Uiso   1.00
O14    O     0.52060   0.99240   0.37400   0.01267  Uiso   1.00
O15    O     0.37400   0.11300   0.52060   0.01267  Uiso   1.00
O16    O     0.11300   0.37400   0.99240   0.01267  Uiso   1.00
O17    O     0.11300   0.52060   0.37400   0.01267  Uiso   1.00
O18    O     0.37400   0.99240   0.11300   0.01267  Uiso   1.00
O19    O     0.52060   0.11300   0.99240   0.01267  Uiso   1.00
O20    O     0.99240   0.37400   0.52060   0.01267  Uiso   1.00
O21    O     0.37400   0.52060   0.99240   0.01267  Uiso   1.00
O22    O     0.11300   0.99240   0.52060   0.01267  Uiso   1.00
O23    O     0.99240   0.11300   0.37400   0.01267  Uiso   1.00
O24    O     0.52060   0.37400   0.11300   0.01267  Uiso   1.00
O25    O     0.52060   0.99240   0.11300   0.01267  Uiso   1.00
O26    O     0.99240   0.52060   0.37400   0.01267  Uiso   1.00
O27    O     0.11300   0.37400   0.52060   0.01267  Uiso   1.00
O28    O     0.37400   0.11300   0.99240   0.01267  Uiso   1.00
O29    O     0.52060   0.11300   0.37400   0.01267  Uiso   1.00
O30    O     0.99240   0.37400   0.11300   0.01267  Uiso   1.00
O31    O     0.11300   0.52060   0.99240   0.01267  Uiso   1.00
O32    O     0.37400   0.99240   0.52060   0.01267  Uiso   1.00
O33    O     0.52060   0.37400   0.99240   0.01267  Uiso   1.00
O34    O     0.99240   0.11300   0.52060   0.01267  Uiso   1.00
O35    O     0.11300   0.99240   0.37400   0.01267  Uiso   1.00
O36    O     0.37400   0.52060   0.11300   0.01267  Uiso   1.00
O37    O     0.00760   0.47940   0.88700   0.01267  Uiso   1.00
O38    O     0.47940   0.00760   0.62600   0.01267  Uiso   1.00
O39    O     0.62600   0.88700   0.47940   0.01267  Uiso   1.00
O40    O     0.88700   0.62600   0.00760   0.01267  Uiso   1.00
O41    O     0.88700   0.47940   0.62600   0.01267  Uiso   1.00
O42    O     0.62600   0.00760   0.88700   0.01267  Uiso   1.00
O43    O     0.47940   0.88700   0.00760   0.01267  Uiso   1.00
O44    O     0.00760   0.62600   0.47940   0.01267  Uiso   1.00
O45    O     0.62600   0.47940   0.00760   0.01267  Uiso   1.00
O46    O     0.88700   0.00760   0.47940   0.01267  Uiso   1.00
O47    O     0.00760   0.88700   0.62600   0.01267  Uiso   1.00
O48    O     0.47940   0.62600   0.88700   0.01267  Uiso   1.00
loop_
_geom_bond_atom_site_label_1
_geom_bond_atom_site_label_2
_geom_bond_distance
_geom_bond_site_symmetry_2
_ccdc_geom_bond_type
Cu1    O1      1.954   .     S
Cu1    O19     1.954   .     S
Cu1    O28     1.954   .     S
Cu1    O42     1.954   .     S
Cu1    Cu4     2.620   1_546 S
Cu2    O2      1.954   .     S
Cu2    O17     1.954   .     S
Cu2    O27     1.954   .     S
Cu2    O44     1.954   .     S
Cu2    Cu3     2.620   1_455 S
Cu3    O3      1.954   .     S
Cu3    O20     1.954   .     S
Cu3    O26     1.954   .     S
Cu3    O41     1.954   .     S
Cu3    Cu2     2.620   1_655 S
Cu4    O4      1.954   .     S
Cu4    O18     1.954   .     S
Cu4    O25     1.954   .     S
Cu4    O43     1.954   .     S
Cu4    Cu1     2.620   1_564 S
Cu5    O5      1.954   .     S
Cu5    O14     1.954   .     S
Cu5    O32     1.954   .     S
Cu5    O39     1.954   .     S
Cu5    Cu8     2.620   1_565 S
Cu6    O6      1.954   .     S
Cu6    O16     1.954   .     S
Cu6    O31     1.954   .     S
Cu6    O37     1.954   .     S
Cu6    Cu7     2.620   1_456 S
Cu7    O7      1.954   .     S
Cu7    O13     1.954   .     S
Cu7    O30     1.954   .     S
Cu7    O40     1.954   .     S
Cu7    Cu6     2.620   1_654 S
Cu8    O8      1.954   .     S
Cu8    O15     1.954   .     S
Cu8    O29     1.954   .     S
Cu8    O38     1.954   .     S
Cu8    Cu5     2.620   1_545 S
Cu9    O9      1.954   .     S
Cu9    O24     1.954   .     S
Cu9    O36     1.954   .     S
Cu9    O45     1.954   .     S
Cu9    Cu12    2.620   1_554 S
Cu10   O10     1.954   .     S
Cu10   O22     1.954   .     S
Cu10   O35     1.954   .     S
Cu10   O47     1.954   .     S
Cu10   Cu11    2.620   1_465 S
Cu11   O11     1.954   .     S
Cu11   O23     1.954   .     S
Cu11   O34     1.954   .     S
Cu11   O46     1.954   .     S
Cu11   Cu10    2.620   1_645 S
Cu12   O12     1.954   .     S
Cu12   O21     1.954   .     S
Cu12   O33     1.954   .     S
Cu12   O48     1.954   .     S
Cu12   Cu9     2.620   1_556 S
H1     C1      0.928   .     S
H2     C2      0.928   .     S
H3     C3      0.928   .     S
H4     C4      0.928   .     S
H5     C5      0.928   .     S
H6     C6      0.928   .     S
H7     C7      0.928   .     S
H8     C8      0.928   .     S
H9     C9      0.928   .     S
H10    C10     0.928   .     S
H11    C11     0.928   .     S
H12    C12     0.928   .     S
H13    C13     0.928   .     S
H14    C14     0.928   .     S
H15    C15     0.928   .     S
H16    C16     0.928   .     S
H17    C17     0.928   .     S
H18    C18     0.928   .     S
H19    C19     0.928   .     S
H20    C20     0.928   .     S
H21    C21     0.928   .     S
H22    C22     0.928   .     S
H23    C23     0.928   .     S
H24    C24     0.928   .     S
C1     C26     1.404   .     A
C1     C34     1.404   .     A
C2     C28     1.404   .     A
C2     C38     1.404   .     A
C3     C30     1.404   .     A
C3     C40     1.404   .     A
C4     C32     1.404   .     A
C4     C36     1.404   .     A
C5     C34     1.404   .     A
C5     C42     1.404   .     A
C6     C36     1.404   .     A
C6     C46     1.404   .     A
C7     C38     1.404   .     A
C7     C48     1.404   .     A
C8     C40     1.404   .     A
C8     C44     1.404   .     A
C9     C26     1.404   .     A
C9     C42     1.404   .     A
C10    C30     1.404   .     A
C10    C44     1.404   .     A
C11    C32     1.404   .     A
C11    C46     1.404   .     A
C12    C28     1.404   .     A
C12    C48     1.404   .     A
C13    C50     1.404   .     A
C13    C58     1.404   .     A
C14    C52     1.404   .     A
C14    C62     1.404   .     A
C15    C54     1.404   .     A
C15    C64     1.404   .     A
C16    C56     1.404   .     A
C16    C60     1.404   .     A
C17    C58     1.404   .     A
C17    C66     1.404   .     A
C18    C60     1.404   .     A
C18    C70     1.404   .     A
C19    C62     1.404   .     A
C19    C72     1.404   .     A
C20    C64     1.404   .     A
C20    C68     1.404   .     A
C21    C50     1.404   .     A
C21    C66     1.404   .     A
C22    C54     1.404   .     A
C22    C68     1.404   .     A
C23    C56     1.404   .     A
C23    C70     1.404   .     A
C24    C52     1.404   .     A
C24    C72     1.404   .     A
C25    C26     1.475   .     S
C25    O1      1.265   1_565 S
C25    O43     1.265   1_556 S
C27    C28     1.475   .     S
C27    O41     1.265   .     A
C27    O2      1.265   1_655 S
C29    C30     1.475   .     S
C29    O3      1.265   .     A
C29    O44     1.265   1_655 S
C31    C32     1.475   .     S
C31    O4      1.265   1_556 S
C31    O42     1.265   1_565 S
C33    C34     1.475   .     S
C33    O5      1.265   .     A
C33    O38     1.265   1_565 S
C35    C36     1.475   .     S
C35    O6      1.265   1_655 S
C35    O40     1.265   1_556 S
C37    C38     1.475   .     S
C37    O7      1.265   1_556 S
C37    O37     1.265   1_655 S
C39    C40     1.475   .     S
C39    O39     1.265   .     A
C39    O8      1.265   1_565 S
C41    C42     1.475   .     S
C41    O48     1.265   .     A
C41    O9      1.265   1_556 S
C43    C44     1.475   .     S
C43    O10     1.265   1_655 S
C43    O46     1.265   1_565 S
C45    C46     1.475   .     S
C45    O11     1.265   1_565 S
C45    O47     1.265   1_655 S
C47    C48     1.475   .     S
C47    O12     1.265   .     A
C47    O45     1.265   1_556 S
C49    C50     1.475   .     S
C49    O13     1.265   1_455 S
C49    O31     1.265   1_554 S
C51    C52     1.475   .     S
C51    O29     1.265   .     A
C51    O14     1.265   1_545 S
C53    C54     1.475   .     S
C53    O15     1.265   .     A
C53    O32     1.265   1_545 S
C55    C56     1.475   .     S
C55    O16     1.265   1_554 S
C55    O30     1.265   1_455 S
C57    C58     1.475   .     S
C57    O17     1.265   .     A
C57    O26     1.265   1_455 S
C59    C60     1.475   .     S
C59    O18     1.265   1_545 S
C59    O28     1.265   1_554 S
C61    C62     1.475   .     S
C61    O19     1.265   1_554 S
C61    O25     1.265   1_545 S
C63    C64     1.475   .     S
C63    O27     1.265   .     A
C63    O20     1.265   1_455 S
C65    C66     1.475   .     S
C65    O36     1.265   .     A
C65    O21     1.265   1_554 S
C67    C68     1.475   .     S
C67    O22     1.265   1_545 S
C67    O34     1.265   1_455 S
C69    C70     1.475   .     S
C69    O23     1.265   1_455 S
C69    O35     1.265   1_545 S
C71    C72     1.475   .     S
C71    O24     1.265   .     A
C71    O33     1.265   1_554 S
O1     C25     1.265   1_545 S
O2     C27     1.265   1_455 S
O4     C31     1.265   1_554 S
O6     C35     1.265   1_455 S
O7     C37     1.265   1_554 S
O8     C39     1.265   1_545 S
O9     C41     1.265   1_554 S
O10    C43     1.265   1_455 S
O11    C45     1.265   1_545 S
O13    C49     1.265   1_655 S
O14    C51     1.265   1_565 S
O16    C55     1.265   1_556 S
O18    C59     1.265   1_565 S
O19    C61     1.265   1_556 S
O20    C63     1.265   1_655 S
O21    C65     1.265   1_556 S
O22    C67     1.265   1_565 S
O23    C69     1.265   1_655 S
O25    C61     1.265   1_565 S
O26    C57     1.265   1_655 S
O28    C59     1.265   1_556 S
O30    C55     1.265   1_655 S
O31    C49     1.265   1_556 S
O32    C53     1.265   1_565 S
O33    C71     1.265   1_556 S
O34    C67     1.265   1_655 S
O35    C69     1.265   1_565 S
O37    C37     1.265   1_455 S
O38    C33     1.265   1_545 S
O40    C35     1.265   1_554 S
O42    C31     1.265   1_545 S
O43    C25     1.265   1_554 S
O44    C29     1.265   1_455 S
O45    C47     1.265   1_554 S
O46    C43     1.265   1_545 S
O47    C45     1.265   1_455 S
