data_image0
_cell_length_a       15.1431
_cell_length_b       15.2322
_cell_length_c       16.0597
_cell_angle_alpha    98.484
_cell_angle_beta     102.682
_cell_angle_gamma    104.206

_symmetry_space_group_name_H-M    "P 1"
_symmetry_int_tables_number       1

loop_
  _symmetry_equiv_pos_as_xyz
  'x, y, z'

loop_
  _atom_site_label
  _atom_site_occupancy
  _atom_site_fract_x
  _atom_site_fract_y
  _atom_site_fract_z
  _atom_site_thermal_displace_type
  _atom_site_B_iso_or_equiv
  _atom_site_type_symbol
  C1       1.0000 0.37610  0.98100  0.31210  Biso   1.000  C
  C2       1.0000 0.37390  0.07860  0.31000  Biso   1.000  C
  C3       1.0000 0.37600  0.13860  0.38410  Biso   1.000  C
  H1       1.0000 0.38110  0.11860  0.43780  Biso   1.000  H
  C4       1.0000 0.37070  0.22800  0.38120  Biso   1.000  C
  H2       1.0000 0.37080  0.26780  0.43260  Biso   1.000  H
  C5       1.0000 0.36540  0.26030  0.30360  Biso   1.000  C
  C6       1.0000 0.36750  0.20040  0.23020  Biso   1.000  C
  H3       1.0000 0.36690  0.22140  0.17730  Biso   1.000  H
  C7       1.0000 0.37040  0.11040  0.23310  Biso   1.000  C
  H4       1.0000 0.36990  0.07020  0.18170  Biso   1.000  H
  C8       1.0000 0.18340  0.78850  0.27570  Biso   1.000  C
  C9       1.0000 0.08810  0.79640  0.28120  Biso   1.000  C
  C10      1.0000 0.02070  0.79730  0.20850  Biso   1.000  C
  H5       1.0000 0.03340  0.79000  0.15290  Biso   1.000  H
  C11      1.0000 0.93480  0.80860  0.21540  Biso   1.000  C
  H6       1.0000 0.88990  0.80970  0.16420  Biso   1.000  H
  C12      1.0000 0.91200  0.81840  0.29410  Biso   1.000  C
  C13      1.0000 0.98110  0.81780  0.36730  Biso   1.000  C
  H7       1.0000 0.96830  0.82490  0.42290  Biso   1.000  H
  C14      1.0000 0.06630  0.80720  0.36140  Biso   1.000  C
  H8       1.0000 0.11170  0.80720  0.41270  Biso   1.000  H
  C15      1.0000 0.34760  0.63510  0.29320  Biso   1.000  C
  C16      1.0000 0.34990  0.53710  0.29560  Biso   1.000  C
  C17      1.0000 0.31790  0.46850  0.21990  Biso   1.000  C
  H9       1.0000 0.29280  0.48300  0.16570  Biso   1.000  H
  C18      1.0000 0.32220  0.37870  0.22250  Biso   1.000  C
  H10      1.0000 0.29930  0.33250  0.17010  Biso   1.000  H
  C19      1.0000 0.35930  0.35560  0.30080  Biso   1.000  C
  C20      1.0000 0.39710  0.42660  0.37670  Biso   1.000  C
  H11      1.0000 0.42600  0.41320  0.43020  Biso   1.000  H
  C21      1.0000 0.39230  0.51610  0.37390  Biso   1.000  C
  H12      1.0000 0.41800  0.56340  0.42550  Biso   1.000  H
  C22      1.0000 0.53940  0.83180  0.31840  Biso   1.000  C
  C23      1.0000 0.63890  0.83640  0.31340  Biso   1.000  C
  C24      1.0000 0.65700  0.81850  0.23400  Biso   1.000  C
  H13      1.0000 0.60820  0.80930  0.18230  Biso   1.000  H
  C25      1.0000 0.74560  0.81370  0.22770  Biso   1.000  C
  H14      1.0000 0.75620  0.80050  0.17160  Biso   1.000  H
  C26      1.0000 0.81830  0.82770  0.30110  Biso   1.000  C
  C27      1.0000 0.79950  0.84760  0.38090  Biso   1.000  C
  H15      1.0000 0.84820  0.85700  0.43290  Biso   1.000  H
  C28      1.0000 0.71180  0.85420  0.38710  Biso   1.000  C
  H16      1.0000 0.70190  0.87130  0.44290  Biso   1.000  H
  C29      1.0000 0.38030  0.76440  0.56080  Biso   1.000  C
  H17      1.0000 0.37770  0.70700  0.52640  Biso   1.000  H
  C30      1.0000 0.37650  0.76820  0.64690  Biso   1.000  C
  H18      1.0000 0.36910  0.71380  0.67010  Biso   1.000  H
  C31      1.0000 0.38360  0.85150  0.69770  Biso   1.000  C
  C32      1.0000 0.39240  0.92830  0.66040  Biso   1.000  C
  H19      1.0000 0.39740  0.98700  0.69390  Biso   1.000  H
  C33      1.0000 0.39370  0.91890  0.57450  Biso   1.000  C
  H20      1.0000 0.39930  0.97210  0.54940  Biso   1.000  H
  C34      1.0000 0.38950  0.86930  0.79510  Biso   1.000  C
  C35      1.0000 0.40580  0.85110  0.06480  Biso   1.000  C
  H21      1.0000 0.45050  0.89460  0.11340  Biso   1.000  H
  C36      1.0000 0.41220  0.85870  0.98150  Biso   1.000  C
  H22      1.0000 0.45990  0.90750  0.97300  Biso   1.000  H
  C37      1.0000 0.34750  0.79350  0.90990  Biso   1.000  C
  C38      1.0000 0.28060  0.72550  0.92510  Biso   1.000  C
  H23      1.0000 0.23640  0.67950  0.87800  Biso   1.000  H
  C39      1.0000 0.27760  0.72420  0.00990  Biso   1.000  C
  H24      1.0000 0.22890  0.67730  0.01960  Biso   1.000  H
  N1       1.0000 0.38750  0.83810  0.52480  Biso   1.000  N
  N2       1.0000 0.34930  0.79440  0.82300  Biso   1.000  N
  H25      1.0000 0.32220  0.74210  0.78410  Biso   1.000  H
  N3       1.0000 0.33850  0.78440  0.07890  Biso   1.000  N
  O1       1.0000 0.36170  0.92730  0.24000  Biso   1.000  O
  O2       1.0000 0.39040  0.95980  0.38580  Biso   1.000  O
  O3       1.0000 0.24260  0.79440  0.34610  Biso   1.000  O
  O4       1.0000 0.19750  0.77660  0.20100  Biso   1.000  O
  O5       1.0000 0.31700  0.65290  0.21980  Biso   1.000  O
  O6       1.0000 0.37760  0.69170  0.36570  Biso   1.000  O
  O7       1.0000 0.52640  0.85410  0.39290  Biso   1.000  O
  O8       1.0000 0.47670  0.80520  0.24750  Biso   1.000  O
  O9       1.0000 0.42520  0.94900  0.84190  Biso   1.000  O
  Zn1      1.0000 0.38853  0.82902  0.39747  Biso   1.000  Zn
  Zn2      1.0000 0.33348  0.78512  0.20377  Biso   1.000  Zn
  C40      1.0000 0.62390  0.01900  0.68790  Biso   1.000  C
  C41      1.0000 0.62610  0.92140  0.69000  Biso   1.000  C
  C42      1.0000 0.62400  0.86140  0.61590  Biso   1.000  C
  H26      1.0000 0.61890  0.88140  0.56220  Biso   1.000  H
  C43      1.0000 0.62930  0.77200  0.61880  Biso   1.000  C
  H27      1.0000 0.62920  0.73220  0.56740  Biso   1.000  H
  C44      1.0000 0.63460  0.73970  0.69640  Biso   1.000  C
  C45      1.0000 0.63250  0.79960  0.76980  Biso   1.000  C
  H28      1.0000 0.63310  0.77860  0.82270  Biso   1.000  H
  C46      1.0000 0.62960  0.88960  0.76690  Biso   1.000  C
  H29      1.0000 0.63010  0.92980  0.81830  Biso   1.000  H
  C47      1.0000 0.81660  0.21150  0.72430  Biso   1.000  C
  C48      1.0000 0.91190  0.20360  0.71880  Biso   1.000  C
  C49      1.0000 0.97930  0.20270  0.79150  Biso   1.000  C
  H30      1.0000 0.96660  0.21000  0.84710  Biso   1.000  H
  C50      1.0000 0.06520  0.19140  0.78460  Biso   1.000  C
  H31      1.0000 0.11010  0.19030  0.83580  Biso   1.000  H
  C51      1.0000 0.08800  0.18160  0.70590  Biso   1.000  C
  C52      1.0000 0.01890  0.18220  0.63270  Biso   1.000  C
  H32      1.0000 0.03170  0.17510  0.57710  Biso   1.000  H
  C53      1.0000 0.93370  0.19280  0.63860  Biso   1.000  C
  H33      1.0000 0.88830  0.19280  0.58730  Biso   1.000  H
  C54      1.0000 0.65240  0.36490  0.70680  Biso   1.000  C
  C55      1.0000 0.65010  0.46290  0.70440  Biso   1.000  C
  C56      1.0000 0.68210  0.53150  0.78010  Biso   1.000  C
  H34      1.0000 0.70720  0.51700  0.83430  Biso   1.000  H
  C57      1.0000 0.67780  0.62130  0.77750  Biso   1.000  C
  H35      1.0000 0.70070  0.66750  0.82990  Biso   1.000  H
  C58      1.0000 0.64070  0.64440  0.69920  Biso   1.000  C
  C59      1.0000 0.60290  0.57340  0.62330  Biso   1.000  C
  H36      1.0000 0.57400  0.58680  0.56980  Biso   1.000  H
  C60      1.0000 0.60770  0.48390  0.62610  Biso   1.000  C
  H37      1.0000 0.58200  0.43660  0.57450  Biso   1.000  H
  C61      1.0000 0.46060  0.16820  0.68160  Biso   1.000  C
  C62      1.0000 0.36110  0.16360  0.68660  Biso   1.000  C
  C63      1.0000 0.34300  0.18150  0.76600  Biso   1.000  C
  H38      1.0000 0.39180  0.19070  0.81770  Biso   1.000  H
  C64      1.0000 0.25440  0.18630  0.77230  Biso   1.000  C
  H39      1.0000 0.24380  0.19950  0.82840  Biso   1.000  H
  C65      1.0000 0.18170  0.17230  0.69890  Biso   1.000  C
  C66      1.0000 0.20050  0.15240  0.61910  Biso   1.000  C
  H40      1.0000 0.15180  0.14300  0.56710  Biso   1.000  H
  C67      1.0000 0.28820  0.14580  0.61290  Biso   1.000  C
  H41      1.0000 0.29810  0.12870  0.55710  Biso   1.000  H
  C68      1.0000 0.61970  0.23560  0.43920  Biso   1.000  C
  H42      1.0000 0.62230  0.29300  0.47360  Biso   1.000  H
  C69      1.0000 0.62350  0.23180  0.35310  Biso   1.000  C
  H43      1.0000 0.63090  0.28620  0.32990  Biso   1.000  H
  C70      1.0000 0.61640  0.14850  0.30230  Biso   1.000  C
  C71      1.0000 0.60760  0.07170  0.33960  Biso   1.000  C
  H44      1.0000 0.60260  0.01300  0.30610  Biso   1.000  H
  C72      1.0000 0.60630  0.08110  0.42550  Biso   1.000  C
  H45      1.0000 0.60070  0.02790  0.45060  Biso   1.000  H
  C73      1.0000 0.61050  0.13070  0.20490  Biso   1.000  C
  C74      1.0000 0.59420  0.14890  0.93520  Biso   1.000  C
  H46      1.0000 0.54950  0.10540  0.88660  Biso   1.000  H
  C75      1.0000 0.58780  0.14130  0.01850  Biso   1.000  C
  H47      1.0000 0.54010  0.09250  0.02700  Biso   1.000  H
  C76      1.0000 0.65250  0.20650  0.09010  Biso   1.000  C
  C77      1.0000 0.71940  0.27450  0.07490  Biso   1.000  C
  H48      1.0000 0.76360  0.32050  0.12200  Biso   1.000  H
  C78      1.0000 0.72240  0.27580  0.99010  Biso   1.000  C
  H49      1.0000 0.77110  0.32270  0.98040  Biso   1.000  H
  N4       1.0000 0.61250  0.16190  0.47520  Biso   1.000  N
  N5       1.0000 0.65070  0.20560  0.17700  Biso   1.000  N
  H50      1.0000 0.67780  0.25790  0.21590  Biso   1.000  H
  N6       1.0000 0.66150  0.21560  0.92110  Biso   1.000  N
  O10      1.0000 0.63830  0.07270  0.76000  Biso   1.000  O
  O11      1.0000 0.60960  0.04020  0.61420  Biso   1.000  O
  O12      1.0000 0.75740  0.20560  0.65390  Biso   1.000  O
  O13      1.0000 0.80250  0.22340  0.79900  Biso   1.000  O
  O14      1.0000 0.68300  0.34710  0.78020  Biso   1.000  O
  O15      1.0000 0.62240  0.30830  0.63430  Biso   1.000  O
  O16      1.0000 0.47360  0.14590  0.60710  Biso   1.000  O
  O17      1.0000 0.52330  0.19480  0.75250  Biso   1.000  O
  O18      1.0000 0.57480  0.05100  0.15810  Biso   1.000  O
  Zn3      1.0000 0.61147  0.17098  0.60253  Biso   1.000  Zn
  Zn4      1.0000 0.66652  0.21488  0.79623  Biso   1.000  Zn
