data_SOPPOD_clean
_audit_creation_date              2014-07-02
_audit_creation_method            'Materials Studio'
_symmetry_space_group_name_H-M    'P1'
_symmetry_Int_Tables_number       1
_symmetry_cell_setting            triclinic
loop_
_symmetry_equiv_pos_as_xyz
  x,y,z
_cell_length_a                    8.9151
_cell_length_b                    9.3148
_cell_length_c                    9.3148
_cell_angle_alpha                 76.7616
_cell_angle_beta                  61.4097
_cell_angle_gamma                 61.4098
loop_
_atom_site_label
_atom_site_type_symbol
_atom_site_fract_x
_atom_site_fract_y
_atom_site_fract_z
_atom_site_U_iso_or_equiv
_atom_site_adp_type
_atom_site_occupancy
Tb1    Tb    0.87500   0.25000   0.25000   0.01267  Uiso   1.00
Tb2    Tb    0.12500   0.75000   0.75000   0.01267  Uiso   1.00
K1     K     0.37500   0.25000   0.25000   0.01267  Uiso   1.00
K2     K     0.62500   0.75000   0.75000   0.01267  Uiso   1.00
C1     C     0.44310   0.47200   0.48140   0.01267  Uiso   1.00
C2     C     0.89650   0.02800   0.01860   0.01267  Uiso   1.00
C3     C     0.92450   0.51860   0.97200   0.01267  Uiso   1.00
C4     C     0.91510   0.98140   0.52800   0.01267  Uiso   1.00
C5     C     0.55690   0.52800   0.51860   0.01267  Uiso   1.00
C6     C     0.10350   0.97200   0.98140   0.01267  Uiso   1.00
C7     C     0.07550   0.48140   0.02800   0.01267  Uiso   1.00
C8     C     0.08490   0.01860   0.47200   0.01267  Uiso   1.00
O1     O     0.53670   0.35930   0.37870   0.01267  Uiso   1.00
O2     O     0.82440   0.44130   0.04310   0.01267  Uiso   1.00
O3     O     0.77470   0.14070   0.12130   0.01267  Uiso   1.00
O4     O     0.80880   0.05870   0.45690   0.01267  Uiso   1.00
O5     O     0.91540   0.62130   0.85930   0.01267  Uiso   1.00
O6     O     0.86750   0.95690   0.94130   0.01267  Uiso   1.00
O7     O     0.89600   0.87870   0.64070   0.01267  Uiso   1.00
O8     O     0.26570   0.54310   0.55870   0.01267  Uiso   1.00
O9     O     0.46330   0.64070   0.62130   0.01267  Uiso   1.00
O10    O     0.17560   0.55870   0.95690   0.01267  Uiso   1.00
O11    O     0.22530   0.85930   0.87870   0.01267  Uiso   1.00
O12    O     0.19120   0.94130   0.54310   0.01267  Uiso   1.00
O13    O     0.08460   0.37870   0.14070   0.01267  Uiso   1.00
O14    O     0.13250   0.04310   0.05870   0.01267  Uiso   1.00
O15    O     0.10400   0.12130   0.35930   0.01267  Uiso   1.00
O16    O     0.73430   0.45690   0.44130   0.01267  Uiso   1.00
