data_image0
_cell_length_a       17.1625
_cell_length_b       15.8356
_cell_length_c       15.6712
_cell_angle_alpha    90
_cell_angle_beta     90
_cell_angle_gamma    90

_symmetry_space_group_name_H-M    "P 1"
_symmetry_int_tables_number       1

loop_
  _symmetry_equiv_pos_as_xyz
  'x, y, z'

loop_
  _atom_site_label
  _atom_site_occupancy
  _atom_site_fract_x
  _atom_site_fract_y
  _atom_site_fract_z
  _atom_site_thermal_displace_type
  _atom_site_B_iso_or_equiv
  _atom_site_type_symbol
  Tb1      1.0000 0.59614  0.95391  0.95706  Biso   1.000  Tb
  O1       1.0000 0.64740  0.09880  0.94810  Biso   1.000  O
  O2       1.0000 0.52960  0.08610  0.99820  Biso   1.000  O
  O3       1.0000 0.59770  0.79880  0.00240  Biso   1.000  O
  O4       1.0000 0.55240  0.82210  0.87490  Biso   1.000  O
  O5       1.0000 0.73310  0.93000  0.97330  Biso   1.000  O
  O6       1.0000 0.69140  0.94600  0.84170  Biso   1.000  O
  O7       1.0000 0.60170  0.96570  0.10930  Biso   1.000  O
  C1       1.0000 0.74570  0.93360  0.89410  Biso   1.000  C
  C2       1.0000 0.82880  0.92780  0.86290  Biso   1.000  C
  C3       1.0000 0.88640  0.89410  0.91750  Biso   1.000  C
  C4       1.0000 0.84780  0.95260  0.78140  Biso   1.000  C
  C5       1.0000 0.96320  0.89020  0.88940  Biso   1.000  C
  C6       1.0000 0.92380  0.95010  0.75450  Biso   1.000  C
  C7       1.0000 0.02450  0.84960  0.94570  Biso   1.000  C
  C8       1.0000 0.98250  0.91980  0.80990  Biso   1.000  C
  C9       1.0000 0.94950  0.97370  0.66540  Biso   1.000  C
  C10      1.0000 0.08830  0.89790  0.97200  Biso   1.000  C
  C11      1.0000 0.02180  0.76540  0.96400  Biso   1.000  C
  O8       1.0000 0.01730  0.00040  0.65570  Biso   1.000  O
  C12      1.0000 0.14670  0.86060  0.02060  Biso   1.000  C
  C13      1.0000 0.08400  0.72550  0.00920  Biso   1.000  C
  C14      1.0000 0.95030  0.71180  0.94430  Biso   1.000  C
  C15      1.0000 0.14350  0.77490  0.03740  Biso   1.000  C
  C16      1.0000 0.08850  0.63250  0.02360  Biso   1.000  C
  Tb2      1.0000 0.90386  0.54609  0.95706  Biso   1.000  Tb
  O9       1.0000 0.85260  0.40120  0.94810  Biso   1.000  O
  O10      1.0000 0.97040  0.41390  0.99820  Biso   1.000  O
  O11      1.0000 0.90230  0.70120  0.00240  Biso   1.000  O
  O12      1.0000 0.94760  0.67790  0.87490  Biso   1.000  O
  O13      1.0000 0.76690  0.57000  0.97330  Biso   1.000  O
  O14      1.0000 0.80860  0.55400  0.84170  Biso   1.000  O
  O15      1.0000 0.89830  0.53430  0.10930  Biso   1.000  O
  C17      1.0000 0.75430  0.56640  0.89410  Biso   1.000  C
  C18      1.0000 0.67120  0.57220  0.86290  Biso   1.000  C
  C19      1.0000 0.61360  0.60590  0.91750  Biso   1.000  C
  C20      1.0000 0.65220  0.54740  0.78140  Biso   1.000  C
  C21      1.0000 0.53680  0.60980  0.88940  Biso   1.000  C
  C22      1.0000 0.57620  0.54990  0.75450  Biso   1.000  C
  C23      1.0000 0.47550  0.65040  0.94570  Biso   1.000  C
  C24      1.0000 0.51750  0.58020  0.80990  Biso   1.000  C
  C25      1.0000 0.55050  0.52630  0.66540  Biso   1.000  C
  C26      1.0000 0.41170  0.60210  0.97200  Biso   1.000  C
  C27      1.0000 0.47820  0.73460  0.96400  Biso   1.000  C
  O16      1.0000 0.48270  0.49960  0.65570  Biso   1.000  O
  C28      1.0000 0.35330  0.63940  0.02060  Biso   1.000  C
  C29      1.0000 0.41600  0.77450  0.00920  Biso   1.000  C
  C30      1.0000 0.54970  0.78820  0.94430  Biso   1.000  C
  C31      1.0000 0.35650  0.72510  0.03740  Biso   1.000  C
  C32      1.0000 0.41150  0.86750  0.02360  Biso   1.000  C
  Tb3      1.0000 0.40386  0.45391  0.54294  Biso   1.000  Tb
  O17      1.0000 0.35260  0.59880  0.55190  Biso   1.000  O
  O18      1.0000 0.47040  0.58610  0.50180  Biso   1.000  O
  O19      1.0000 0.40230  0.29880  0.49760  Biso   1.000  O
  O20      1.0000 0.44760  0.32210  0.62510  Biso   1.000  O
  O21      1.0000 0.26690  0.43000  0.52670  Biso   1.000  O
  O22      1.0000 0.30860  0.44600  0.65830  Biso   1.000  O
  O23      1.0000 0.39830  0.46570  0.39070  Biso   1.000  O
  C33      1.0000 0.25430  0.43360  0.60590  Biso   1.000  C
  C34      1.0000 0.17120  0.42780  0.63710  Biso   1.000  C
  C35      1.0000 0.11360  0.39410  0.58250  Biso   1.000  C
  C36      1.0000 0.15220  0.45260  0.71860  Biso   1.000  C
  C37      1.0000 0.03680  0.39020  0.61060  Biso   1.000  C
  C38      1.0000 0.07620  0.45010  0.74550  Biso   1.000  C
  C39      1.0000 0.97550  0.34960  0.55430  Biso   1.000  C
  C40      1.0000 0.01750  0.41980  0.69010  Biso   1.000  C
  C41      1.0000 0.05050  0.47370  0.83460  Biso   1.000  C
  C42      1.0000 0.91170  0.39790  0.52800  Biso   1.000  C
  C43      1.0000 0.97820  0.26540  0.53600  Biso   1.000  C
  O24      1.0000 0.98270  0.50040  0.84430  Biso   1.000  O
  C44      1.0000 0.85330  0.36060  0.47940  Biso   1.000  C
  C45      1.0000 0.91600  0.22550  0.49080  Biso   1.000  C
  C46      1.0000 0.04970  0.21180  0.55570  Biso   1.000  C
  C47      1.0000 0.85650  0.27490  0.46260  Biso   1.000  C
  C48      1.0000 0.91150  0.13250  0.47640  Biso   1.000  C
  Tb4      1.0000 0.09614  0.04609  0.54294  Biso   1.000  Tb
  O25      1.0000 0.14740  0.90120  0.55190  Biso   1.000  O
  O26      1.0000 0.02960  0.91390  0.50180  Biso   1.000  O
  O27      1.0000 0.09770  0.20120  0.49760  Biso   1.000  O
  O28      1.0000 0.05240  0.17790  0.62510  Biso   1.000  O
  O29      1.0000 0.23310  0.07000  0.52670  Biso   1.000  O
  O30      1.0000 0.19140  0.05400  0.65830  Biso   1.000  O
  O31      1.0000 0.10170  0.03430  0.39070  Biso   1.000  O
  C49      1.0000 0.24570  0.06640  0.60590  Biso   1.000  C
  C50      1.0000 0.32880  0.07220  0.63710  Biso   1.000  C
  C51      1.0000 0.38640  0.10590  0.58250  Biso   1.000  C
  C52      1.0000 0.34780  0.04740  0.71860  Biso   1.000  C
  C53      1.0000 0.46320  0.10980  0.61060  Biso   1.000  C
  C54      1.0000 0.42380  0.04990  0.74550  Biso   1.000  C
  C55      1.0000 0.52450  0.15040  0.55430  Biso   1.000  C
  C56      1.0000 0.48250  0.08020  0.69010  Biso   1.000  C
  C57      1.0000 0.44950  0.02630  0.83460  Biso   1.000  C
  C58      1.0000 0.58830  0.10210  0.52800  Biso   1.000  C
  C59      1.0000 0.52180  0.23460  0.53600  Biso   1.000  C
  O32      1.0000 0.51730  0.99960  0.84430  Biso   1.000  O
  C60      1.0000 0.64670  0.13940  0.47940  Biso   1.000  C
  C61      1.0000 0.58400  0.27450  0.49080  Biso   1.000  C
  C62      1.0000 0.45030  0.28820  0.55570  Biso   1.000  C
  C63      1.0000 0.64350  0.22510  0.46260  Biso   1.000  C
  C64      1.0000 0.58850  0.36750  0.47640  Biso   1.000  C
  Tb5      1.0000 0.40386  0.04609  0.04294  Biso   1.000  Tb
  O33      1.0000 0.35260  0.90120  0.05190  Biso   1.000  O
  O34      1.0000 0.47040  0.91390  0.00180  Biso   1.000  O
  O35      1.0000 0.40230  0.20120  0.99760  Biso   1.000  O
  O36      1.0000 0.44760  0.17790  0.12510  Biso   1.000  O
  O37      1.0000 0.26690  0.07000  0.02670  Biso   1.000  O
  O38      1.0000 0.30860  0.05400  0.15830  Biso   1.000  O
  O39      1.0000 0.39830  0.03430  0.89070  Biso   1.000  O
  C65      1.0000 0.25430  0.06640  0.10590  Biso   1.000  C
  C66      1.0000 0.17120  0.07220  0.13710  Biso   1.000  C
  C67      1.0000 0.11360  0.10590  0.08250  Biso   1.000  C
  C68      1.0000 0.15220  0.04740  0.21860  Biso   1.000  C
  C69      1.0000 0.03680  0.10980  0.11060  Biso   1.000  C
  C70      1.0000 0.07620  0.04990  0.24550  Biso   1.000  C
  C71      1.0000 0.97550  0.15040  0.05430  Biso   1.000  C
  C72      1.0000 0.01750  0.08020  0.19010  Biso   1.000  C
  C73      1.0000 0.05050  0.02630  0.33460  Biso   1.000  C
  C74      1.0000 0.91170  0.10210  0.02800  Biso   1.000  C
  C75      1.0000 0.97820  0.23460  0.03600  Biso   1.000  C
  O40      1.0000 0.98270  0.99960  0.34430  Biso   1.000  O
  C76      1.0000 0.85330  0.13940  0.97940  Biso   1.000  C
  C77      1.0000 0.91600  0.27450  0.99080  Biso   1.000  C
  C78      1.0000 0.04970  0.28820  0.05570  Biso   1.000  C
  C79      1.0000 0.85650  0.22510  0.96260  Biso   1.000  C
  C80      1.0000 0.91150  0.36750  0.97640  Biso   1.000  C
  Tb6      1.0000 0.09614  0.45391  0.04294  Biso   1.000  Tb
  O41      1.0000 0.14740  0.59880  0.05190  Biso   1.000  O
  O42      1.0000 0.02960  0.58610  0.00180  Biso   1.000  O
  O43      1.0000 0.09770  0.29880  0.99760  Biso   1.000  O
  O44      1.0000 0.05240  0.32210  0.12510  Biso   1.000  O
  O45      1.0000 0.23310  0.43000  0.02670  Biso   1.000  O
  O46      1.0000 0.19140  0.44600  0.15830  Biso   1.000  O
  O47      1.0000 0.10170  0.46570  0.89070  Biso   1.000  O
  C81      1.0000 0.24570  0.43360  0.10590  Biso   1.000  C
  C82      1.0000 0.32880  0.42780  0.13710  Biso   1.000  C
  C83      1.0000 0.38640  0.39410  0.08250  Biso   1.000  C
  C84      1.0000 0.34780  0.45260  0.21860  Biso   1.000  C
  C85      1.0000 0.46320  0.39020  0.11060  Biso   1.000  C
  C86      1.0000 0.42380  0.45010  0.24550  Biso   1.000  C
  C87      1.0000 0.52450  0.34960  0.05430  Biso   1.000  C
  C88      1.0000 0.48250  0.41980  0.19010  Biso   1.000  C
  C89      1.0000 0.44950  0.47370  0.33460  Biso   1.000  C
  C90      1.0000 0.58830  0.39790  0.02800  Biso   1.000  C
  C91      1.0000 0.52180  0.26540  0.03600  Biso   1.000  C
  O48      1.0000 0.51730  0.50040  0.34430  Biso   1.000  O
  C92      1.0000 0.64670  0.36060  0.97940  Biso   1.000  C
  C93      1.0000 0.58400  0.22550  0.99080  Biso   1.000  C
  C94      1.0000 0.45030  0.21180  0.05570  Biso   1.000  C
  C95      1.0000 0.64350  0.27490  0.96260  Biso   1.000  C
  C96      1.0000 0.58850  0.13250  0.97640  Biso   1.000  C
  Tb7      1.0000 0.59614  0.54609  0.45706  Biso   1.000  Tb
  O49      1.0000 0.64740  0.40120  0.44810  Biso   1.000  O
  O50      1.0000 0.52960  0.41390  0.49820  Biso   1.000  O
  O51      1.0000 0.59770  0.70120  0.50240  Biso   1.000  O
  O52      1.0000 0.55240  0.67790  0.37490  Biso   1.000  O
  O53      1.0000 0.73310  0.57000  0.47330  Biso   1.000  O
  O54      1.0000 0.69140  0.55400  0.34170  Biso   1.000  O
  O55      1.0000 0.60170  0.53430  0.60930  Biso   1.000  O
  C97      1.0000 0.74570  0.56640  0.39410  Biso   1.000  C
  C98      1.0000 0.82880  0.57220  0.36290  Biso   1.000  C
  C99      1.0000 0.88640  0.60590  0.41750  Biso   1.000  C
  C100     1.0000 0.84780  0.54740  0.28140  Biso   1.000  C
  C101     1.0000 0.96320  0.60980  0.38940  Biso   1.000  C
  C102     1.0000 0.92380  0.54990  0.25450  Biso   1.000  C
  C103     1.0000 0.02450  0.65040  0.44570  Biso   1.000  C
  C104     1.0000 0.98250  0.58020  0.30990  Biso   1.000  C
  C105     1.0000 0.94950  0.52630  0.16540  Biso   1.000  C
  C106     1.0000 0.08830  0.60210  0.47200  Biso   1.000  C
  C107     1.0000 0.02180  0.73460  0.46400  Biso   1.000  C
  O56      1.0000 0.01730  0.49960  0.15570  Biso   1.000  O
  C108     1.0000 0.14670  0.63940  0.52060  Biso   1.000  C
  C109     1.0000 0.08400  0.77450  0.50920  Biso   1.000  C
  C110     1.0000 0.95030  0.78820  0.44430  Biso   1.000  C
  C111     1.0000 0.14350  0.72510  0.53740  Biso   1.000  C
  C112     1.0000 0.08850  0.86750  0.52360  Biso   1.000  C
  Tb8      1.0000 0.90386  0.95391  0.45706  Biso   1.000  Tb
  O57      1.0000 0.85260  0.09880  0.44810  Biso   1.000  O
  O58      1.0000 0.97040  0.08610  0.49820  Biso   1.000  O
  O59      1.0000 0.90230  0.79880  0.50240  Biso   1.000  O
  O60      1.0000 0.94760  0.82210  0.37490  Biso   1.000  O
  O61      1.0000 0.76690  0.93000  0.47330  Biso   1.000  O
  O62      1.0000 0.80860  0.94600  0.34170  Biso   1.000  O
  O63      1.0000 0.89830  0.96570  0.60930  Biso   1.000  O
  C113     1.0000 0.75430  0.93360  0.39410  Biso   1.000  C
  C114     1.0000 0.67120  0.92780  0.36290  Biso   1.000  C
  C115     1.0000 0.61360  0.89410  0.41750  Biso   1.000  C
  C116     1.0000 0.65220  0.95260  0.28140  Biso   1.000  C
  C117     1.0000 0.53680  0.89020  0.38940  Biso   1.000  C
  C118     1.0000 0.57620  0.95010  0.25450  Biso   1.000  C
  C119     1.0000 0.47550  0.84960  0.44570  Biso   1.000  C
  C120     1.0000 0.51750  0.91980  0.30990  Biso   1.000  C
  C121     1.0000 0.55050  0.97370  0.16540  Biso   1.000  C
  C122     1.0000 0.41170  0.89790  0.47200  Biso   1.000  C
  C123     1.0000 0.47820  0.76540  0.46400  Biso   1.000  C
  O64      1.0000 0.48270  0.00040  0.15570  Biso   1.000  O
  C124     1.0000 0.35330  0.86060  0.52060  Biso   1.000  C
  C125     1.0000 0.41600  0.72550  0.50920  Biso   1.000  C
  C126     1.0000 0.54970  0.71180  0.44430  Biso   1.000  C
  C127     1.0000 0.35650  0.77490  0.53740  Biso   1.000  C
  C128     1.0000 0.41150  0.63250  0.52360  Biso   1.000  C
