data_image0
_cell_length_a       12.389
_cell_length_b       14.923
_cell_length_c       9.386
_cell_angle_alpha    90
_cell_angle_beta     98.699
_cell_angle_gamma    90

_symmetry_space_group_name_H-M    "P 1"
_symmetry_int_tables_number       1

loop_
  _symmetry_equiv_pos_as_xyz
  'x, y, z'

loop_
  _atom_site_label
  _atom_site_occupancy
  _atom_site_fract_x
  _atom_site_fract_y
  _atom_site_fract_z
  _atom_site_thermal_displace_type
  _atom_site_B_iso_or_equiv
  _atom_site_type_symbol
  P1       1.0000 0.19303  0.17320  0.87670  Biso   1.000  P
  P2       1.0000 0.15605  0.81553  0.78720  Biso   1.000  P
  P3       1.0000 0.52999  0.17600  0.29650  Biso   1.000  P
  P4       1.0000 0.24592  0.96490  0.17220  Biso   1.000  P
  Al1      1.0000 0.27376  0.16899  0.20350  Biso   1.000  Al
  Al2      1.0000 0.05654  0.66957  0.56040  Biso   1.000  Al
  Al3      1.0000 0.35496  0.81160  0.37380  Biso   1.000  Al
  Mg1      1.0000 0.32330  0.98471  0.84140  Biso   1.000  Mg
  O1       1.0000 0.22390  0.06080  0.22410  Biso   1.000  O
  O2       1.0000 0.06060  0.82260  0.87610  Biso   1.000  O
  O3       1.0000 0.11260  0.76600  0.64730  Biso   1.000  O
  O4       1.0000 0.26810  0.19280  0.02020  Biso   1.000  O
  O5       1.0000 0.31130  0.96290  0.05030  Biso   1.000  O
  O6       1.0000 0.19300  0.90800  0.74950  Biso   1.000  O
  O7       1.0000 0.40740  0.17660  0.29140  Biso   1.000  O
  O8       1.0000 0.24460  0.76130  0.87870  Biso   1.000  O
  O9       1.0000 0.56090  0.26930  0.24320  Biso   1.000  O
  O10      1.0000 0.19000  0.25940  0.78410  Biso   1.000  O
  O11      1.0000 0.07610  0.15630  0.90910  Biso   1.000  O
  O12      1.0000 0.30290  0.91520  0.30570  Biso   1.000  O
  O13      1.0000 0.12950  0.92320  0.13380  Biso   1.000  O
  O14      1.0000 0.23060  0.09410  0.79760  Biso   1.000  O
  O15      1.0000 0.58060  0.16840  0.45410  Biso   1.000  O
  O16      1.0000 0.56820  0.10220  0.20760  Biso   1.000  O
  P5       1.0000 0.80697  0.67320  0.62330  Biso   1.000  P
  P6       1.0000 0.84395  0.31553  0.71280  Biso   1.000  P
  P7       1.0000 0.47001  0.67600  0.20350  Biso   1.000  P
  P8       1.0000 0.75408  0.46490  0.32780  Biso   1.000  P
  Al4      1.0000 0.72624  0.66899  0.29650  Biso   1.000  Al
  Al5      1.0000 0.94346  0.16957  0.93960  Biso   1.000  Al
  Al6      1.0000 0.64504  0.31160  0.12620  Biso   1.000  Al
  Mg2      1.0000 0.67670  0.48471  0.65860  Biso   1.000  Mg
  O17      1.0000 0.77610  0.56080  0.27590  Biso   1.000  O
  O18      1.0000 0.93940  0.32260  0.62390  Biso   1.000  O
  O19      1.0000 0.88740  0.26600  0.85270  Biso   1.000  O
  O20      1.0000 0.73190  0.69280  0.47980  Biso   1.000  O
  O21      1.0000 0.68870  0.46290  0.44970  Biso   1.000  O
  O22      1.0000 0.80700  0.40800  0.75050  Biso   1.000  O
  O23      1.0000 0.59260  0.67660  0.20860  Biso   1.000  O
  O24      1.0000 0.75540  0.26130  0.62130  Biso   1.000  O
  O25      1.0000 0.43910  0.76930  0.25680  Biso   1.000  O
  O26      1.0000 0.81000  0.75940  0.71590  Biso   1.000  O
  O27      1.0000 0.92390  0.65630  0.59090  Biso   1.000  O
  O28      1.0000 0.69710  0.41520  0.19430  Biso   1.000  O
  O29      1.0000 0.87050  0.42320  0.36620  Biso   1.000  O
  O30      1.0000 0.76940  0.59410  0.70240  Biso   1.000  O
  O31      1.0000 0.41940  0.66840  0.04590  Biso   1.000  O
  O32      1.0000 0.43180  0.60220  0.29240  Biso   1.000  O
  P9       1.0000 0.80697  0.82680  0.12330  Biso   1.000  P
  P10      1.0000 0.84395  0.18447  0.21280  Biso   1.000  P
  P11      1.0000 0.47001  0.82400  0.70350  Biso   1.000  P
  P12      1.0000 0.75408  0.03510  0.82780  Biso   1.000  P
  Al7      1.0000 0.72624  0.83101  0.79650  Biso   1.000  Al
  Al8      1.0000 0.94346  0.33043  0.43960  Biso   1.000  Al
  Al9      1.0000 0.64504  0.18840  0.62620  Biso   1.000  Al
  Mg3      1.0000 0.67670  0.01529  0.15860  Biso   1.000  Mg
  O33      1.0000 0.77610  0.93920  0.77590  Biso   1.000  O
  O34      1.0000 0.93940  0.17740  0.12390  Biso   1.000  O
  O35      1.0000 0.88740  0.23400  0.35270  Biso   1.000  O
  O36      1.0000 0.73190  0.80720  0.97980  Biso   1.000  O
  O37      1.0000 0.68870  0.03710  0.94970  Biso   1.000  O
  O38      1.0000 0.80700  0.09200  0.25050  Biso   1.000  O
  O39      1.0000 0.59260  0.82340  0.70860  Biso   1.000  O
  O40      1.0000 0.75540  0.23870  0.12130  Biso   1.000  O
  O41      1.0000 0.43910  0.73070  0.75680  Biso   1.000  O
  O42      1.0000 0.81000  0.74060  0.21590  Biso   1.000  O
  O43      1.0000 0.92390  0.84370  0.09090  Biso   1.000  O
  O44      1.0000 0.69710  0.08480  0.69430  Biso   1.000  O
  O45      1.0000 0.87050  0.07680  0.86620  Biso   1.000  O
  O46      1.0000 0.76940  0.90590  0.20240  Biso   1.000  O
  O47      1.0000 0.41940  0.83160  0.54590  Biso   1.000  O
  O48      1.0000 0.43180  0.89780  0.79240  Biso   1.000  O
  P13      1.0000 0.19303  0.32680  0.37670  Biso   1.000  P
  P14      1.0000 0.15605  0.68447  0.28720  Biso   1.000  P
  P15      1.0000 0.52999  0.32400  0.79650  Biso   1.000  P
  P16      1.0000 0.24592  0.53510  0.67220  Biso   1.000  P
  Al10     1.0000 0.27376  0.33101  0.70350  Biso   1.000  Al
  Al11     1.0000 0.05654  0.83043  0.06040  Biso   1.000  Al
  Al12     1.0000 0.35496  0.68840  0.87380  Biso   1.000  Al
  Mg4      1.0000 0.32330  0.51529  0.34140  Biso   1.000  Mg
  O49      1.0000 0.22390  0.43920  0.72410  Biso   1.000  O
  O50      1.0000 0.06060  0.67740  0.37610  Biso   1.000  O
  O51      1.0000 0.11260  0.73400  0.14730  Biso   1.000  O
  O52      1.0000 0.26810  0.30720  0.52020  Biso   1.000  O
  O53      1.0000 0.31130  0.53710  0.55030  Biso   1.000  O
  O54      1.0000 0.19300  0.59200  0.24950  Biso   1.000  O
  O55      1.0000 0.40740  0.32340  0.79140  Biso   1.000  O
  O56      1.0000 0.24460  0.73870  0.37870  Biso   1.000  O
  O57      1.0000 0.56090  0.23070  0.74320  Biso   1.000  O
  O58      1.0000 0.19000  0.24060  0.28410  Biso   1.000  O
  O59      1.0000 0.07610  0.34370  0.40910  Biso   1.000  O
  O60      1.0000 0.30290  0.58480  0.80570  Biso   1.000  O
  O61      1.0000 0.12950  0.57680  0.63380  Biso   1.000  O
  O62      1.0000 0.23060  0.40590  0.29760  Biso   1.000  O
  O63      1.0000 0.58060  0.33160  0.95410  Biso   1.000  O
  O64      1.0000 0.56820  0.39780  0.70760  Biso   1.000  O
