data_image0
_cell_length_a       7.8046
_cell_length_b       21.3806
_cell_length_c       19.8173
_cell_angle_alpha    90
_cell_angle_beta     98.582
_cell_angle_gamma    90

_symmetry_space_group_name_H-M    "P 1"
_symmetry_int_tables_number       1

loop_
  _symmetry_equiv_pos_as_xyz
  'x, y, z'

loop_
  _atom_site_label
  _atom_site_occupancy
  _atom_site_fract_x
  _atom_site_fract_y
  _atom_site_fract_z
  _atom_site_thermal_displace_type
  _atom_site_B_iso_or_equiv
  _atom_site_type_symbol
  La1      1.0000 0.98845  0.22323  0.25543  Biso   1.000  La
  O1       1.0000 0.12770  0.11590  0.23480  Biso   1.000  O
  H1       1.0000 0.20540  0.10050  0.26480  Biso   1.000  H
  H2       1.0000 0.07100  0.11620  0.19470  Biso   1.000  H
  O2       1.0000 0.82470  0.17280  0.14660  Biso   1.000  O
  O3       1.0000 0.69850  0.25990  0.17330  Biso   1.000  O
  C1       1.0000 0.71530  0.21490  0.13140  Biso   1.000  C
  C2       1.0000 0.60230  0.21540  0.06360  Biso   1.000  C
  C3       1.0000 0.55410  0.15870  0.03220  Biso   1.000  C
  C4       1.0000 0.54910  0.27100  0.03250  Biso   1.000  C
  O4       1.0000 0.31320  0.21040  0.32410  Biso   1.000  O
  O5       1.0000 0.09600  0.18080  0.37540  Biso   1.000  O
  C5       1.0000 0.25680  0.18950  0.37670  Biso   1.000  C
  C6       1.0000 0.38070  0.17760  0.44060  Biso   1.000  C
  C7       1.0000 0.32120  0.17310  0.50390  Biso   1.000  C
  C8       1.0000 0.55610  0.17640  0.43760  Biso   1.000  C
  H3       1.0000 0.59340  0.17790  0.39520  Biso   1.000  H
  O6       1.0000 0.22890  0.33320  0.28610  Biso   1.000  O
  O7       1.0000 0.97900  0.33870  0.21720  Biso   1.000  O
  C9       1.0000 0.10690  0.36520  0.25090  Biso   1.000  C
  C10      1.0000 0.11970  0.43460  0.25070  Biso   1.000  C
  C11      1.0000 0.23720  0.46640  0.29830  Biso   1.000  C
  C12      1.0000 0.00450  0.46790  0.20190  Biso   1.000  C
  N1       1.0000 0.15000  0.16140  0.51090  Biso   1.000  N
  N2       1.0000 0.35400  0.44140  0.35170  Biso   1.000  N
  N3       1.0000 0.63600  0.10030  0.05250  Biso   1.000  N
  N4       1.0000 0.87900  0.43900  0.15900  Biso   1.000  N
  N5       1.0000 0.60200  0.32600  0.05700  Biso   1.000  N
  La2      1.0000 0.48845  0.72323  0.25543  Biso   1.000  La
  O8       1.0000 0.62770  0.61590  0.23480  Biso   1.000  O
  H4       1.0000 0.70540  0.60050  0.26480  Biso   1.000  H
  H5       1.0000 0.57100  0.61620  0.19470  Biso   1.000  H
  O9       1.0000 0.32470  0.67280  0.14660  Biso   1.000  O
  O10      1.0000 0.19850  0.75990  0.17330  Biso   1.000  O
  C13      1.0000 0.21530  0.71490  0.13140  Biso   1.000  C
  C14      1.0000 0.10230  0.71540  0.06360  Biso   1.000  C
  C15      1.0000 0.05410  0.65870  0.03220  Biso   1.000  C
  C16      1.0000 0.04910  0.77100  0.03250  Biso   1.000  C
  O11      1.0000 0.81320  0.71040  0.32410  Biso   1.000  O
  O12      1.0000 0.59600  0.68080  0.37540  Biso   1.000  O
  C17      1.0000 0.75680  0.68950  0.37670  Biso   1.000  C
  C18      1.0000 0.88070  0.67760  0.44060  Biso   1.000  C
  C19      1.0000 0.82120  0.67310  0.50390  Biso   1.000  C
  C20      1.0000 0.05610  0.67640  0.43760  Biso   1.000  C
  H6       1.0000 0.09340  0.67790  0.39520  Biso   1.000  H
  O13      1.0000 0.72890  0.83320  0.28610  Biso   1.000  O
  O14      1.0000 0.47900  0.83870  0.21720  Biso   1.000  O
  C21      1.0000 0.60690  0.86520  0.25090  Biso   1.000  C
  C22      1.0000 0.61970  0.93460  0.25070  Biso   1.000  C
  C23      1.0000 0.73720  0.96640  0.29830  Biso   1.000  C
  C24      1.0000 0.50450  0.96790  0.20190  Biso   1.000  C
  N6       1.0000 0.65000  0.66140  0.51090  Biso   1.000  N
  N7       1.0000 0.85400  0.94140  0.35170  Biso   1.000  N
  N8       1.0000 0.13600  0.60030  0.05250  Biso   1.000  N
  N9       1.0000 0.37900  0.93900  0.15900  Biso   1.000  N
  N10      1.0000 0.10200  0.82600  0.05700  Biso   1.000  N
  La3      1.0000 0.01155  0.22323  0.74457  Biso   1.000  La
  O15      1.0000 0.87230  0.11590  0.76520  Biso   1.000  O
  H7       1.0000 0.79460  0.10050  0.73520  Biso   1.000  H
  H8       1.0000 0.92900  0.11620  0.80530  Biso   1.000  H
  O16      1.0000 0.17530  0.17280  0.85340  Biso   1.000  O
  O17      1.0000 0.30150  0.25990  0.82670  Biso   1.000  O
  C25      1.0000 0.28470  0.21490  0.86860  Biso   1.000  C
  C26      1.0000 0.39770  0.21540  0.93640  Biso   1.000  C
  C27      1.0000 0.44590  0.15870  0.96780  Biso   1.000  C
  C28      1.0000 0.45090  0.27100  0.96750  Biso   1.000  C
  O18      1.0000 0.68680  0.21040  0.67590  Biso   1.000  O
  O19      1.0000 0.90400  0.18080  0.62460  Biso   1.000  O
  C29      1.0000 0.74320  0.18950  0.62330  Biso   1.000  C
  C30      1.0000 0.61930  0.17760  0.55940  Biso   1.000  C
  C31      1.0000 0.67880  0.17310  0.49610  Biso   1.000  C
  C32      1.0000 0.44390  0.17640  0.56240  Biso   1.000  C
  H9       1.0000 0.40660  0.17790  0.60480  Biso   1.000  H
  O20      1.0000 0.77110  0.33320  0.71390  Biso   1.000  O
  O21      1.0000 0.02100  0.33870  0.78280  Biso   1.000  O
  C33      1.0000 0.89310  0.36520  0.74910  Biso   1.000  C
  C34      1.0000 0.88030  0.43460  0.74930  Biso   1.000  C
  C35      1.0000 0.76280  0.46640  0.70170  Biso   1.000  C
  C36      1.0000 0.99550  0.46790  0.79810  Biso   1.000  C
  N11      1.0000 0.85000  0.16140  0.48910  Biso   1.000  N
  N12      1.0000 0.64600  0.44140  0.64830  Biso   1.000  N
  N13      1.0000 0.36400  0.10030  0.94750  Biso   1.000  N
  N14      1.0000 0.12100  0.43900  0.84100  Biso   1.000  N
  N15      1.0000 0.39800  0.32600  0.94300  Biso   1.000  N
  La4      1.0000 0.51155  0.72323  0.74457  Biso   1.000  La
  O22      1.0000 0.37230  0.61590  0.76520  Biso   1.000  O
  H10      1.0000 0.29460  0.60050  0.73520  Biso   1.000  H
  H11      1.0000 0.42900  0.61620  0.80530  Biso   1.000  H
  O23      1.0000 0.67530  0.67280  0.85340  Biso   1.000  O
  O24      1.0000 0.80150  0.75990  0.82670  Biso   1.000  O
  C37      1.0000 0.78470  0.71490  0.86860  Biso   1.000  C
  C38      1.0000 0.89770  0.71540  0.93640  Biso   1.000  C
  C39      1.0000 0.94590  0.65870  0.96780  Biso   1.000  C
  C40      1.0000 0.95090  0.77100  0.96750  Biso   1.000  C
  O25      1.0000 0.18680  0.71040  0.67590  Biso   1.000  O
  O26      1.0000 0.40400  0.68080  0.62460  Biso   1.000  O
  C41      1.0000 0.24320  0.68950  0.62330  Biso   1.000  C
  C42      1.0000 0.11930  0.67760  0.55940  Biso   1.000  C
  C43      1.0000 0.17880  0.67310  0.49610  Biso   1.000  C
  C44      1.0000 0.94390  0.67640  0.56240  Biso   1.000  C
  H12      1.0000 0.90660  0.67790  0.60480  Biso   1.000  H
  O27      1.0000 0.27110  0.83320  0.71390  Biso   1.000  O
  O28      1.0000 0.52100  0.83870  0.78280  Biso   1.000  O
  C45      1.0000 0.39310  0.86520  0.74910  Biso   1.000  C
  C46      1.0000 0.38030  0.93460  0.74930  Biso   1.000  C
  C47      1.0000 0.26280  0.96640  0.70170  Biso   1.000  C
  C48      1.0000 0.49550  0.96790  0.79810  Biso   1.000  C
  N16      1.0000 0.35000  0.66140  0.48910  Biso   1.000  N
  N17      1.0000 0.14600  0.94140  0.64830  Biso   1.000  N
  N18      1.0000 0.86400  0.60030  0.94750  Biso   1.000  N
  N19      1.0000 0.62100  0.93900  0.84100  Biso   1.000  N
  N20      1.0000 0.89800  0.82600  0.94300  Biso   1.000  N
  La5      1.0000 0.01155  0.77677  0.74457  Biso   1.000  La
  O29      1.0000 0.87230  0.88410  0.76520  Biso   1.000  O
  H13      1.0000 0.79460  0.89950  0.73520  Biso   1.000  H
  H14      1.0000 0.92900  0.88380  0.80530  Biso   1.000  H
  O30      1.0000 0.17530  0.82720  0.85340  Biso   1.000  O
  O31      1.0000 0.30150  0.74010  0.82670  Biso   1.000  O
  C49      1.0000 0.28470  0.78510  0.86860  Biso   1.000  C
  C50      1.0000 0.39770  0.78460  0.93640  Biso   1.000  C
  C51      1.0000 0.44590  0.84130  0.96780  Biso   1.000  C
  C52      1.0000 0.45090  0.72900  0.96750  Biso   1.000  C
  O32      1.0000 0.68680  0.78960  0.67590  Biso   1.000  O
  O33      1.0000 0.90400  0.81920  0.62460  Biso   1.000  O
  C53      1.0000 0.74320  0.81050  0.62330  Biso   1.000  C
  C54      1.0000 0.61930  0.82240  0.55940  Biso   1.000  C
  C55      1.0000 0.67880  0.82690  0.49610  Biso   1.000  C
  C56      1.0000 0.44390  0.82360  0.56240  Biso   1.000  C
  H15      1.0000 0.40660  0.82210  0.60480  Biso   1.000  H
  O34      1.0000 0.77110  0.66680  0.71390  Biso   1.000  O
  O35      1.0000 0.02100  0.66130  0.78280  Biso   1.000  O
  C57      1.0000 0.89310  0.63480  0.74910  Biso   1.000  C
  C58      1.0000 0.88030  0.56540  0.74930  Biso   1.000  C
  C59      1.0000 0.76280  0.53360  0.70170  Biso   1.000  C
  C60      1.0000 0.99550  0.53210  0.79810  Biso   1.000  C
  N21      1.0000 0.85000  0.83860  0.48910  Biso   1.000  N
  N22      1.0000 0.64600  0.55860  0.64830  Biso   1.000  N
  N23      1.0000 0.36400  0.89970  0.94750  Biso   1.000  N
  N24      1.0000 0.12100  0.56100  0.84100  Biso   1.000  N
  N25      1.0000 0.39800  0.67400  0.94300  Biso   1.000  N
  La6      1.0000 0.51155  0.27677  0.74457  Biso   1.000  La
  O36      1.0000 0.37230  0.38410  0.76520  Biso   1.000  O
  H16      1.0000 0.29460  0.39950  0.73520  Biso   1.000  H
  H17      1.0000 0.42900  0.38380  0.80530  Biso   1.000  H
  O37      1.0000 0.67530  0.32720  0.85340  Biso   1.000  O
  O38      1.0000 0.80150  0.24010  0.82670  Biso   1.000  O
  C61      1.0000 0.78470  0.28510  0.86860  Biso   1.000  C
  C62      1.0000 0.89770  0.28460  0.93640  Biso   1.000  C
  C63      1.0000 0.94590  0.34130  0.96780  Biso   1.000  C
  C64      1.0000 0.95090  0.22900  0.96750  Biso   1.000  C
  O39      1.0000 0.18680  0.28960  0.67590  Biso   1.000  O
  O40      1.0000 0.40400  0.31920  0.62460  Biso   1.000  O
  C65      1.0000 0.24320  0.31050  0.62330  Biso   1.000  C
  C66      1.0000 0.11930  0.32240  0.55940  Biso   1.000  C
  C67      1.0000 0.17880  0.32690  0.49610  Biso   1.000  C
  C68      1.0000 0.94390  0.32360  0.56240  Biso   1.000  C
  H18      1.0000 0.90660  0.32210  0.60480  Biso   1.000  H
  O41      1.0000 0.27110  0.16680  0.71390  Biso   1.000  O
  O42      1.0000 0.52100  0.16130  0.78280  Biso   1.000  O
  C69      1.0000 0.39310  0.13480  0.74910  Biso   1.000  C
  C70      1.0000 0.38030  0.06540  0.74930  Biso   1.000  C
  C71      1.0000 0.26280  0.03360  0.70170  Biso   1.000  C
  C72      1.0000 0.49550  0.03210  0.79810  Biso   1.000  C
  N26      1.0000 0.35000  0.33860  0.48910  Biso   1.000  N
  N27      1.0000 0.14600  0.05860  0.64830  Biso   1.000  N
  N28      1.0000 0.86400  0.39970  0.94750  Biso   1.000  N
  N29      1.0000 0.62100  0.06100  0.84100  Biso   1.000  N
  N30      1.0000 0.89800  0.17400  0.94300  Biso   1.000  N
  La7      1.0000 0.98845  0.77677  0.25543  Biso   1.000  La
  O43      1.0000 0.12770  0.88410  0.23480  Biso   1.000  O
  H19      1.0000 0.20540  0.89950  0.26480  Biso   1.000  H
  H20      1.0000 0.07100  0.88380  0.19470  Biso   1.000  H
  O44      1.0000 0.82470  0.82720  0.14660  Biso   1.000  O
  O45      1.0000 0.69850  0.74010  0.17330  Biso   1.000  O
  C73      1.0000 0.71530  0.78510  0.13140  Biso   1.000  C
  C74      1.0000 0.60230  0.78460  0.06360  Biso   1.000  C
  C75      1.0000 0.55410  0.84130  0.03220  Biso   1.000  C
  C76      1.0000 0.54910  0.72900  0.03250  Biso   1.000  C
  O46      1.0000 0.31320  0.78960  0.32410  Biso   1.000  O
  O47      1.0000 0.09600  0.81920  0.37540  Biso   1.000  O
  C77      1.0000 0.25680  0.81050  0.37670  Biso   1.000  C
  C78      1.0000 0.38070  0.82240  0.44060  Biso   1.000  C
  C79      1.0000 0.32120  0.82690  0.50390  Biso   1.000  C
  C80      1.0000 0.55610  0.82360  0.43760  Biso   1.000  C
  H21      1.0000 0.59340  0.82210  0.39520  Biso   1.000  H
  O48      1.0000 0.22890  0.66680  0.28610  Biso   1.000  O
  O49      1.0000 0.97900  0.66130  0.21720  Biso   1.000  O
  C81      1.0000 0.10690  0.63480  0.25090  Biso   1.000  C
  C82      1.0000 0.11970  0.56540  0.25070  Biso   1.000  C
  C83      1.0000 0.23720  0.53360  0.29830  Biso   1.000  C
  C84      1.0000 0.00450  0.53210  0.20190  Biso   1.000  C
  N31      1.0000 0.15000  0.83860  0.51090  Biso   1.000  N
  N32      1.0000 0.35400  0.55860  0.35170  Biso   1.000  N
  N33      1.0000 0.63600  0.89970  0.05250  Biso   1.000  N
  N34      1.0000 0.87900  0.56100  0.15900  Biso   1.000  N
  N35      1.0000 0.60200  0.67400  0.05700  Biso   1.000  N
  La8      1.0000 0.48845  0.27677  0.25543  Biso   1.000  La
  O50      1.0000 0.62770  0.38410  0.23480  Biso   1.000  O
  H22      1.0000 0.70540  0.39950  0.26480  Biso   1.000  H
  H23      1.0000 0.57100  0.38380  0.19470  Biso   1.000  H
  O51      1.0000 0.32470  0.32720  0.14660  Biso   1.000  O
  O52      1.0000 0.19850  0.24010  0.17330  Biso   1.000  O
  C85      1.0000 0.21530  0.28510  0.13140  Biso   1.000  C
  C86      1.0000 0.10230  0.28460  0.06360  Biso   1.000  C
  C87      1.0000 0.05410  0.34130  0.03220  Biso   1.000  C
  C88      1.0000 0.04910  0.22900  0.03250  Biso   1.000  C
  O53      1.0000 0.81320  0.28960  0.32410  Biso   1.000  O
  O54      1.0000 0.59600  0.31920  0.37540  Biso   1.000  O
  C89      1.0000 0.75680  0.31050  0.37670  Biso   1.000  C
  C90      1.0000 0.88070  0.32240  0.44060  Biso   1.000  C
  C91      1.0000 0.82120  0.32690  0.50390  Biso   1.000  C
  C92      1.0000 0.05610  0.32360  0.43760  Biso   1.000  C
  H24      1.0000 0.09340  0.32210  0.39520  Biso   1.000  H
  O55      1.0000 0.72890  0.16680  0.28610  Biso   1.000  O
  O56      1.0000 0.47900  0.16130  0.21720  Biso   1.000  O
  C93      1.0000 0.60690  0.13480  0.25090  Biso   1.000  C
  C94      1.0000 0.61970  0.06540  0.25070  Biso   1.000  C
  C95      1.0000 0.73720  0.03360  0.29830  Biso   1.000  C
  C96      1.0000 0.50450  0.03210  0.20190  Biso   1.000  C
  N36      1.0000 0.65000  0.33860  0.51090  Biso   1.000  N
  N37      1.0000 0.85400  0.05860  0.35170  Biso   1.000  N
  N38      1.0000 0.13600  0.39970  0.05250  Biso   1.000  N
  N39      1.0000 0.37900  0.06100  0.15900  Biso   1.000  N
  N40      1.0000 0.10200  0.17400  0.05700  Biso   1.000  N
