data_SOSSEA_clean
_audit_creation_date              2015-10-16
_audit_creation_method            'Materials Studio'
_symmetry_space_group_name_H-M    'P1'
_symmetry_Int_Tables_number       1
_symmetry_cell_setting            triclinic
loop_
_symmetry_equiv_pos_as_xyz
  x,y,z
_cell_length_a                    12.1005
_cell_length_b                    18.2101
_cell_length_c                    18.2101
_cell_angle_alpha                 64.7602
_cell_angle_beta                  77.2029
_cell_angle_gamma                 102.7970
loop_
_atom_site_label
_atom_site_type_symbol
_atom_site_fract_x
_atom_site_fract_y
_atom_site_fract_z
_atom_site_U_iso_or_equiv
_atom_site_adp_type
_atom_site_occupancy
Cd1    Cd    0.00000   0.50000   0.00000   0.01267  Uiso   1.00
Cd2    Cd    0.00000   0.00000   0.00000   0.01267  Uiso   1.00
Cd3    Cd    0.00000   0.00000   0.50000   0.01267  Uiso   1.00
Cd4    Cd    0.50000   0.50000   0.50000   0.01267  Uiso   1.00
H1     H     0.86240   0.72020   0.76140   0.01267  Uiso   1.00
H2     H     0.74250   0.61020   0.51220   0.01267  Uiso   1.00
H3     H     0.73960   0.93330   0.97260   0.01267  Uiso   1.00
H4     H     0.00740   0.32520   0.07310   0.01267  Uiso   1.00
H5     H     0.54560   0.40330   0.20140   0.01267  Uiso   1.00
H6     H     0.22140   0.77620   0.12210   0.01267  Uiso   1.00
H7     H     0.26290   0.86500   0.36270   0.01267  Uiso   1.00
H8     H     0.44520   0.10170   0.77620   0.01267  Uiso   1.00
H9     H     0.79670   0.91290   0.38190   0.01267  Uiso   1.00
H10    H     0.75150   0.75980   0.32500   0.01267  Uiso   1.00
H11    H     0.59980   0.77400   0.86940   0.01267  Uiso   1.00
H12    H     0.92350   0.67500   0.08480   0.01267  Uiso   1.00
H13    H     0.90220   0.83810   0.19150   0.01267  Uiso   1.00
H14    H     0.17860   0.38190   0.70520   0.01267  Uiso   1.00
H15    H     0.00830   0.08480   0.24020   0.01267  Uiso   1.00
H16    H     0.88380   0.70520   0.91290   0.01267  Uiso   1.00
H17    H     0.85260   0.83980   0.40330   0.01267  Uiso   1.00
H18    H     0.06410   0.97040   0.83810   0.01267  Uiso   1.00
H19    H     0.82580   0.35660   0.77400   0.01267  Uiso   1.00
H20    H     0.17420   0.64340   0.22600   0.01267  Uiso   1.00
H21    H     0.20330   0.08710   0.61810   0.01267  Uiso   1.00
H22    H     0.07650   0.32500   0.91520   0.01267  Uiso   1.00
H23    H     0.80790   0.63050   0.70830   0.01267  Uiso   1.00
H24    H     0.53080   0.13060   0.64340   0.01267  Uiso   1.00
H25    H     0.86770   0.12240   0.38980   0.01267  Uiso   1.00
H26    H     0.25300   0.79860   0.60470   0.01267  Uiso   1.00
H27    H     0.47890   0.62450   0.32020   0.01267  Uiso   1.00
H28    H     0.14220   0.51840   0.72020   0.01267  Uiso   1.00
H29    H     0.14230   0.39530   0.40330   0.01267  Uiso   1.00
H30    H     0.90630   0.80850   0.02960   0.01267  Uiso   1.00
H31    H     0.73710   0.13500   0.63730   0.01267  Uiso   1.00
H32    H     0.40020   0.22600   0.13060   0.01267  Uiso   1.00
H33    H     0.01280   0.75690   0.83980   0.01267  Uiso   1.00
H34    H     0.25590   0.40330   0.75690   0.01267  Uiso   1.00
H35    H     0.08050   0.07310   0.60170   0.01267  Uiso   1.00
H36    H     0.79910   0.32020   0.05530   0.01267  Uiso   1.00
H37    H     0.14560   0.94470   0.37550   0.01267  Uiso   1.00
H38    H     0.99260   0.67480   0.92690   0.01267  Uiso   1.00
H39    H     0.82140   0.61810   0.29480   0.01267  Uiso   1.00
H40    H     0.85780   0.48160   0.27980   0.01267  Uiso   1.00
H41    H     0.65650   0.87790   0.89830   0.01267  Uiso   1.00
H42    H     0.80630   0.09410   0.93330   0.01267  Uiso   1.00
H43    H     0.48380   0.29170   0.33880   0.01267  Uiso   1.00
H44    H     0.19210   0.36950   0.29170   0.01267  Uiso   1.00
H45    H     0.93590   0.02960   0.16190   0.01267  Uiso   1.00
H46    H     0.68220   0.60170   0.32520   0.01267  Uiso   1.00
H47    H     0.11620   0.29480   0.08710   0.01267  Uiso   1.00
H48    H     0.09780   0.16190   0.80850   0.01267  Uiso   1.00
H49    H     0.37620   0.23860   0.48160   0.01267  Uiso   1.00
H50    H     0.45440   0.59670   0.79860   0.01267  Uiso   1.00
H51    H     0.98720   0.24310   0.16020   0.01267  Uiso   1.00
H52    H     0.28780   0.02740   0.90590   0.01267  Uiso   1.00
H53    H     0.25750   0.38980   0.48780   0.01267  Uiso   1.00
H54    H     0.39790   0.77230   0.86500   0.01267  Uiso   1.00
H55    H     0.24850   0.24020   0.67500   0.01267  Uiso   1.00
H56    H     0.14740   0.16020   0.59670   0.01267  Uiso   1.00
H57    H     0.77860   0.22380   0.87790   0.01267  Uiso   1.00
H58    H     0.25470   0.51220   0.87760   0.01267  Uiso   1.00
H59    H     0.74530   0.48780   0.12240   0.01267  Uiso   1.00
H60    H     0.09370   0.19150   0.97040   0.01267  Uiso   1.00
H61    H     0.71220   0.97260   0.09410   0.01267  Uiso   1.00
H62    H     0.26040   0.06670   0.02740   0.01267  Uiso   1.00
H63    H     0.85440   0.05530   0.62450   0.01267  Uiso   1.00
H64    H     0.37440   0.63730   0.22770   0.01267  Uiso   1.00
H65    H     0.13230   0.87760   0.61020   0.01267  Uiso   1.00
H66    H     0.13760   0.27980   0.23860   0.01267  Uiso   1.00
H67    H     0.74410   0.59670   0.24310   0.01267  Uiso   1.00
H68    H     0.55480   0.89830   0.22380   0.01267  Uiso   1.00
H69    H     0.62560   0.36270   0.77230   0.01267  Uiso   1.00
H70    H     0.19370   0.90590   0.06670   0.01267  Uiso   1.00
H71    H     0.17740   0.66120   0.63050   0.01267  Uiso   1.00
H72    H     0.85770   0.60470   0.59670   0.01267  Uiso   1.00
H73    H     0.51620   0.70830   0.66120   0.01267  Uiso   1.00
H74    H     0.82260   0.33880   0.36950   0.01267  Uiso   1.00
H75    H     0.31780   0.39830   0.67480   0.01267  Uiso   1.00
H76    H     0.34350   0.12210   0.10170   0.01267  Uiso   1.00
H77    H     0.60210   0.22770   0.13500   0.01267  Uiso   1.00
H78    H     0.46920   0.86940   0.35660   0.01267  Uiso   1.00
H79    H     0.52110   0.37550   0.67980   0.01267  Uiso   1.00
H80    H     0.20090   0.67980   0.94470   0.01267  Uiso   1.00
H81    H     0.62380   0.76140   0.51840   0.01267  Uiso   1.00
H82    H     0.74700   0.20140   0.39530   0.01267  Uiso   1.00
H83    H     0.99170   0.91520   0.75980   0.01267  Uiso   1.00
H84    H     0.91950   0.92690   0.39830   0.01267  Uiso   1.00
C1     C     0.13582   0.46473   0.22007   0.01267  Uiso   1.00
C2     C     0.15837   0.11498   0.58517   0.01267  Uiso   1.00
C3     C     0.94742   0.43720   0.87860   0.01267  Uiso   1.00
C4     C     0.46846   0.22881   0.62272   0.01267  Uiso   1.00
C5     C     0.79137   0.93008   0.92897   0.01267  Uiso   1.00
C6     C     0.35589   0.22007   0.31520   0.01267  Uiso   1.00
C7     C     0.25982   0.10389   0.11553   0.01267  Uiso   1.00
C8     C     0.79257   0.44979   0.33238   0.01267  Uiso   1.00
C9     C     0.76279   0.84303   0.64026   0.01267  Uiso   1.00
C10    C     0.64482   0.22675   0.52709   0.01267  Uiso   1.00
C11    C     0.37535   0.11553   0.78058   0.01267  Uiso   1.00
C12    C     0.17398   0.12140   0.31580   0.01267  Uiso   1.00
C13    C     0.02931   0.19810   0.95156   0.01267  Uiso   1.00
C14    C     0.74060   0.80276   0.27901   0.01267  Uiso   1.00
C15    C     0.81354   0.88896   0.81882   0.01267  Uiso   1.00
C16    C     0.95661   0.70015   0.88502   0.01267  Uiso   1.00
C17    C     0.41807   0.24616   0.22675   0.01267  Uiso   1.00
C18    C     0.32891   0.68480   0.53527   0.01267  Uiso   1.00
C19    C     0.25646   0.41483   0.70015   0.01267  Uiso   1.00
C20    C     0.20863   0.06992   0.07103   0.01267  Uiso   1.00
C21    C     0.40629   0.24979   0.36472   0.01267  Uiso   1.00
C22    C     0.06216   0.08177   0.19724   0.01267  Uiso   1.00
C23    C     0.62465   0.88447   0.21942   0.01267  Uiso   1.00
C24    C     0.40565   0.61592   0.82787   0.01267  Uiso   1.00
C25    C     0.45431   0.69346   0.82243   0.01267  Uiso   1.00
C26    C     0.16879   0.14966   0.80190   0.01267  Uiso   1.00
C27    C     0.90882   0.37728   0.85153   0.01267  Uiso   1.00
C28    C     0.23352   0.82787   0.55621   0.01267  Uiso   1.00
C29    C     0.25940   0.19724   0.72099   0.01267  Uiso   1.00
C30    C     0.77321   0.84654   0.50991   0.01267  Uiso   1.00
C31    C     0.25356   0.66330   0.91482   0.01267  Uiso   1.00
C32    C     0.91976   0.51671   0.84303   0.01267  Uiso   1.00
C33    C     0.72326   0.17757   0.51589   0.01267  Uiso   1.00
C34    C     0.54674   0.18799   0.60257   0.01267  Uiso   1.00
C35    C     0.92458   0.29222   0.88896   0.01267  Uiso   1.00
C36    C     0.48978   0.31580   0.56280   0.01267  Uiso   1.00
C37    C     0.27674   0.82243   0.48411   0.01267  Uiso   1.00
C38    C     0.76035   0.85153   0.77119   0.01267  Uiso   1.00
C39    C     0.16838   0.91482   0.42188   0.01267  Uiso   1.00
C40    C     0.72034   0.92897   0.14095   0.01267  Uiso   1.00
C41    C     0.36764   0.18118   0.70778   0.01267  Uiso   1.00
C42    C     0.83162   0.08518   0.57812   0.01267  Uiso   1.00
C43    C     0.14931   0.60257   0.20944   0.01267  Uiso   1.00
C44    C     0.59435   0.38408   0.17213   0.01267  Uiso   1.00
C45    C     0.92667   0.64355   0.84654   0.01267  Uiso   1.00
C46    C     0.67109   0.31520   0.46473   0.01267  Uiso   1.00
C47    C     0.64411   0.77993   0.68480   0.01267  Uiso   1.00
C48    C     0.58193   0.75384   0.77325   0.01267  Uiso   1.00
C49    C     0.62826   0.28111   0.13243   0.01267  Uiso   1.00
C50    C     0.74354   0.58517   0.29985   0.01267  Uiso   1.00
C51    C     0.78973   0.55621   0.61592   0.01267  Uiso   1.00
C52    C     0.23965   0.14847   0.22881   0.01267  Uiso   1.00
C53    C     0.74018   0.89611   0.88447   0.01267  Uiso   1.00
C54    C     0.83121   0.85034   0.19810   0.01267  Uiso   1.00
C55    C     0.15593   0.78058   0.10389   0.01267  Uiso   1.00
C56    C     0.09118   0.62272   0.14847   0.01267  Uiso   1.00
C57    C     0.35518   0.77325   0.47291   0.01267  Uiso   1.00
C58    C     0.65722   0.78217   0.55021   0.01267  Uiso   1.00
C59    C     0.82809   0.47291   0.75384   0.01267  Uiso   1.00
C60    C     0.23721   0.15697   0.35974   0.01267  Uiso   1.00
C61    C     0.64125   0.79056   0.81201   0.01267  Uiso   1.00
C62    C     0.71587   0.43545   0.12354   0.01267  Uiso   1.00
C63    C     0.15650   0.38549   0.24979   0.01267  Uiso   1.00
C64    C     0.23915   0.51589   0.30654   0.01267  Uiso   1.00
C65    C     0.28413   0.56455   0.87646   0.01267  Uiso   1.00
C66    C     0.76069   0.13243   0.58646   0.01267  Uiso   1.00
C67    C     0.83941   0.12354   0.44101   0.01267  Uiso   1.00
C68    C     0.86418   0.53527   0.77993   0.01267  Uiso   1.00
C69    C     0.74644   0.33670   0.08518   0.01267  Uiso   1.00
C70    C     0.34278   0.21783   0.44979   0.01267  Uiso   1.00
C71    C     0.98039   0.72099   0.08177   0.01267  Uiso   1.00
C72    C     0.28042   0.44101   0.43545   0.01267  Uiso   1.00
C73    C     0.12495   0.33238   0.21783   0.01267  Uiso   1.00
C74    C     0.22679   0.15346   0.49009   0.01267  Uiso   1.00
C75    C     0.59026   0.42188   0.66330   0.01267  Uiso   1.00
C76    C     0.04339   0.29985   0.11498   0.01267  Uiso   1.00
C77    C     0.07542   0.70778   0.11104   0.01267  Uiso   1.00
C78    C     0.87505   0.66762   0.78217   0.01267  Uiso   1.00
C79    C     0.01961   0.27901   0.91823   0.01267  Uiso   1.00
C80    C     0.20743   0.55021   0.66762   0.01267  Uiso   1.00
C81    C     0.18646   0.11104   0.18118   0.01267  Uiso   1.00
C82    C     0.84407   0.21942   0.89611   0.01267  Uiso   1.00
C83    C     0.76085   0.48411   0.69346   0.01267  Uiso   1.00
C84    C     0.82602   0.87860   0.68420   0.01267  Uiso   1.00
C85    C     0.98087   0.95156   0.85034   0.01267  Uiso   1.00
C86    C     0.37174   0.71889   0.86757   0.01267  Uiso   1.00
C87    C     0.54569   0.30654   0.17757   0.01267  Uiso   1.00
C88    C     0.21027   0.44379   0.38408   0.01267  Uiso   1.00
C89    C     0.08024   0.48329   0.15697   0.01267  Uiso   1.00
C90    C     0.35875   0.20944   0.18799   0.01267  Uiso   1.00
C91    C     0.59371   0.75021   0.63528   0.01267  Uiso   1.00
C92    C     0.07333   0.35645   0.15346   0.01267  Uiso   1.00
C93    C     0.23931   0.86757   0.41354   0.01267  Uiso   1.00
C94    C     0.84350   0.61451   0.75021   0.01267  Uiso   1.00
C95    C     0.17191   0.52709   0.24616   0.01267  Uiso   1.00
C96    C     0.86129   0.14095   0.93008   0.01267  Uiso   1.00
C97    C     0.01913   0.04844   0.14966   0.01267  Uiso   1.00
C98    C     0.84163   0.88502   0.41483   0.01267  Uiso   1.00
C99    C     0.51022   0.68420   0.43720   0.01267  Uiso   1.00
C100   C     0.05258   0.56280   0.12140   0.01267  Uiso   1.00
C101   C     0.85069   0.39743   0.79056   0.01267  Uiso   1.00
C102   C     0.22899   0.63528   0.61451   0.01267  Uiso   1.00
C103   C     0.97069   0.80190   0.04844   0.01267  Uiso   1.00
C104   C     0.27966   0.07103   0.85905   0.01267  Uiso   1.00
C105   C     0.76648   0.17213   0.44379   0.01267  Uiso   1.00
C106   C     0.45326   0.81201   0.39743   0.01267  Uiso   1.00
C107   C     0.77101   0.36472   0.38549   0.01267  Uiso   1.00
C108   C     0.71688   0.49009   0.35645   0.01267  Uiso   1.00
C109   C     0.63236   0.81882   0.29222   0.01267  Uiso   1.00
C110   C     0.93784   0.91823   0.80276   0.01267  Uiso   1.00
C111   C     0.59695   0.35974   0.48329   0.01267  Uiso   1.00
C112   C     0.40305   0.64026   0.51671   0.01267  Uiso   1.00
C113   C     0.71958   0.55899   0.56455   0.01267  Uiso   1.00
C114   C     0.34715   0.58646   0.28111   0.01267  Uiso   1.00
C115   C     0.40974   0.57812   0.33670   0.01267  Uiso   1.00
C116   C     0.13871   0.85905   0.06992   0.01267  Uiso   1.00
C117   C     0.28312   0.50991   0.64355   0.01267  Uiso   1.00
C118   C     0.53154   0.77119   0.37728   0.01267  Uiso   1.00
C119   C     0.65285   0.41354   0.71889   0.01267  Uiso   1.00
C120   C     0.16059   0.87646   0.55899   0.01267  Uiso   1.00
N1     N     0.04902   0.87215   0.04150   0.01267  Uiso   1.00
N2     N     0.90948   0.95850   0.91365   0.01267  Uiso   1.00
N3     N     0.95098   0.12785   0.95850   0.01267  Uiso   1.00
N4     N     0.37790   0.55414   0.57000   0.01267  Uiso   1.00
N5     N     0.09052   0.04150   0.08635   0.01267  Uiso   1.00
N6     N     0.62524   0.49554   0.58468   0.01267  Uiso   1.00
N7     N     0.17624   0.12414   0.44586   0.01267  Uiso   1.00
N8     N     0.12970   0.91978   0.49554   0.01267  Uiso   1.00
N9     N     0.87030   0.08022   0.50446   0.01267  Uiso   1.00
N10    N     0.37476   0.50446   0.41532   0.01267  Uiso   1.00
N11    N     0.17687   0.08635   0.87215   0.01267  Uiso   1.00
N12    N     0.82376   0.87586   0.55414   0.01267  Uiso   1.00
N13    N     0.94790   0.57000   0.87586   0.01267  Uiso   1.00
N14    N     0.20992   0.58468   0.91978   0.01267  Uiso   1.00
N15    N     0.82313   0.91365   0.12785   0.01267  Uiso   1.00
N16    N     0.05210   0.43000   0.12414   0.01267  Uiso   1.00
N17    N     0.62210   0.44586   0.43000   0.01267  Uiso   1.00
N18    N     0.79008   0.41532   0.08022   0.01267  Uiso   1.00
O1     O     0.99778   0.57667   0.06654   0.01267  Uiso   1.00
O2     O     0.42111   0.35679   0.57667   0.01267  Uiso   1.00
O3     O     0.57889   0.64321   0.42333   0.01267  Uiso   1.00
O4     O     0.00222   0.42333   0.93346   0.01267  Uiso   1.00
O5     O     0.06432   0.06654   0.35679   0.01267  Uiso   1.00
O6     O     0.93568   0.93346   0.64321   0.01267  Uiso   1.00
