data_image0
_cell_length_a       11.684
_cell_length_b       13.62
_cell_length_c       11.748
_cell_angle_alpha    90
_cell_angle_beta     91.427
_cell_angle_gamma    90

_symmetry_space_group_name_H-M    "P 1"
_symmetry_int_tables_number       1

loop_
  _symmetry_equiv_pos_as_xyz
  'x, y, z'

loop_
  _atom_site_label
  _atom_site_occupancy
  _atom_site_fract_x
  _atom_site_fract_y
  _atom_site_fract_z
  _atom_site_thermal_displace_type
  _atom_site_B_iso_or_equiv
  _atom_site_type_symbol
  Be1      1.0000 0.35210  0.24470  0.64510  Biso   1.000  Be
  Be2      1.0000 0.28640  0.60590  0.54010  Biso   1.000  Be
  P1       1.0000 0.30155  0.39836  0.47101  Biso   1.000  P
  P2       1.0000 0.39915  0.24671  0.89904  Biso   1.000  P
  O1       1.0000 0.35330  0.26750  0.77970  Biso   1.000  O
  O2       1.0000 0.29930  0.34140  0.58090  Biso   1.000  O
  O3       1.0000 0.23720  0.34840  0.37210  Biso   1.000  O
  O4       1.0000 0.52410  0.21490  0.90220  Biso   1.000  O
  O5       1.0000 0.25230  0.50100  0.48490  Biso   1.000  O
  O6       1.0000 0.38830  0.34210  0.96980  Biso   1.000  O
  O7       1.0000 0.33070  0.16510  0.95670  Biso   1.000  O
  O8       1.0000 0.42740  0.41110  0.43020  Biso   1.000  O
  H1       1.0000 0.47600  0.38800  0.46400  Biso   1.000  H
  Be3      1.0000 0.85210  0.74470  0.64510  Biso   1.000  Be
  Be4      1.0000 0.78640  0.10590  0.54010  Biso   1.000  Be
  P3       1.0000 0.80155  0.89836  0.47101  Biso   1.000  P
  P4       1.0000 0.89915  0.74671  0.89904  Biso   1.000  P
  O9       1.0000 0.85330  0.76750  0.77970  Biso   1.000  O
  O10      1.0000 0.79930  0.84140  0.58090  Biso   1.000  O
  O11      1.0000 0.73720  0.84840  0.37210  Biso   1.000  O
  O12      1.0000 0.02410  0.71490  0.90220  Biso   1.000  O
  O13      1.0000 0.75230  0.00100  0.48490  Biso   1.000  O
  O14      1.0000 0.88830  0.84210  0.96980  Biso   1.000  O
  O15      1.0000 0.83070  0.66510  0.95670  Biso   1.000  O
  O16      1.0000 0.92740  0.91110  0.43020  Biso   1.000  O
  H2       1.0000 0.97600  0.88800  0.46400  Biso   1.000  H
  Be5      1.0000 0.64790  0.24470  0.85490  Biso   1.000  Be
  Be6      1.0000 0.71360  0.60590  0.95990  Biso   1.000  Be
  P5       1.0000 0.69845  0.39836  0.02899  Biso   1.000  P
  P6       1.0000 0.60085  0.24671  0.60096  Biso   1.000  P
  O17      1.0000 0.64670  0.26750  0.72030  Biso   1.000  O
  O18      1.0000 0.70070  0.34140  0.91910  Biso   1.000  O
  O19      1.0000 0.76280  0.34840  0.12790  Biso   1.000  O
  O20      1.0000 0.47590  0.21490  0.59780  Biso   1.000  O
  O21      1.0000 0.74770  0.50100  0.01510  Biso   1.000  O
  O22      1.0000 0.61170  0.34210  0.53020  Biso   1.000  O
  O23      1.0000 0.66930  0.16510  0.54330  Biso   1.000  O
  O24      1.0000 0.57260  0.41110  0.06980  Biso   1.000  O
  H3       1.0000 0.52400  0.38800  0.03600  Biso   1.000  H
  Be7      1.0000 0.14790  0.74470  0.85490  Biso   1.000  Be
  Be8      1.0000 0.21360  0.10590  0.95990  Biso   1.000  Be
  P7       1.0000 0.19845  0.89836  0.02899  Biso   1.000  P
  P8       1.0000 0.10085  0.74671  0.60096  Biso   1.000  P
  O25      1.0000 0.14670  0.76750  0.72030  Biso   1.000  O
  O26      1.0000 0.20070  0.84140  0.91910  Biso   1.000  O
  O27      1.0000 0.26280  0.84840  0.12790  Biso   1.000  O
  O28      1.0000 0.97590  0.71490  0.59780  Biso   1.000  O
  O29      1.0000 0.24770  0.00100  0.01510  Biso   1.000  O
  O30      1.0000 0.11170  0.84210  0.53020  Biso   1.000  O
  O31      1.0000 0.16930  0.66510  0.54330  Biso   1.000  O
  O32      1.0000 0.07260  0.91110  0.06980  Biso   1.000  O
  H4       1.0000 0.02400  0.88800  0.03600  Biso   1.000  H
  Be9      1.0000 0.64790  0.75530  0.35490  Biso   1.000  Be
  Be10     1.0000 0.71360  0.39410  0.45990  Biso   1.000  Be
  P9       1.0000 0.69845  0.60164  0.52899  Biso   1.000  P
  P10      1.0000 0.60085  0.75329  0.10096  Biso   1.000  P
  O33      1.0000 0.64670  0.73250  0.22030  Biso   1.000  O
  O34      1.0000 0.70070  0.65860  0.41910  Biso   1.000  O
  O35      1.0000 0.76280  0.65160  0.62790  Biso   1.000  O
  O36      1.0000 0.47590  0.78510  0.09780  Biso   1.000  O
  O37      1.0000 0.74770  0.49900  0.51510  Biso   1.000  O
  O38      1.0000 0.61170  0.65790  0.03020  Biso   1.000  O
  O39      1.0000 0.66930  0.83490  0.04330  Biso   1.000  O
  O40      1.0000 0.57260  0.58890  0.56980  Biso   1.000  O
  H5       1.0000 0.52400  0.61200  0.53600  Biso   1.000  H
  Be11     1.0000 0.14790  0.25530  0.35490  Biso   1.000  Be
  Be12     1.0000 0.21360  0.89410  0.45990  Biso   1.000  Be
  P11      1.0000 0.19845  0.10164  0.52899  Biso   1.000  P
  P12      1.0000 0.10085  0.25329  0.10096  Biso   1.000  P
  O41      1.0000 0.14670  0.23250  0.22030  Biso   1.000  O
  O42      1.0000 0.20070  0.15860  0.41910  Biso   1.000  O
  O43      1.0000 0.26280  0.15160  0.62790  Biso   1.000  O
  O44      1.0000 0.97590  0.28510  0.09780  Biso   1.000  O
  O45      1.0000 0.24770  0.99900  0.51510  Biso   1.000  O
  O46      1.0000 0.11170  0.15790  0.03020  Biso   1.000  O
  O47      1.0000 0.16930  0.33490  0.04330  Biso   1.000  O
  O48      1.0000 0.07260  0.08890  0.56980  Biso   1.000  O
  H6       1.0000 0.02400  0.11200  0.53600  Biso   1.000  H
  Be13     1.0000 0.35210  0.75530  0.14510  Biso   1.000  Be
  Be14     1.0000 0.28640  0.39410  0.04010  Biso   1.000  Be
  P13      1.0000 0.30155  0.60164  0.97101  Biso   1.000  P
  P14      1.0000 0.39915  0.75329  0.39904  Biso   1.000  P
  O49      1.0000 0.35330  0.73250  0.27970  Biso   1.000  O
  O50      1.0000 0.29930  0.65860  0.08090  Biso   1.000  O
  O51      1.0000 0.23720  0.65160  0.87210  Biso   1.000  O
  O52      1.0000 0.52410  0.78510  0.40220  Biso   1.000  O
  O53      1.0000 0.25230  0.49900  0.98490  Biso   1.000  O
  O54      1.0000 0.38830  0.65790  0.46980  Biso   1.000  O
  O55      1.0000 0.33070  0.83490  0.45670  Biso   1.000  O
  O56      1.0000 0.42740  0.58890  0.93020  Biso   1.000  O
  H7       1.0000 0.47600  0.61200  0.96400  Biso   1.000  H
  Be15     1.0000 0.85210  0.25530  0.14510  Biso   1.000  Be
  Be16     1.0000 0.78640  0.89410  0.04010  Biso   1.000  Be
  P15      1.0000 0.80155  0.10164  0.97101  Biso   1.000  P
  P16      1.0000 0.89915  0.25329  0.39904  Biso   1.000  P
  O57      1.0000 0.85330  0.23250  0.27970  Biso   1.000  O
  O58      1.0000 0.79930  0.15860  0.08090  Biso   1.000  O
  O59      1.0000 0.73720  0.15160  0.87210  Biso   1.000  O
  O60      1.0000 0.02410  0.28510  0.40220  Biso   1.000  O
  O61      1.0000 0.75230  0.99900  0.98490  Biso   1.000  O
  O62      1.0000 0.88830  0.15790  0.46980  Biso   1.000  O
  O63      1.0000 0.83070  0.33490  0.45670  Biso   1.000  O
  O64      1.0000 0.92740  0.08890  0.93020  Biso   1.000  O
  H8       1.0000 0.97600  0.11200  0.96400  Biso   1.000  H
