data_SOTWUV_clean
_audit_creation_date              2015-10-16
_audit_creation_method            'Materials Studio'
_symmetry_space_group_name_H-M    'P1'
_symmetry_Int_Tables_number       1
_symmetry_cell_setting            triclinic
loop_
_symmetry_equiv_pos_as_xyz
  x,y,z
_cell_length_a                    12.9731
_cell_length_b                    12.9731
_cell_length_c                    14.7810
_cell_angle_alpha                 83.8400
_cell_angle_beta                  83.8400
_cell_angle_gamma                 62.2252
loop_
_atom_site_label
_atom_site_type_symbol
_atom_site_fract_x
_atom_site_fract_y
_atom_site_fract_z
_atom_site_U_iso_or_equiv
_atom_site_adp_type
_atom_site_occupancy
Tb1    Tb    0.01177   0.64992   0.47276   0.01267  Uiso   1.00
Tb2    Tb    0.98823   0.35008   0.52724   0.01267  Uiso   1.00
Tb3    Tb    0.64992   0.01177   0.97276   0.01267  Uiso   1.00
Tb4    Tb    0.35008   0.98823   0.02724   0.01267  Uiso   1.00
H1     H     0.78200   0.73560   0.23520   0.01267  Uiso   1.00
H2     H     0.47610   0.71130   0.83850   0.01267  Uiso   1.00
H3     H     0.70530   0.51850   0.64340   0.01267  Uiso   1.00
H4     H     0.73560   0.78200   0.73520   0.01267  Uiso   1.00
H5     H     0.21800   0.26440   0.76480   0.01267  Uiso   1.00
H6     H     0.28870   0.52390   0.66150   0.01267  Uiso   1.00
H7     H     0.51850   0.70530   0.14340   0.01267  Uiso   1.00
H8     H     0.71130   0.47610   0.33850   0.01267  Uiso   1.00
H9     H     0.48150   0.29470   0.85660   0.01267  Uiso   1.00
H10    H     0.29470   0.48150   0.35660   0.01267  Uiso   1.00
H11    H     0.26440   0.21800   0.26480   0.01267  Uiso   1.00
H12    H     0.52390   0.28870   0.16150   0.01267  Uiso   1.00
C1     C     0.43810   0.14610   0.13710   0.01267  Uiso   1.00
C2     C     0.58160   0.60140   0.74250   0.01267  Uiso   1.00
C3     C     0.64910   0.73390   0.17700   0.01267  Uiso   1.00
C4     C     0.30620   0.45760   0.70070   0.01267  Uiso   1.00
C5     C     0.35090   0.26610   0.82300   0.01267  Uiso   1.00
C6     C     0.53280   0.52100   0.24670   0.01267  Uiso   1.00
C7     C     0.30363   0.26263   0.26350   0.01267  Uiso   1.00
C8     C     0.56190   0.85390   0.86290   0.01267  Uiso   1.00
C9     C     0.45760   0.30620   0.20070   0.01267  Uiso   1.00
C10    C     0.32180   0.42020   0.31860   0.01267  Uiso   1.00
C11    C     0.69380   0.54240   0.29930   0.01267  Uiso   1.00
C12    C     0.24060   0.39820   0.70240   0.01267  Uiso   1.00
C13    C     0.85390   0.56190   0.36290   0.01267  Uiso   1.00
C14    C     0.60140   0.58160   0.24250   0.01267  Uiso   1.00
C15    C     0.39820   0.24060   0.20240   0.01267  Uiso   1.00
C16    C     0.60180   0.75940   0.79760   0.01267  Uiso   1.00
C17    C     0.16800   0.36640   0.39310   0.01267  Uiso   1.00
C18    C     0.42020   0.32180   0.81860   0.01267  Uiso   1.00
C19    C     0.69637   0.73737   0.73650   0.01267  Uiso   1.00
C20    C     0.47900   0.46720   0.25330   0.01267  Uiso   1.00
C21    C     0.41840   0.39860   0.25750   0.01267  Uiso   1.00
C22    C     0.73737   0.69637   0.23650   0.01267  Uiso   1.00
C23    C     0.67820   0.57980   0.68140   0.01267  Uiso   1.00
C24    C     0.36640   0.16800   0.89310   0.01267  Uiso   1.00
C25    C     0.63360   0.83200   0.10690   0.01267  Uiso   1.00
C26    C     0.73390   0.64910   0.67700   0.01267  Uiso   1.00
C27    C     0.46720   0.47900   0.75330   0.01267  Uiso   1.00
C28    C     0.52100   0.53280   0.74670   0.01267  Uiso   1.00
C29    C     0.54240   0.69380   0.79930   0.01267  Uiso   1.00
C30    C     0.26610   0.35090   0.32300   0.01267  Uiso   1.00
C31    C     0.39860   0.41840   0.75750   0.01267  Uiso   1.00
C32    C     0.57980   0.67820   0.18140   0.01267  Uiso   1.00
C33    C     0.83200   0.63360   0.60690   0.01267  Uiso   1.00
C34    C     0.14610   0.43810   0.63710   0.01267  Uiso   1.00
C35    C     0.75940   0.60180   0.29760   0.01267  Uiso   1.00
C36    C     0.26263   0.30363   0.76350   0.01267  Uiso   1.00
N1     N     0.27590   0.82990   0.96740   0.01267  Uiso   1.00
N2     N     0.72410   0.17010   0.03260   0.01267  Uiso   1.00
N3     N     0.17010   0.72410   0.53260   0.01267  Uiso   1.00
N4     N     0.82990   0.27590   0.46740   0.01267  Uiso   1.00
O1     O     0.36433   0.11453   0.12080   0.01267  Uiso   1.00
O2     O     0.71471   0.85751   0.08960   0.01267  Uiso   1.00
O3     O     0.06210   0.77790   0.54860   0.01267  Uiso   1.00
O4     O     0.77790   0.06210   0.04860   0.01267  Uiso   1.00
O5     O     0.88547   0.63567   0.37920   0.01267  Uiso   1.00
O6     O     0.14249   0.28529   0.41040   0.01267  Uiso   1.00
O7     O     0.74390   0.23850   0.06980   0.01267  Uiso   1.00
O8     O     0.76150   0.25610   0.43020   0.01267  Uiso   1.00
O9     O     0.25610   0.76150   0.93020   0.01267  Uiso   1.00
O10    O     0.11453   0.36433   0.62080   0.01267  Uiso   1.00
O11    O     0.54078   0.88358   0.06640   0.01267  Uiso   1.00
O12    O     0.45922   0.11642   0.93360   0.01267  Uiso   1.00
O13    O     0.45859   0.89519   0.89600   0.01267  Uiso   1.00
O14    O     0.22210   0.93790   0.95140   0.01267  Uiso   1.00
O15    O     0.11642   0.45922   0.43360   0.01267  Uiso   1.00
O16    O     0.88358   0.54078   0.56640   0.01267  Uiso   1.00
O17    O     0.10481   0.54141   0.60400   0.01267  Uiso   1.00
O18    O     0.63567   0.88547   0.87920   0.01267  Uiso   1.00
O19    O     0.64510   0.20670   0.97750   0.01267  Uiso   1.00
O20    O     0.20670   0.64510   0.47750   0.01267  Uiso   1.00
O21    O     0.85751   0.71471   0.58960   0.01267  Uiso   1.00
O22    O     0.23850   0.74390   0.56980   0.01267  Uiso   1.00
O23    O     0.79330   0.35490   0.52250   0.01267  Uiso   1.00
O24    O     0.89519   0.45859   0.39600   0.01267  Uiso   1.00
O25    O     0.35490   0.79330   0.02250   0.01267  Uiso   1.00
O26    O     0.28529   0.14249   0.91040   0.01267  Uiso   1.00
O27    O     0.54141   0.10481   0.10400   0.01267  Uiso   1.00
O28    O     0.93790   0.22210   0.45140   0.01267  Uiso   1.00
