data_image0
_cell_length_a       9.28814
_cell_length_b       14.7113
_cell_length_c       19.8471
_cell_angle_alpha    74.9706
_cell_angle_beta     76.4678
_cell_angle_gamma    71.5981

_symmetry_space_group_name_H-M    P 1
_symmetry_int_tables_number       1

loop_
  _symmetry_equiv_pos_as_xyz
  'x, y, z'

loop_
  _atom_site_label
  _atom_site_occupancy
  _atom_site_fract_x
  _atom_site_fract_y
  _atom_site_fract_z
  _atom_site_thermal_displace_type
  _atom_site_B_iso_or_equiv
  _atom_site_type_symbol
  Yb1      1.0000 0.49616  0.53187  0.62487  Biso   1.000  Yb
  Yb2      1.0000 0.65290  0.96813  0.87513  Biso   1.000  Yb
  Yb3      1.0000 0.50384  0.46813  0.37513  Biso   1.000  Yb
  Yb4      1.0000 0.34710  0.03187  0.12487  Biso   1.000  Yb
  H1       1.0000 0.52250  0.78510  0.51290  Biso   1.000  H
  H2       1.0000 0.44290  0.75450  0.33030  Biso   1.000  H
  H3       1.0000 0.44510  0.01690  0.35210  Biso   1.000  H
  H4       1.0000 0.71600  0.52800  0.73480  Biso   1.000  H
  H5       1.0000 0.89180  0.67010  0.78130  Biso   1.000  H
  H6       1.0000 0.81500  0.58560  0.82120  Biso   1.000  H
  H7       1.0000 0.94870  0.56960  0.75680  Biso   1.000  H
  H8       1.0000 0.76660  0.78520  0.71580  Biso   1.000  H
  H9       1.0000 0.74450  0.76180  0.64680  Biso   1.000  H
  H10      1.0000 0.60430  0.78190  0.70790  Biso   1.000  H
  H11      1.0000 0.79840  0.37120  0.55100  Biso   1.000  H
  H12      1.0000 0.20040  0.31220  0.51720  Biso   1.000  H
  H13      1.0000 0.08260  0.24950  0.53550  Biso   1.000  H
  H14      1.0000 0.07390  0.33670  0.47010  Biso   1.000  H
  H15      1.0000 0.17940  0.40410  0.57670  Biso   1.000  H
  H16      1.0000 0.04090  0.49830  0.56990  Biso   1.000  H
  H17      1.0000 0.04320  0.41930  0.64010  Biso   1.000  H
  H18      1.0000 0.82050  0.71490  0.98710  Biso   1.000  H
  H19      1.0000 0.52770  0.74550  0.16970  Biso   1.000  H
  H20      1.0000 0.81410  0.48310  0.14790  Biso   1.000  H
  H21      1.0000 0.97880  0.97200  0.76520  Biso   1.000  H
  H22      1.0000 0.34320  0.82990  0.71870  Biso   1.000  H
  H23      1.0000 0.22180  0.91440  0.67880  Biso   1.000  H
  H24      1.0000 0.27510  0.93040  0.74320  Biso   1.000  H
  H25      1.0000 0.26760  0.71480  0.78420  Biso   1.000  H
  H26      1.0000 0.15310  0.73820  0.85320  Biso   1.000  H
  H27      1.0000 0.09410  0.71810  0.79210  Biso   1.000  H
  H28      1.0000 0.72060  0.12880  0.94900  Biso   1.000  H
  H29      1.0000 0.02980  0.18780  0.98280  Biso   1.000  H
  H30      1.0000 0.86760  0.25050  0.96450  Biso   1.000  H
  H31      1.0000 0.88070  0.16330  0.02990  Biso   1.000  H
  H32      1.0000 0.16020  0.09590  0.92330  Biso   1.000  H
  H33      1.0000 0.10910  0.00170  0.93010  Biso   1.000  H
  H34      1.0000 0.10260  0.08070  0.85990  Biso   1.000  H
  H35      1.0000 0.47750  0.21490  0.48710  Biso   1.000  H
  H36      1.0000 0.55710  0.24550  0.66970  Biso   1.000  H
  H37      1.0000 0.55490  0.98310  0.64790  Biso   1.000  H
  H38      1.0000 0.28400  0.47200  0.26520  Biso   1.000  H
  H39      1.0000 0.10820  0.32990  0.21870  Biso   1.000  H
  H40      1.0000 0.18500  0.41440  0.17880  Biso   1.000  H
  H41      1.0000 0.05130  0.43040  0.24320  Biso   1.000  H
  H42      1.0000 0.23340  0.21480  0.28420  Biso   1.000  H
  H43      1.0000 0.25550  0.23820  0.35320  Biso   1.000  H
  H44      1.0000 0.39570  0.21810  0.29210  Biso   1.000  H
  H45      1.0000 0.20160  0.62880  0.44900  Biso   1.000  H
  H46      1.0000 0.79960  0.68780  0.48280  Biso   1.000  H
  H47      1.0000 0.91740  0.75050  0.46450  Biso   1.000  H
  H48      1.0000 0.92610  0.66330  0.52990  Biso   1.000  H
  H49      1.0000 0.82060  0.59590  0.42330  Biso   1.000  H
  H50      1.0000 0.95910  0.50170  0.43010  Biso   1.000  H
  H51      1.0000 0.95680  0.58070  0.35990  Biso   1.000  H
  H52      1.0000 0.17950  0.28510  0.01290  Biso   1.000  H
  H53      1.0000 0.47230  0.25450  0.83030  Biso   1.000  H
  H54      1.0000 0.18590  0.51690  0.85210  Biso   1.000  H
  H55      1.0000 0.02120  0.02800  0.23480  Biso   1.000  H
  H56      1.0000 0.65680  0.17010  0.28130  Biso   1.000  H
  H57      1.0000 0.77820  0.08560  0.32120  Biso   1.000  H
  H58      1.0000 0.72490  0.06960  0.25680  Biso   1.000  H
  H59      1.0000 0.73240  0.28520  0.21580  Biso   1.000  H
  H60      1.0000 0.84690  0.26180  0.14680  Biso   1.000  H
  H61      1.0000 0.90590  0.28190  0.20790  Biso   1.000  H
  H62      1.0000 0.27940  0.87120  0.05100  Biso   1.000  H
  H63      1.0000 0.97020  0.81220  0.01720  Biso   1.000  H
  H64      1.0000 0.13240  0.74950  0.03550  Biso   1.000  H
  H65      1.0000 0.11930  0.83670  0.97010  Biso   1.000  H
  H66      1.0000 0.83980  0.90410  0.07670  Biso   1.000  H
  H67      1.0000 0.89090  0.99830  0.06990  Biso   1.000  H
  H68      1.0000 0.89740  0.91930  0.14010  Biso   1.000  H
  C1       1.0000 0.48790  0.91080  0.44020  Biso   1.000  C
  C2       1.0000 0.50350  0.81170  0.46690  Biso   1.000  C
  C3       1.0000 0.49110  0.75240  0.42600  Biso   1.000  C
  C4       1.0000 0.45530  0.79350  0.35750  Biso   1.000  C
  C5       1.0000 0.43870  0.89180  0.33120  Biso   1.000  C
  C6       1.0000 0.45530  0.95060  0.37100  Biso   1.000  C
  C7       1.0000 0.49820  0.97290  0.48270  Biso   1.000  C
  C8       1.0000 0.51960  0.64410  0.45430  Biso   1.000  C
  C9       1.0000 0.40300  0.93940  0.25780  Biso   1.000  C
  C10      1.0000 0.68610  0.59370  0.71350  Biso   1.000  C
  C11      1.0000 0.86060  0.61630  0.77590  Biso   1.000  C
  C12      1.0000 0.71320  0.75350  0.69710  Biso   1.000  C
  C13      1.0000 0.84230  0.40310  0.57210  Biso   1.000  C
  C14      1.0000 0.09630  0.31400  0.51740  Biso   1.000  C
  C15      1.0000 0.07030  0.42970  0.58950  Biso   1.000  C
  C16      1.0000 0.83890  0.58920  0.05980  Biso   1.000  C
  C17      1.0000 0.78210  0.68830  0.03310  Biso   1.000  C
  C18      1.0000 0.66950  0.74760  0.07400  Biso   1.000  C
  C19      1.0000 0.60630  0.70650  0.14250  Biso   1.000  C
  C20      1.0000 0.66170  0.60820  0.16880  Biso   1.000  C
  C21      1.0000 0.77690  0.54940  0.12900  Biso   1.000  C
  C22      1.0000 0.95380  0.52710  0.01730  Biso   1.000  C
  C23      1.0000 0.61800  0.85590  0.04570  Biso   1.000  C
  C24      1.0000 0.60020  0.56060  0.24220  Biso   1.000  C
  C25      1.0000 0.99330  0.90630  0.78650  Biso   1.000  C
  C26      1.0000 0.25280  0.88370  0.72410  Biso   1.000  C
  C27      1.0000 0.16380  0.74650  0.80290  Biso   1.000  C
  C28      1.0000 0.81750  0.09690  0.92790  Biso   1.000  C
  C29      1.0000 0.92770  0.18600  0.98260  Biso   1.000  C
  C30      1.0000 0.08950  0.07030  0.91050  Biso   1.000  C
  C31      1.0000 0.51210  0.08920  0.55980  Biso   1.000  C
  C32      1.0000 0.49650  0.18830  0.53310  Biso   1.000  C
  C33      1.0000 0.50890  0.24760  0.57400  Biso   1.000  C
  C34      1.0000 0.54470  0.20650  0.64250  Biso   1.000  C
  C35      1.0000 0.56130  0.10820  0.66880  Biso   1.000  C
  C36      1.0000 0.54470  0.04940  0.62900  Biso   1.000  C
  C37      1.0000 0.50180  0.02710  0.51730  Biso   1.000  C
  C38      1.0000 0.48040  0.35590  0.54570  Biso   1.000  C
  C39      1.0000 0.59700  0.06060  0.74220  Biso   1.000  C
  C40      1.0000 0.31390  0.40630  0.28650  Biso   1.000  C
  C41      1.0000 0.13940  0.38370  0.22410  Biso   1.000  C
  C42      1.0000 0.28680  0.24650  0.30290  Biso   1.000  C
  C43      1.0000 0.15770  0.59690  0.42790  Biso   1.000  C
  C44      1.0000 0.90370  0.68600  0.48260  Biso   1.000  C
  C45      1.0000 0.92970  0.57030  0.41050  Biso   1.000  C
  C46      1.0000 0.16110  0.41080  0.94020  Biso   1.000  C
  C47      1.0000 0.21790  0.31170  0.96690  Biso   1.000  C
  C48      1.0000 0.33050  0.25240  0.92600  Biso   1.000  C
  C49      1.0000 0.39370  0.29350  0.85750  Biso   1.000  C
  C50      1.0000 0.33830  0.39180  0.83120  Biso   1.000  C
  C51      1.0000 0.22310  0.45060  0.87100  Biso   1.000  C
  C52      1.0000 0.04620  0.47290  0.98270  Biso   1.000  C
  C53      1.0000 0.38200  0.14410  0.95430  Biso   1.000  C
  C54      1.0000 0.39980  0.43940  0.75780  Biso   1.000  C
  C55      1.0000 0.00670  0.09370  0.21350  Biso   1.000  C
  C56      1.0000 0.74720  0.11630  0.27590  Biso   1.000  C
  C57      1.0000 0.83620  0.25350  0.19710  Biso   1.000  C
  C58      1.0000 0.18250  0.90310  0.07210  Biso   1.000  C
  C59      1.0000 0.07230  0.81400  0.01740  Biso   1.000  C
  C60      1.0000 0.91050  0.92970  0.08950  Biso   1.000  C
  N1       1.0000 0.74880  0.65240  0.72800  Biso   1.000  N
  N2       1.0000 0.99150  0.38030  0.56230  Biso   1.000  N
  N3       1.0000 0.21810  0.67170  0.60510  Biso   1.000  N
  N4       1.0000 0.12920  0.84760  0.77200  Biso   1.000  N
  N5       1.0000 0.93410  0.11970  0.93770  Biso   1.000  N
  N6       1.0000 0.49490  0.82830  0.89490  Biso   1.000  N
  N7       1.0000 0.25120  0.34760  0.27200  Biso   1.000  N
  N8       1.0000 0.00850  0.61970  0.43770  Biso   1.000  N
  N9       1.0000 0.78190  0.32830  0.39490  Biso   1.000  N
  N10      1.0000 0.87080  0.15240  0.22800  Biso   1.000  N
  N11      1.0000 0.06590  0.88030  0.06230  Biso   1.000  N
  N12      1.0000 0.50510  0.17170  0.10510  Biso   1.000  N
  O1       1.0000 0.55730  0.61160  0.51460  Biso   1.000  O
  O2       1.0000 0.50600  0.59350  0.41590  Biso   1.000  O
  O3       1.0000 0.43850  0.01710  0.22770  Biso   1.000  O
  O4       1.0000 0.33990  0.90220  0.22740  Biso   1.000  O
  O5       1.0000 0.59250  0.61740  0.67460  Biso   1.000  O
  O6       1.0000 0.75540  0.46170  0.60570  Biso   1.000  O
  O7       1.0000 0.25000  0.59000  0.58540  Biso   1.000  O
  O8       1.0000 0.31460  0.69250  0.62490  Biso   1.000  O
  O9       1.0000 0.08470  0.72490  0.60170  Biso   1.000  O
  O10      1.0000 0.68350  0.88840  0.98540  Biso   1.000  O
  O11      1.0000 0.51540  0.90650  0.08410  Biso   1.000  O
  O12      1.0000 0.68330  0.48290  0.27230  Biso   1.000  O
  O13      1.0000 0.46950  0.59780  0.27260  Biso   1.000  O
  O14      1.0000 0.88450  0.88260  0.82540  Biso   1.000  O
  O15      1.0000 0.82280  0.03830  0.89430  Biso   1.000  O
  O16      1.0000 0.42540  0.91000  0.91460  Biso   1.000  O
  O17      1.0000 0.63200  0.80750  0.87510  Biso   1.000  O
  O18      1.0000 0.41130  0.77510  0.89830  Biso   1.000  O
  O19      1.0000 0.44270  0.38840  0.48540  Biso   1.000  O
  O20      1.0000 0.49400  0.40650  0.58410  Biso   1.000  O
  O21      1.0000 0.56150  0.98290  0.77230  Biso   1.000  O
  O22      1.0000 0.66010  0.09780  0.77260  Biso   1.000  O
  O23      1.0000 0.40750  0.38260  0.32540  Biso   1.000  O
  O24      1.0000 0.24460  0.53830  0.39430  Biso   1.000  O
  O25      1.0000 0.75000  0.41000  0.41460  Biso   1.000  O
  O26      1.0000 0.68540  0.30750  0.37510  Biso   1.000  O
  O27      1.0000 0.91530  0.27510  0.39830  Biso   1.000  O
  O28      1.0000 0.31650  0.11160  0.01460  Biso   1.000  O
  O29      1.0000 0.48460  0.09350  0.91590  Biso   1.000  O
  O30      1.0000 0.31670  0.51710  0.72770  Biso   1.000  O
  O31      1.0000 0.53050  0.40220  0.72740  Biso   1.000  O
  O32      1.0000 0.11550  0.11740  0.17460  Biso   1.000  O
  O33      1.0000 0.17720  0.96170  0.10570  Biso   1.000  O
  O34      1.0000 0.57460  0.09000  0.08540  Biso   1.000  O
  O35      1.0000 0.36800  0.19250  0.12490  Biso   1.000  O
  O36      1.0000 0.58870  0.22490  0.10170  Biso   1.000  O
