data_SOTXAC_clean
_audit_creation_date              2015-10-16
_audit_creation_method            'Materials Studio'
_symmetry_space_group_name_H-M    'P1'
_symmetry_Int_Tables_number       1
_symmetry_cell_setting            triclinic
loop_
_symmetry_equiv_pos_as_xyz
  x,y,z
_cell_length_a                    12.9406
_cell_length_b                    12.9406
_cell_length_c                    14.6390
_cell_angle_alpha                 83.9320
_cell_angle_beta                  83.9320
_cell_angle_gamma                 61.6245
loop_
_atom_site_label
_atom_site_type_symbol
_atom_site_fract_x
_atom_site_fract_y
_atom_site_fract_z
_atom_site_U_iso_or_equiv
_atom_site_adp_type
_atom_site_occupancy
Er1    Er    0.34832   0.98972   0.02755   0.01267  Uiso   1.00
Er2    Er    0.65168   0.01028   0.97245   0.01267  Uiso   1.00
Er3    Er    0.01028   0.65168   0.47245   0.01267  Uiso   1.00
Er4    Er    0.98972   0.34832   0.52755   0.01267  Uiso   1.00
H1     H     0.21710   0.26770   0.76460   0.01267  Uiso   1.00
H2     H     0.69830   0.52230   0.64090   0.01267  Uiso   1.00
H3     H     0.47320   0.71400   0.84190   0.01267  Uiso   1.00
H4     H     0.73230   0.78290   0.73540   0.01267  Uiso   1.00
H5     H     0.52230   0.69830   0.14090   0.01267  Uiso   1.00
H6     H     0.30170   0.47770   0.35910   0.01267  Uiso   1.00
H7     H     0.52680   0.28600   0.15810   0.01267  Uiso   1.00
H8     H     0.28600   0.52680   0.65810   0.01267  Uiso   1.00
H9     H     0.47770   0.30170   0.85910   0.01267  Uiso   1.00
H10    H     0.71400   0.47320   0.34190   0.01267  Uiso   1.00
H11    H     0.78290   0.73230   0.23540   0.01267  Uiso   1.00
H12    H     0.26770   0.21710   0.26460   0.01267  Uiso   1.00
C1     C     0.35020   0.26900   0.82350   0.01267  Uiso   1.00
C2     C     0.73810   0.69330   0.23700   0.01267  Uiso   1.00
C3     C     0.59980   0.76020   0.79870   0.01267  Uiso   1.00
C4     C     0.30340   0.46120   0.69860   0.01267  Uiso   1.00
C5     C     0.67290   0.58290   0.68030   0.01267  Uiso   1.00
C6     C     0.73100   0.64980   0.67650   0.01267  Uiso   1.00
C7     C     0.23980   0.40020   0.70130   0.01267  Uiso   1.00
C8     C     0.64980   0.73100   0.17650   0.01267  Uiso   1.00
C9     C     0.69330   0.73810   0.73700   0.01267  Uiso   1.00
C10    C     0.48450   0.46030   0.25370   0.01267  Uiso   1.00
C11    C     0.32710   0.41710   0.31970   0.01267  Uiso   1.00
C12    C     0.26190   0.30670   0.76300   0.01267  Uiso   1.00
C13    C     0.39460   0.42220   0.75820   0.01267  Uiso   1.00
C14    C     0.85710   0.56050   0.36460   0.01267  Uiso   1.00
C15    C     0.37080   0.16940   0.89320   0.01267  Uiso   1.00
C16    C     0.14290   0.43950   0.63540   0.01267  Uiso   1.00
C17    C     0.76020   0.59980   0.29870   0.01267  Uiso   1.00
C18    C     0.56050   0.85710   0.86460   0.01267  Uiso   1.00
C19    C     0.26900   0.35020   0.32350   0.01267  Uiso   1.00
C20    C     0.57780   0.60540   0.74180   0.01267  Uiso   1.00
C21    C     0.69660   0.53880   0.30140   0.01267  Uiso   1.00
C22    C     0.51550   0.53970   0.74630   0.01267  Uiso   1.00
C23    C     0.42220   0.39460   0.25820   0.01267  Uiso   1.00
C24    C     0.41710   0.32710   0.81970   0.01267  Uiso   1.00
C25    C     0.30670   0.26190   0.26300   0.01267  Uiso   1.00
C26    C     0.62920   0.83060   0.10680   0.01267  Uiso   1.00
C27    C     0.40020   0.23980   0.20130   0.01267  Uiso   1.00
C28    C     0.16940   0.37080   0.39320   0.01267  Uiso   1.00
C29    C     0.83060   0.62920   0.60680   0.01267  Uiso   1.00
C30    C     0.46030   0.48450   0.75370   0.01267  Uiso   1.00
C31    C     0.53880   0.69660   0.80140   0.01267  Uiso   1.00
C32    C     0.43950   0.14290   0.13540   0.01267  Uiso   1.00
C33    C     0.53970   0.51550   0.24630   0.01267  Uiso   1.00
C34    C     0.60540   0.57780   0.24180   0.01267  Uiso   1.00
C35    C     0.46120   0.30340   0.19860   0.01267  Uiso   1.00
C36    C     0.58290   0.67290   0.18030   0.01267  Uiso   1.00
N1     N     0.16410   0.72810   0.53320   0.01267  Uiso   1.00
N2     N     0.72810   0.16410   0.03320   0.01267  Uiso   1.00
N3     N     0.83590   0.27190   0.46680   0.01267  Uiso   1.00
N4     N     0.27190   0.83590   0.96680   0.01267  Uiso   1.00
O1     O     0.89970   0.45630   0.39680   0.01267  Uiso   1.00
O2     O     0.10030   0.54370   0.60320   0.01267  Uiso   1.00
O3     O     0.21990   0.94610   0.95110   0.01267  Uiso   1.00
O4     O     0.46390   0.11810   0.93170   0.01267  Uiso   1.00
O5     O     0.53610   0.88190   0.06830   0.01267  Uiso   1.00
O6     O     0.11560   0.36380   0.61770   0.01267  Uiso   1.00
O7     O     0.74550   0.23150   0.07280   0.01267  Uiso   1.00
O8     O     0.28760   0.14520   0.91380   0.01267  Uiso   1.00
O9     O     0.85480   0.71240   0.58620   0.01267  Uiso   1.00
O10    O     0.11810   0.46390   0.43170   0.01267  Uiso   1.00
O11    O     0.64780   0.20200   0.97870   0.01267  Uiso   1.00
O12    O     0.14520   0.28760   0.41380   0.01267  Uiso   1.00
O13    O     0.45630   0.89970   0.89680   0.01267  Uiso   1.00
O14    O     0.88440   0.63620   0.38230   0.01267  Uiso   1.00
O15    O     0.25450   0.76850   0.92720   0.01267  Uiso   1.00
O16    O     0.78010   0.05390   0.04890   0.01267  Uiso   1.00
O17    O     0.05390   0.78010   0.54890   0.01267  Uiso   1.00
O18    O     0.35220   0.79800   0.02130   0.01267  Uiso   1.00
O19    O     0.20200   0.64780   0.47870   0.01267  Uiso   1.00
O20    O     0.79800   0.35220   0.52130   0.01267  Uiso   1.00
O21    O     0.94610   0.21990   0.45110   0.01267  Uiso   1.00
O22    O     0.63620   0.88440   0.88230   0.01267  Uiso   1.00
O23    O     0.54370   0.10030   0.10320   0.01267  Uiso   1.00
O24    O     0.71240   0.85480   0.08620   0.01267  Uiso   1.00
O25    O     0.23150   0.74550   0.57280   0.01267  Uiso   1.00
O26    O     0.36380   0.11560   0.11770   0.01267  Uiso   1.00
O27    O     0.76850   0.25450   0.42720   0.01267  Uiso   1.00
O28    O     0.88190   0.53610   0.56830   0.01267  Uiso   1.00
