data_SOVHAM_clean
_audit_creation_date              2014-07-02
_audit_creation_method            'Materials Studio'
_symmetry_space_group_name_H-M    'P1'
_symmetry_Int_Tables_number       1
_symmetry_cell_setting            triclinic
loop_
_symmetry_equiv_pos_as_xyz
  x,y,z
_cell_length_a                    7.1010
_cell_length_b                    7.6260
_cell_length_c                    11.3156
_cell_angle_alpha                 90.0000
_cell_angle_beta                  106.6030
_cell_angle_gamma                 90.0000
loop_
_atom_site_label
_atom_site_type_symbol
_atom_site_fract_x
_atom_site_fract_y
_atom_site_fract_z
_atom_site_U_iso_or_equiv
_atom_site_adp_type
_atom_site_occupancy
Cd1    Cd    0.00000   0.00000   0.00000   0.01267  Uiso   1.00
Ni1    Ni    0.50000   0.50000   0.00000   0.01267  Uiso   1.00
H1     H     0.82099   0.88475   0.75741   0.01267  Uiso   1.00
H2     H     0.53912   0.88475   0.83291   0.01267  Uiso   1.00
H3     H     0.48928   0.88475   0.60835   0.01267  Uiso   1.00
H4     H     0.19702   0.88475   0.68800   0.01267  Uiso   1.00
H5     H     0.17901   0.88475   0.24259   0.01267  Uiso   1.00
H6     H     0.46088   0.88475   0.16709   0.01267  Uiso   1.00
H7     H     0.51072   0.88475   0.39165   0.01267  Uiso   1.00
H8     H     0.80298   0.88475   0.31200   0.01267  Uiso   1.00
H9     H     0.17901   0.11525   0.24259   0.01267  Uiso   1.00
H10    H     0.46088   0.11525   0.16709   0.01267  Uiso   1.00
H11    H     0.51072   0.11525   0.39165   0.01267  Uiso   1.00
H12    H     0.80298   0.11525   0.31200   0.01267  Uiso   1.00
H13    H     0.82099   0.11525   0.75741   0.01267  Uiso   1.00
H14    H     0.53912   0.11525   0.83291   0.01267  Uiso   1.00
H15    H     0.48928   0.11525   0.60835   0.01267  Uiso   1.00
H16    H     0.19702   0.11525   0.68800   0.01267  Uiso   1.00
C1     C     0.69310   0.67130   0.03800   0.01267  Uiso   1.00
C2     C     0.30690   0.67130   0.96200   0.01267  Uiso   1.00
C3     C     0.30690   0.32870   0.96200   0.01267  Uiso   1.00
C4     C     0.69310   0.32870   0.03800   0.01267  Uiso   1.00
C5     C     0.57590   0.00000   0.78790   0.01267  Uiso   1.00
C6     C     0.45280   0.00000   0.65480   0.01267  Uiso   1.00
C7     C     0.23340   0.00000   0.64240   0.01267  Uiso   1.00
C8     C     0.11050   0.00000   0.50650   0.01267  Uiso   1.00
C9     C     0.42410   0.00000   0.21210   0.01267  Uiso   1.00
C10    C     0.54720   0.00000   0.34520   0.01267  Uiso   1.00
C11    C     0.76660   0.00000   0.35760   0.01267  Uiso   1.00
C12    C     0.88950   0.00000   0.49350   0.01267  Uiso   1.00
N1     N     0.81180   0.77700   0.05730   0.01267  Uiso   1.00
N2     N     0.18820   0.77700   0.94270   0.01267  Uiso   1.00
N3     N     0.18820   0.22300   0.94270   0.01267  Uiso   1.00
N4     N     0.81180   0.22300   0.05730   0.01267  Uiso   1.00
N5     N     0.78790   0.00000   0.80510   0.01267  Uiso   1.00
N6     N     0.21210   0.00000   0.19490   0.01267  Uiso   1.00
