data_SOXDEQ_clean
_audit_creation_date              2015-10-16
_audit_creation_method            'Materials Studio'
_symmetry_space_group_name_H-M    'P1'
_symmetry_Int_Tables_number       1
_symmetry_cell_setting            triclinic
loop_
_symmetry_equiv_pos_as_xyz
  x,y,z
_cell_length_a                    10.7117
_cell_length_b                    12.4687
_cell_length_c                    12.4687
_cell_angle_alpha                 91.5997
_cell_angle_beta                  113.8420
_cell_angle_gamma                 113.8420
loop_
_atom_site_label
_atom_site_type_symbol
_atom_site_fract_x
_atom_site_fract_y
_atom_site_fract_z
_atom_site_U_iso_or_equiv
_atom_site_adp_type
_atom_site_occupancy
Tb1    Tb    0.00000   0.20882   0.79118   0.01267  Uiso   1.00
Tb2    Tb    0.00000   0.79118   0.20882   0.01267  Uiso   1.00
Co1    Co    0.00000   0.00000   0.00000   0.01267  Uiso   1.00
Co2    Co    0.00000   0.50000  -0.00000   0.01267  Uiso   1.00
Co3    Co    0.00000   0.00000   0.50000   0.01267  Uiso   1.00
H1     H     0.49420   0.10990   0.71070   0.01267  Uiso   1.00
H2     H     0.64540   0.16480   0.48280   0.01267  Uiso   1.00
H3     H     0.88800   0.13980   0.25680   0.01267  Uiso   1.00
H4     H     0.25810   0.98330   0.78070   0.01267  Uiso   1.00
H5     H     0.28300   0.76530   0.59670   0.01267  Uiso   1.00
H6     H     0.64540   0.48280   0.16480   0.01267  Uiso   1.00
H7     H     0.50580   0.89010   0.28930   0.01267  Uiso   1.00
H8     H     0.71700   0.40330   0.23470   0.01267  Uiso   1.00
H9     H     0.54440   0.94250   0.42070   0.01267  Uiso   1.00
H10    H     0.74190   0.01670   0.21930   0.01267  Uiso   1.00
H11    H     0.11200   0.74320   0.86020   0.01267  Uiso   1.00
H12    H     0.11200   0.86020   0.74320   0.01267  Uiso   1.00
H13    H     0.25810   0.78070   0.98330   0.01267  Uiso   1.00
H14    H     0.50580   0.28930   0.89010   0.01267  Uiso   1.00
H15    H     0.35460   0.83520   0.51720   0.01267  Uiso   1.00
H16    H     0.45560   0.05750   0.57930   0.01267  Uiso   1.00
H17    H     0.71700   0.23470   0.40330   0.01267  Uiso   1.00
H18    H     0.54440   0.42070   0.94250   0.01267  Uiso   1.00
H19    H     0.35460   0.51720   0.83520   0.01267  Uiso   1.00
H20    H     0.28300   0.59670   0.76530   0.01267  Uiso   1.00
H21    H     0.88800   0.25680   0.13980   0.01267  Uiso   1.00
H22    H     0.49420   0.71070   0.10990   0.01267  Uiso   1.00
H23    H     0.74190   0.21930   0.01670   0.01267  Uiso   1.00
H24    H     0.45560   0.57930   0.05750   0.01267  Uiso   1.00
C1     C     0.17500   0.50770   0.86070   0.01267  Uiso   1.00
C2     C     0.32510   0.89720   0.30020   0.01267  Uiso   1.00
C3     C     0.68590   0.15860   0.42720   0.01267  Uiso   1.00
C4     C     0.92410   0.22180   0.99480   0.01267  Uiso   1.00
C5     C     0.82570   0.20070   0.06170   0.01267  Uiso   1.00
C6     C     0.17430   0.93830   0.79930   0.01267  Uiso   1.00
C7     C     0.48330   0.78920   0.91400   0.01267  Uiso   1.00
C8     C     0.82570   0.06170   0.20070   0.01267  Uiso   1.00
C9     C     0.17500   0.86070   0.50770   0.01267  Uiso   1.00
C10    C     0.50730   0.05600   0.66320   0.01267  Uiso   1.00
C11    C     0.68590   0.42720   0.15860   0.01267  Uiso   1.00
C12    C     0.51670   0.21080   0.08600   0.01267  Uiso   1.00
C13    C     0.51670   0.08600   0.21080   0.01267  Uiso   1.00
C14    C     0.64910   0.98790   0.98790   0.01267  Uiso   1.00
C15    C     0.50730   0.66320   0.05600   0.01267  Uiso   1.00
C16    C     0.67490   0.69980   0.10280   0.01267  Uiso   1.00
C17    C     0.49270   0.94400   0.33680   0.01267  Uiso   1.00
C18    C     0.82500   0.13930   0.49230   0.01267  Uiso   1.00
C19    C     0.31410   0.57280   0.84140   0.01267  Uiso   1.00
C20    C     0.49270   0.33680   0.94400   0.01267  Uiso   1.00
C21    C     0.07590   0.77820   0.00520   0.01267  Uiso   1.00
C22    C     0.17430   0.79930   0.93830   0.01267  Uiso   1.00
C23    C     0.35090   0.01210   0.01210   0.01267  Uiso   1.00
C24    C     0.31410   0.84140   0.57280   0.01267  Uiso   1.00
C25    C     0.32510   0.30020   0.89720   0.01267  Uiso   1.00
C26    C     0.07590   0.00520   0.77820   0.01267  Uiso   1.00
C27    C     0.92410   0.99480   0.22180   0.01267  Uiso   1.00
C28    C     0.82500   0.49230   0.13930   0.01267  Uiso   1.00
C29    C     0.67490   0.10280   0.69980   0.01267  Uiso   1.00
C30    C     0.48330   0.91400   0.78920   0.01267  Uiso   1.00
N1     N     0.56560   0.32210   0.06530   0.01267  Uiso   1.00
N2     N     0.40640   0.98750   0.12150   0.01267  Uiso   1.00
N3     N     0.57880   0.19890   0.19890   0.01267  Uiso   1.00
N4     N     0.23770   0.92030   0.92030   0.01267  Uiso   1.00
N5     N     0.42120   0.80110   0.80110   0.01267  Uiso   1.00
N6     N     0.43440   0.67790   0.93470   0.01267  Uiso   1.00
N7     N     0.56560   0.06530   0.32210   0.01267  Uiso   1.00
N8     N     0.43440   0.93470   0.67790   0.01267  Uiso   1.00
N9     N     0.76230   0.07970   0.07970   0.01267  Uiso   1.00
N10    N     0.59360   0.87850   0.01250   0.01267  Uiso   1.00
N11    N     0.40640   0.12150   0.98750   0.01267  Uiso   1.00
N12    N     0.59360   0.01250   0.87850   0.01267  Uiso   1.00
O1     O     0.98730   0.32560   0.98000   0.01267  Uiso   1.00
O2     O     0.06150   0.04670   0.86270   0.01267  Uiso   1.00
O3     O     0.73110   0.03440   0.69280   0.01267  Uiso   1.00
O4     O     0.16920   0.55520   0.94700   0.01267  Uiso   1.00
O5     O     0.83080   0.44480   0.05300   0.01267  Uiso   1.00
O6     O     0.24190   0.78480   0.26240   0.01267  Uiso   1.00
O7     O     0.83080   0.05300   0.44480   0.01267  Uiso   1.00
O8     O     0.75810   0.21520   0.73760   0.01267  Uiso   1.00
O9     O     0.24190   0.26240   0.78480   0.01267  Uiso   1.00
O10    O     0.16920   0.94700   0.55520   0.01267  Uiso   1.00
O11    O     0.73110   0.69280   0.03440   0.01267  Uiso   1.00
O12    O     0.93850   0.95330   0.13730   0.01267  Uiso   1.00
O13    O     0.75810   0.73760   0.21520   0.01267  Uiso   1.00
O14    O     0.92640   0.21330   0.59250   0.01267  Uiso   1.00
O15    O     0.93850   0.13730   0.95330   0.01267  Uiso   1.00
O16    O     0.07360   0.78670   0.40750   0.01267  Uiso   1.00
O17    O     0.26890   0.30720   0.96560   0.01267  Uiso   1.00
O18    O     0.98730   0.98000   0.32560   0.01267  Uiso   1.00
O19    O     0.06150   0.86270   0.04670   0.01267  Uiso   1.00
O20    O     0.92640   0.59250   0.21330   0.01267  Uiso   1.00
O21    O     0.01270   0.02000   0.67440   0.01267  Uiso   1.00
O22    O     0.26890   0.96560   0.30720   0.01267  Uiso   1.00
O23    O     0.01270   0.67440   0.02000   0.01267  Uiso   1.00
O24    O     0.07360   0.40750   0.78670   0.01267  Uiso   1.00
