data_SOXDAM_clean
_audit_creation_date              2015-10-16
_audit_creation_method            'Materials Studio'
_symmetry_space_group_name_H-M    'P1'
_symmetry_Int_Tables_number       1
_symmetry_cell_setting            triclinic
loop_
_symmetry_equiv_pos_as_xyz
  x,y,z
_cell_length_a                    10.7535
_cell_length_b                    12.5101
_cell_length_c                    12.5101
_cell_angle_alpha                 91.9626
_cell_angle_beta                  113.7710
_cell_angle_gamma                 113.7710
loop_
_atom_site_label
_atom_site_type_symbol
_atom_site_fract_x
_atom_site_fract_y
_atom_site_fract_z
_atom_site_U_iso_or_equiv
_atom_site_adp_type
_atom_site_occupancy
Tb1    Tb    0.50000   0.79092   0.20908   0.01267  Uiso   1.00
Tb2    Tb    0.50000   0.20908   0.79092   0.01267  Uiso   1.00
Zn1    Zn    0.50000  -0.00000  -0.00000   0.01267  Uiso   1.00
Zn2    Zn    0.50000   0.50000  -0.00000   0.01267  Uiso   1.00
Zn3    Zn    0.50000  -0.00000   0.50000   0.01267  Uiso   1.00
H1     H     0.39000   0.13980   0.25920   0.01267  Uiso   1.00
H2     H     0.95590   0.58240   0.05940   0.01267  Uiso   1.00
H3     H     0.24470   0.21900   0.01640   0.01267  Uiso   1.00
H4     H     0.04410   0.41760   0.94060   0.01267  Uiso   1.00
H5     H     0.04410   0.94060   0.41760   0.01267  Uiso   1.00
H6     H     0.75530   0.98360   0.78100   0.01267  Uiso   1.00
H7     H     0.78240   0.76760   0.60000   0.01267  Uiso   1.00
H8     H     0.99470   0.71370   0.11170   0.01267  Uiso   1.00
H9     H     0.78240   0.60000   0.76760   0.01267  Uiso   1.00
H10    H     0.61000   0.74080   0.86020   0.01267  Uiso   1.00
H11    H     0.21760   0.23240   0.40000   0.01267  Uiso   1.00
H12    H     0.21760   0.40000   0.23240   0.01267  Uiso   1.00
H13    H     0.95590   0.05940   0.58240   0.01267  Uiso   1.00
H14    H     0.14440   0.16550   0.47910   0.01267  Uiso   1.00
H15    H     0.61000   0.86020   0.74080   0.01267  Uiso   1.00
H16    H     0.00530   0.88830   0.28630   0.01267  Uiso   1.00
H17    H     0.14440   0.47910   0.16550   0.01267  Uiso   1.00
H18    H     0.00530   0.28630   0.88830   0.01267  Uiso   1.00
H19    H     0.99470   0.11170   0.71370   0.01267  Uiso   1.00
H20    H     0.75530   0.78100   0.98360   0.01267  Uiso   1.00
H21    H     0.85560   0.83450   0.52090   0.01267  Uiso   1.00
H22    H     0.39000   0.25920   0.13980   0.01267  Uiso   1.00
H23    H     0.85560   0.52090   0.83450   0.01267  Uiso   1.00
H24    H     0.24470   0.01640   0.21900   0.01267  Uiso   1.00
C1     C     0.67080   0.93760   0.79780   0.01267  Uiso   1.00
C2     C     0.81500   0.84280   0.57560   0.01267  Uiso   1.00
C3     C     0.32370   0.49160   0.13620   0.01267  Uiso   1.00
C4     C     0.99240   0.33410   0.94190   0.01267  Uiso   1.00
C5     C     0.32370   0.13620   0.49160   0.01267  Uiso   1.00
C6     C     0.82330   0.89490   0.29710   0.01267  Uiso   1.00
C7     C     0.81500   0.57560   0.84280   0.01267  Uiso   1.00
C8     C     0.98520   0.91740   0.79200   0.01267  Uiso   1.00
C9     C     0.18500   0.15720   0.42440   0.01267  Uiso   1.00
C10    C     0.01480   0.20800   0.08260   0.01267  Uiso   1.00
C11    C     0.17670   0.70290   0.10510   0.01267  Uiso   1.00
C12    C     0.00760   0.66590   0.05810   0.01267  Uiso   1.00
C13    C     0.57370   0.77630   0.00190   0.01267  Uiso   1.00
C14    C     0.01480   0.08260   0.20800   0.01267  Uiso   1.00
C15    C     0.98520   0.79200   0.91740   0.01267  Uiso   1.00
C16    C     0.17670   0.10510   0.70290   0.01267  Uiso   1.00
C17    C     0.85080   0.01030   0.01030   0.01267  Uiso   1.00
C18    C     0.67630   0.50840   0.86380   0.01267  Uiso   1.00
C19    C     0.42630   0.22370   0.99810   0.01267  Uiso   1.00
C20    C     0.18500   0.42440   0.15720   0.01267  Uiso   1.00
C21    C     0.14920   0.98970   0.98970   0.01267  Uiso   1.00
C22    C     0.42630   0.99810   0.22370   0.01267  Uiso   1.00
C23    C     0.67630   0.86380   0.50840   0.01267  Uiso   1.00
C24    C     0.00760   0.05810   0.66590   0.01267  Uiso   1.00
C25    C     0.32920   0.20220   0.06240   0.01267  Uiso   1.00
C26    C     0.32920   0.06240   0.20220   0.01267  Uiso   1.00
C27    C     0.82330   0.29710   0.89490   0.01267  Uiso   1.00
C28    C     0.67080   0.79780   0.93760   0.01267  Uiso   1.00
C29    C     0.57370   0.00190   0.77630   0.01267  Uiso   1.00
C30    C     0.99240   0.94190   0.33410   0.01267  Uiso   1.00
N1     N     0.06470   0.06318   0.31982   0.01267  Uiso   1.00
N2     N     0.93530   0.68018   0.93682   0.01267  Uiso   1.00
N3     N     0.73240   0.91820   0.91820   0.01267  Uiso   1.00
N4     N     0.92340   0.80400   0.80400   0.01267  Uiso   1.00
N5     N     0.09690   0.88084   0.01376   0.01267  Uiso   1.00
N6     N     0.26760   0.08180   0.08180   0.01267  Uiso   1.00
N7     N     0.09690   0.01376   0.88084   0.01267  Uiso   1.00
N8     N     0.90310   0.11916   0.98624   0.01267  Uiso   1.00
N9     N     0.07660   0.19600   0.19600   0.01267  Uiso   1.00
N10    N     0.06470   0.31982   0.06318   0.01267  Uiso   1.00
N11    N     0.90310   0.98624   0.11916   0.01267  Uiso   1.00
N12    N     0.93530   0.93682   0.68018   0.01267  Uiso   1.00
O1     O     0.33010   0.44437   0.05003   0.01267  Uiso   1.00
O2     O     0.51370   0.02111   0.67489   0.01267  Uiso   1.00
O3     O     0.57790   0.79059   0.40921   0.01267  Uiso   1.00
O4     O     0.57790   0.40921   0.79059   0.01267  Uiso   1.00
O5     O     0.44130   0.13827   0.95629   0.01267  Uiso   1.00
O6     O     0.74130   0.78323   0.26337   0.01267  Uiso   1.00
O7     O     0.55870   0.86173   0.04371   0.01267  Uiso   1.00
O8     O     0.51370   0.67489   0.02111   0.01267  Uiso   1.00
O9     O     0.66990   0.94997   0.55563   0.01267  Uiso   1.00
O10    O     0.25870   0.73663   0.21677   0.01267  Uiso   1.00
O11    O     0.44130   0.95629   0.13827   0.01267  Uiso   1.00
O12    O     0.23280   0.03509   0.69589   0.01267  Uiso   1.00
O13    O     0.48630   0.32511   0.97889   0.01267  Uiso   1.00
O14    O     0.42210   0.59079   0.20941   0.01267  Uiso   1.00
O15    O     0.55870   0.04371   0.86173   0.01267  Uiso   1.00
O16    O     0.33010   0.05003   0.44437   0.01267  Uiso   1.00
O17    O     0.42210   0.20941   0.59079   0.01267  Uiso   1.00
O18    O     0.76720   0.96491   0.30411   0.01267  Uiso   1.00
O19    O     0.23280   0.69589   0.03509   0.01267  Uiso   1.00
O20    O     0.74130   0.26337   0.78323   0.01267  Uiso   1.00
O21    O     0.66990   0.55563   0.94997   0.01267  Uiso   1.00
O22    O     0.48630   0.97889   0.32511   0.01267  Uiso   1.00
O23    O     0.25870   0.21677   0.73663   0.01267  Uiso   1.00
O24    O     0.76720   0.30411   0.96491   0.01267  Uiso   1.00
