data_SOXHUI_clean
_audit_creation_date              2015-05-14
_audit_creation_method            'Materials Studio'
_symmetry_space_group_name_H-M    'P1'
_symmetry_Int_Tables_number       1
_symmetry_cell_setting            triclinic
loop_
_symmetry_equiv_pos_as_xyz
  x,y,z
_cell_length_a                    14.9150
_cell_length_b                    14.9150
_cell_length_c                    5.5430
_cell_angle_alpha                 90.0000
_cell_angle_beta                  90.0000
_cell_angle_gamma                 120.0000
loop_
_atom_site_label
_atom_site_type_symbol
_atom_site_fract_x
_atom_site_fract_y
_atom_site_fract_z
_atom_site_U_iso_or_equiv
_atom_site_adp_type
_atom_site_occupancy
Li1    Li    0.33640   0.53150   0.22430   0.01267  Uiso   1.00
Li2    Li    0.26910   0.30220   0.98340   0.01267  Uiso   1.00
Li3    Li    0.19530   0.33230   0.49330   0.01267  Uiso   1.00
C4     C     0.34970   0.50290   0.75400   0.01267  Uiso   1.00
C5     C     0.54030   0.65980   0.23040   0.01267  Uiso   1.00
C6     C     0.05480   0.22440   0.88030   0.01267  Uiso   1.00
O7     O     0.33170   0.45960   0.95320   0.01267  Uiso   1.00
O8     O     0.32900   0.46560   0.55000   0.01267  Uiso   1.00
O9     O     0.46070   0.66790   0.23680   0.01267  Uiso   1.00
O10    O     0.62610   0.72960   0.32960   0.01267  Uiso   1.00
O11    O     0.14260   0.26020   0.74860   0.01267  Uiso   1.00
O12    O     0.97940   0.22680   0.74720   0.01267  Uiso   1.00
H13    H     0.39177   0.59100   0.74287   0.00000  Uiso   1.00
H14    H     0.53808   0.59065   0.13685   0.00000  Uiso   1.00
Li15   Li    0.46850   0.80490   0.22430   0.01267  Uiso   1.00
Li16   Li    0.69780   0.96690   0.98340   0.01267  Uiso   1.00
Li17   Li    0.66770   0.86300   0.49330   0.01267  Uiso   1.00
C18    C     0.49710   0.84680   0.75400   0.01267  Uiso   1.00
C19    C     0.34020   0.88050   0.23040   0.01267  Uiso   1.00
C20    C     0.77560   0.83040   0.88030   0.01267  Uiso   1.00
O21    O     0.54040   0.87210   0.95320   0.01267  Uiso   1.00
O22    O     0.53440   0.86340   0.55000   0.01267  Uiso   1.00
O23    O     0.33210   0.79280   0.23680   0.01267  Uiso   1.00
O24    O     0.27040   0.89650   0.32960   0.01267  Uiso   1.00
O25    O     0.73980   0.88240   0.74860   0.01267  Uiso   1.00
O26    O     0.77320   0.75260   0.74720   0.01267  Uiso   1.00
H27    H     0.40900   0.80078   0.74287   0.00000  Uiso   1.00
H28    H     0.40935   0.94743   0.13685   0.00000  Uiso   1.00
Li29   Li    0.19510   0.66360   0.22430   0.01267  Uiso   1.00
Li30   Li    0.03310   0.73090   0.98340   0.01267  Uiso   1.00
Li31   Li    0.13700   0.80470   0.49330   0.01267  Uiso   1.00
C32    C     0.15320   0.65030   0.75400   0.01267  Uiso   1.00
C33    C     0.11950   0.45970   0.23040   0.01267  Uiso   1.00
C34    C     0.16960   0.94520   0.88030   0.01267  Uiso   1.00
O35    O     0.12790   0.66830   0.95320   0.01267  Uiso   1.00
O36    O     0.13660   0.67100   0.55000   0.01267  Uiso   1.00
O37    O     0.20720   0.53930   0.23680   0.01267  Uiso   1.00
O38    O     0.10350   0.37390   0.32960   0.01267  Uiso   1.00
O39    O     0.11760   0.85740   0.74860   0.01267  Uiso   1.00
O40    O     0.24740   0.02060   0.74720   0.01267  Uiso   1.00
H41    H     0.19922   0.60823   0.74287   0.00000  Uiso   1.00
H42    H     0.05257   0.46192   0.13685   0.00000  Uiso   1.00
Li43   Li    0.66360   0.46850   0.72430   0.01267  Uiso   1.00
Li44   Li    0.73090   0.69780   0.48340   0.01267  Uiso   1.00
Li45   Li    0.80470   0.66770   0.99330   0.01267  Uiso   1.00
C46    C     0.65030   0.49710   0.25400   0.01267  Uiso   1.00
C47    C     0.45970   0.34020   0.73040   0.01267  Uiso   1.00
C48    C     0.94520   0.77560   0.38030   0.01267  Uiso   1.00
O49    O     0.66830   0.54040   0.45320   0.01267  Uiso   1.00
O50    O     0.67100   0.53440   0.05000   0.01267  Uiso   1.00
O51    O     0.53930   0.33210   0.73680   0.01267  Uiso   1.00
O52    O     0.37390   0.27040   0.82960   0.01267  Uiso   1.00
O53    O     0.85740   0.73980   0.24860   0.01267  Uiso   1.00
O54    O     0.02060   0.77320   0.24720   0.01267  Uiso   1.00
H55    H     0.60823   0.40900   0.24287   0.00000  Uiso   1.00
H56    H     0.46192   0.40935   0.63685   0.00000  Uiso   1.00
H57    H     0.94747   0.80217   0.57417   0.00000  Uiso   1.00
Li58   Li    0.53150   0.19510   0.72430   0.01267  Uiso   1.00
Li59   Li    0.30220   0.03310   0.48340   0.01267  Uiso   1.00
Li60   Li    0.33230   0.13700   0.99330   0.01267  Uiso   1.00
C61    C     0.50290   0.15320   0.25400   0.01267  Uiso   1.00
C62    C     0.65980   0.11950   0.73040   0.01267  Uiso   1.00
C63    C     0.22440   0.16960   0.38030   0.01267  Uiso   1.00
O64    O     0.45960   0.12790   0.45320   0.01267  Uiso   1.00
O65    O     0.46560   0.13660   0.05000   0.01267  Uiso   1.00
O66    O     0.66790   0.20720   0.73680   0.01267  Uiso   1.00
O67    O     0.72960   0.10350   0.82960   0.01267  Uiso   1.00
O68    O     0.26020   0.11760   0.24860   0.01267  Uiso   1.00
O69    O     0.22680   0.24740   0.24720   0.01267  Uiso   1.00
H70    H     0.59100   0.19922   0.24287   0.00000  Uiso   1.00
H71    H     0.59065   0.05257   0.63685   0.00000  Uiso   1.00
H72    H     0.19783   0.14530   0.57417   0.00000  Uiso   1.00
Li73   Li    0.80490   0.33640   0.72430   0.01267  Uiso   1.00
Li74   Li    0.96690   0.26910   0.48340   0.01267  Uiso   1.00
Li75   Li    0.86300   0.19530   0.99330   0.01267  Uiso   1.00
C76    C     0.84680   0.34970   0.25400   0.01267  Uiso   1.00
C77    C     0.88050   0.54030   0.73040   0.01267  Uiso   1.00
C78    C     0.83040   0.05480   0.38030   0.01267  Uiso   1.00
O79    O     0.87210   0.33170   0.45320   0.01267  Uiso   1.00
O80    O     0.86340   0.32900   0.05000   0.01267  Uiso   1.00
O81    O     0.79280   0.46070   0.73680   0.01267  Uiso   1.00
O82    O     0.89650   0.62610   0.82960   0.01267  Uiso   1.00
O83    O     0.88240   0.14260   0.24860   0.01267  Uiso   1.00
O84    O     0.75260   0.97940   0.24720   0.01267  Uiso   1.00
H85    H     0.80078   0.39177   0.24287   0.00000  Uiso   1.00
H86    H     0.94743   0.53808   0.63685   0.00000  Uiso   1.00
H87    H     0.85470   0.05253   0.57417   0.00000  Uiso   1.00
H88    H     0.05253   0.19783   1.07417   0.00000  Uiso   1.00
H89    H     0.80217   0.85470   1.07417   0.00000  Uiso   1.00
H90    H     0.14530   0.94747   1.07417   0.00000  Uiso   1.00
