data_image0
_cell_length_a       17.094
_cell_length_b       13.1873
_cell_length_c       21.49
_cell_angle_alpha    90
_cell_angle_beta     98.457
_cell_angle_gamma    90

_symmetry_space_group_name_H-M    "P 1"
_symmetry_int_tables_number       1

loop_
  _symmetry_equiv_pos_as_xyz
  'x, y, z'

loop_
  _atom_site_label
  _atom_site_occupancy
  _atom_site_fract_x
  _atom_site_fract_y
  _atom_site_fract_z
  _atom_site_thermal_displace_type
  _atom_site_B_iso_or_equiv
  _atom_site_type_symbol
  Ba1      1.0000 0.12940  0.46020  0.98790  Biso   1.000  Ba
  N1       1.0000 0.43960  0.37020  0.99460  Biso   1.000  N
  N2       1.0000 0.27260  0.85680  0.68770  Biso   1.000  N
  O1       1.0000 0.47240  0.51020  0.91120  Biso   1.000  O
  O2       1.0000 0.41150  0.43050  0.82690  Biso   1.000  O
  O3       1.0000 0.40340  0.56380  0.01070  Biso   1.000  O
  O4       1.0000 0.28250  0.53460  0.03340  Biso   1.000  O
  O5       1.0000 0.49240  0.10660  0.02670  Biso   1.000  O
  O6       1.0000 0.37300  0.17470  0.01420  Biso   1.000  O
  O7       1.0000 0.35150  0.69290  0.74220  Biso   1.000  O
  O8       1.0000 0.44810  0.69970  0.68270  Biso   1.000  O
  O9       1.0000 0.20750  0.67240  0.67740  Biso   1.000  O
  O10      1.0000 0.17040  0.68680  0.57430  Biso   1.000  O
  O11      1.0000 0.28250  0.02890  0.60870  Biso   1.000  O
  O12      1.0000 0.28600  0.13580  0.68900  Biso   1.000  O
  C1       1.0000 0.41540  0.34920  0.92690  Biso   1.000  C
  C2       1.0000 0.43390  0.43500  0.88460  Biso   1.000  C
  C3       1.0000 0.36870  0.39240  0.02730  Biso   1.000  C
  C4       1.0000 0.34810  0.50380  0.02290  Biso   1.000  C
  C5       1.0000 0.48750  0.28490  0.02640  Biso   1.000  C
  C6       1.0000 0.44670  0.18140  0.02100  Biso   1.000  C
  C7       1.0000 0.35330  0.83250  0.67160  Biso   1.000  C
  C8       1.0000 0.38680  0.73500  0.69990  Biso   1.000  C
  C9       1.0000 0.21070  0.83690  0.63160  Biso   1.000  C
  C10      1.0000 0.19520  0.72390  0.62580  Biso   1.000  C
  C11      1.0000 0.26820  0.96210  0.71140  Biso   1.000  C
  C12      1.0000 0.28010  0.04860  0.66460  Biso   1.000  C
  Ba2      1.0000 0.62940  0.96020  0.48790  Biso   1.000  Ba
  N3       1.0000 0.93960  0.87020  0.49460  Biso   1.000  N
  N4       1.0000 0.77260  0.35680  0.18770  Biso   1.000  N
  O13      1.0000 0.97240  0.01020  0.41120  Biso   1.000  O
  O14      1.0000 0.91150  0.93050  0.32690  Biso   1.000  O
  O15      1.0000 0.90340  0.06380  0.51070  Biso   1.000  O
  O16      1.0000 0.78250  0.03460  0.53340  Biso   1.000  O
  O17      1.0000 0.99240  0.60660  0.52670  Biso   1.000  O
  O18      1.0000 0.87300  0.67470  0.51420  Biso   1.000  O
  O19      1.0000 0.85150  0.19290  0.24220  Biso   1.000  O
  O20      1.0000 0.94810  0.19970  0.18270  Biso   1.000  O
  O21      1.0000 0.70750  0.17240  0.17740  Biso   1.000  O
  O22      1.0000 0.67040  0.18680  0.07430  Biso   1.000  O
  O23      1.0000 0.78250  0.52890  0.10870  Biso   1.000  O
  O24      1.0000 0.78600  0.63580  0.18900  Biso   1.000  O
  C13      1.0000 0.91540  0.84920  0.42690  Biso   1.000  C
  C14      1.0000 0.93390  0.93500  0.38460  Biso   1.000  C
  C15      1.0000 0.86870  0.89240  0.52730  Biso   1.000  C
  C16      1.0000 0.84810  0.00380  0.52290  Biso   1.000  C
  C17      1.0000 0.98750  0.78490  0.52640  Biso   1.000  C
  C18      1.0000 0.94670  0.68140  0.52100  Biso   1.000  C
  C19      1.0000 0.85330  0.33250  0.17160  Biso   1.000  C
  C20      1.0000 0.88680  0.23500  0.19990  Biso   1.000  C
  C21      1.0000 0.71070  0.33690  0.13160  Biso   1.000  C
  C22      1.0000 0.69520  0.22390  0.12580  Biso   1.000  C
  C23      1.0000 0.76820  0.46210  0.21140  Biso   1.000  C
  C24      1.0000 0.78010  0.54860  0.16460  Biso   1.000  C
  Ba3      1.0000 0.87060  0.46020  0.51210  Biso   1.000  Ba
  N5       1.0000 0.56040  0.37020  0.50540  Biso   1.000  N
  N6       1.0000 0.72740  0.85680  0.81230  Biso   1.000  N
  O25      1.0000 0.52760  0.51020  0.58880  Biso   1.000  O
  O26      1.0000 0.58850  0.43050  0.67310  Biso   1.000  O
  O27      1.0000 0.59660  0.56380  0.48930  Biso   1.000  O
  O28      1.0000 0.71750  0.53460  0.46660  Biso   1.000  O
  O29      1.0000 0.50760  0.10660  0.47330  Biso   1.000  O
  O30      1.0000 0.62700  0.17470  0.48580  Biso   1.000  O
  O31      1.0000 0.64850  0.69290  0.75780  Biso   1.000  O
  O32      1.0000 0.55190  0.69970  0.81730  Biso   1.000  O
  O33      1.0000 0.79250  0.67240  0.82260  Biso   1.000  O
  O34      1.0000 0.82960  0.68680  0.92570  Biso   1.000  O
  O35      1.0000 0.71750  0.02890  0.89130  Biso   1.000  O
  O36      1.0000 0.71400  0.13580  0.81100  Biso   1.000  O
  C25      1.0000 0.58460  0.34920  0.57310  Biso   1.000  C
  C26      1.0000 0.56610  0.43500  0.61540  Biso   1.000  C
  C27      1.0000 0.63130  0.39240  0.47270  Biso   1.000  C
  C28      1.0000 0.65190  0.50380  0.47710  Biso   1.000  C
  C29      1.0000 0.51250  0.28490  0.47360  Biso   1.000  C
  C30      1.0000 0.55330  0.18140  0.47900  Biso   1.000  C
  C31      1.0000 0.64670  0.83250  0.82840  Biso   1.000  C
  C32      1.0000 0.61320  0.73500  0.80010  Biso   1.000  C
  C33      1.0000 0.78930  0.83690  0.86840  Biso   1.000  C
  C34      1.0000 0.80480  0.72390  0.87420  Biso   1.000  C
  C35      1.0000 0.73180  0.96210  0.78860  Biso   1.000  C
  C36      1.0000 0.71990  0.04860  0.83540  Biso   1.000  C
  Ba4      1.0000 0.37060  0.96020  0.01210  Biso   1.000  Ba
  N7       1.0000 0.06040  0.87020  0.00540  Biso   1.000  N
  N8       1.0000 0.22740  0.35680  0.31230  Biso   1.000  N
  O37      1.0000 0.02760  0.01020  0.08880  Biso   1.000  O
  O38      1.0000 0.08850  0.93050  0.17310  Biso   1.000  O
  O39      1.0000 0.09660  0.06380  0.98930  Biso   1.000  O
  O40      1.0000 0.21750  0.03460  0.96660  Biso   1.000  O
  O41      1.0000 0.00760  0.60660  0.97330  Biso   1.000  O
  O42      1.0000 0.12700  0.67470  0.98580  Biso   1.000  O
  O43      1.0000 0.14850  0.19290  0.25780  Biso   1.000  O
  O44      1.0000 0.05190  0.19970  0.31730  Biso   1.000  O
  O45      1.0000 0.29250  0.17240  0.32260  Biso   1.000  O
  O46      1.0000 0.32960  0.18680  0.42570  Biso   1.000  O
  O47      1.0000 0.21750  0.52890  0.39130  Biso   1.000  O
  O48      1.0000 0.21400  0.63580  0.31100  Biso   1.000  O
  C37      1.0000 0.08460  0.84920  0.07310  Biso   1.000  C
  C38      1.0000 0.06610  0.93500  0.11540  Biso   1.000  C
  C39      1.0000 0.13130  0.89240  0.97270  Biso   1.000  C
  C40      1.0000 0.15190  0.00380  0.97710  Biso   1.000  C
  C41      1.0000 0.01250  0.78490  0.97360  Biso   1.000  C
  C42      1.0000 0.05330  0.68140  0.97900  Biso   1.000  C
  C43      1.0000 0.14670  0.33250  0.32840  Biso   1.000  C
  C44      1.0000 0.11320  0.23500  0.30010  Biso   1.000  C
  C45      1.0000 0.28930  0.33690  0.36840  Biso   1.000  C
  C46      1.0000 0.30480  0.22390  0.37420  Biso   1.000  C
  C47      1.0000 0.23180  0.46210  0.28860  Biso   1.000  C
  C48      1.0000 0.21990  0.54860  0.33540  Biso   1.000  C
  Ba5      1.0000 0.87060  0.53980  0.01210  Biso   1.000  Ba
  N9       1.0000 0.56040  0.62980  0.00540  Biso   1.000  N
  N10      1.0000 0.72740  0.14320  0.31230  Biso   1.000  N
  O49      1.0000 0.52760  0.48980  0.08880  Biso   1.000  O
  O50      1.0000 0.58850  0.56950  0.17310  Biso   1.000  O
  O51      1.0000 0.59660  0.43620  0.98930  Biso   1.000  O
  O52      1.0000 0.71750  0.46540  0.96660  Biso   1.000  O
  O53      1.0000 0.50760  0.89340  0.97330  Biso   1.000  O
  O54      1.0000 0.62700  0.82530  0.98580  Biso   1.000  O
  O55      1.0000 0.64850  0.30710  0.25780  Biso   1.000  O
  O56      1.0000 0.55190  0.30030  0.31730  Biso   1.000  O
  O57      1.0000 0.79250  0.32760  0.32260  Biso   1.000  O
  O58      1.0000 0.82960  0.31320  0.42570  Biso   1.000  O
  O59      1.0000 0.71750  0.97110  0.39130  Biso   1.000  O
  O60      1.0000 0.71400  0.86420  0.31100  Biso   1.000  O
  C49      1.0000 0.58460  0.65080  0.07310  Biso   1.000  C
  C50      1.0000 0.56610  0.56500  0.11540  Biso   1.000  C
  C51      1.0000 0.63130  0.60760  0.97270  Biso   1.000  C
  C52      1.0000 0.65190  0.49620  0.97710  Biso   1.000  C
  C53      1.0000 0.51250  0.71510  0.97360  Biso   1.000  C
  C54      1.0000 0.55330  0.81860  0.97900  Biso   1.000  C
  C55      1.0000 0.64670  0.16750  0.32840  Biso   1.000  C
  C56      1.0000 0.61320  0.26500  0.30010  Biso   1.000  C
  C57      1.0000 0.78930  0.16310  0.36840  Biso   1.000  C
  C58      1.0000 0.80480  0.27610  0.37420  Biso   1.000  C
  C59      1.0000 0.73180  0.03790  0.28860  Biso   1.000  C
  C60      1.0000 0.71990  0.95140  0.33540  Biso   1.000  C
  Ba6      1.0000 0.37060  0.03980  0.51210  Biso   1.000  Ba
  N11      1.0000 0.06040  0.12980  0.50540  Biso   1.000  N
  N12      1.0000 0.22740  0.64320  0.81230  Biso   1.000  N
  O61      1.0000 0.02760  0.98980  0.58880  Biso   1.000  O
  O62      1.0000 0.08850  0.06950  0.67310  Biso   1.000  O
  O63      1.0000 0.09660  0.93620  0.48930  Biso   1.000  O
  O64      1.0000 0.21750  0.96540  0.46660  Biso   1.000  O
  O65      1.0000 0.00760  0.39340  0.47330  Biso   1.000  O
  O66      1.0000 0.12700  0.32530  0.48580  Biso   1.000  O
  O67      1.0000 0.14850  0.80710  0.75780  Biso   1.000  O
  O68      1.0000 0.05190  0.80030  0.81730  Biso   1.000  O
  O69      1.0000 0.29250  0.82760  0.82260  Biso   1.000  O
  O70      1.0000 0.32960  0.81320  0.92570  Biso   1.000  O
  O71      1.0000 0.21750  0.47110  0.89130  Biso   1.000  O
  O72      1.0000 0.21400  0.36420  0.81100  Biso   1.000  O
  C61      1.0000 0.08460  0.15080  0.57310  Biso   1.000  C
  C62      1.0000 0.06610  0.06500  0.61540  Biso   1.000  C
  C63      1.0000 0.13130  0.10760  0.47270  Biso   1.000  C
  C64      1.0000 0.15190  0.99620  0.47710  Biso   1.000  C
  C65      1.0000 0.01250  0.21510  0.47360  Biso   1.000  C
  C66      1.0000 0.05330  0.31860  0.47900  Biso   1.000  C
  C67      1.0000 0.14670  0.66750  0.82840  Biso   1.000  C
  C68      1.0000 0.11320  0.76500  0.80010  Biso   1.000  C
  C69      1.0000 0.28930  0.66310  0.86840  Biso   1.000  C
  C70      1.0000 0.30480  0.77610  0.87420  Biso   1.000  C
  C71      1.0000 0.23180  0.53790  0.78860  Biso   1.000  C
  C72      1.0000 0.21990  0.45140  0.83540  Biso   1.000  C
  Ba7      1.0000 0.12940  0.53980  0.48790  Biso   1.000  Ba
  N13      1.0000 0.43960  0.62980  0.49460  Biso   1.000  N
  N14      1.0000 0.27260  0.14320  0.18770  Biso   1.000  N
  O73      1.0000 0.47240  0.48980  0.41120  Biso   1.000  O
  O74      1.0000 0.41150  0.56950  0.32690  Biso   1.000  O
  O75      1.0000 0.40340  0.43620  0.51070  Biso   1.000  O
  O76      1.0000 0.28250  0.46540  0.53340  Biso   1.000  O
  O77      1.0000 0.49240  0.89340  0.52670  Biso   1.000  O
  O78      1.0000 0.37300  0.82530  0.51420  Biso   1.000  O
  O79      1.0000 0.35150  0.30710  0.24220  Biso   1.000  O
  O80      1.0000 0.44810  0.30030  0.18270  Biso   1.000  O
  O81      1.0000 0.20750  0.32760  0.17740  Biso   1.000  O
  O82      1.0000 0.17040  0.31320  0.07430  Biso   1.000  O
  O83      1.0000 0.28250  0.97110  0.10870  Biso   1.000  O
  O84      1.0000 0.28600  0.86420  0.18900  Biso   1.000  O
  C73      1.0000 0.41540  0.65080  0.42690  Biso   1.000  C
  C74      1.0000 0.43390  0.56500  0.38460  Biso   1.000  C
  C75      1.0000 0.36870  0.60760  0.52730  Biso   1.000  C
  C76      1.0000 0.34810  0.49620  0.52290  Biso   1.000  C
  C77      1.0000 0.48750  0.71510  0.52640  Biso   1.000  C
  C78      1.0000 0.44670  0.81860  0.52100  Biso   1.000  C
  C79      1.0000 0.35330  0.16750  0.17160  Biso   1.000  C
  C80      1.0000 0.38680  0.26500  0.19990  Biso   1.000  C
  C81      1.0000 0.21070  0.16310  0.13160  Biso   1.000  C
  C82      1.0000 0.19520  0.27610  0.12580  Biso   1.000  C
  C83      1.0000 0.26820  0.03790  0.21140  Biso   1.000  C
  C84      1.0000 0.28010  0.95140  0.16460  Biso   1.000  C
  Ba8      1.0000 0.62940  0.03980  0.98790  Biso   1.000  Ba
  N15      1.0000 0.93960  0.12980  0.99460  Biso   1.000  N
  N16      1.0000 0.77260  0.64320  0.68770  Biso   1.000  N
  O85      1.0000 0.97240  0.98980  0.91120  Biso   1.000  O
  O86      1.0000 0.91150  0.06950  0.82690  Biso   1.000  O
  O87      1.0000 0.90340  0.93620  0.01070  Biso   1.000  O
  O88      1.0000 0.78250  0.96540  0.03340  Biso   1.000  O
  O89      1.0000 0.99240  0.39340  0.02670  Biso   1.000  O
  O90      1.0000 0.87300  0.32530  0.01420  Biso   1.000  O
  O91      1.0000 0.85150  0.80710  0.74220  Biso   1.000  O
  O92      1.0000 0.94810  0.80030  0.68270  Biso   1.000  O
  O93      1.0000 0.70750  0.82760  0.67740  Biso   1.000  O
  O94      1.0000 0.67040  0.81320  0.57430  Biso   1.000  O
  O95      1.0000 0.78250  0.47110  0.60870  Biso   1.000  O
  O96      1.0000 0.78600  0.36420  0.68900  Biso   1.000  O
  C85      1.0000 0.91540  0.15080  0.92690  Biso   1.000  C
  C86      1.0000 0.93390  0.06500  0.88460  Biso   1.000  C
  C87      1.0000 0.86870  0.10760  0.02730  Biso   1.000  C
  C88      1.0000 0.84810  0.99620  0.02290  Biso   1.000  C
  C89      1.0000 0.98750  0.21510  0.02640  Biso   1.000  C
  C90      1.0000 0.94670  0.31860  0.02100  Biso   1.000  C
  C91      1.0000 0.85330  0.66750  0.67160  Biso   1.000  C
  C92      1.0000 0.88680  0.76500  0.69990  Biso   1.000  C
  C93      1.0000 0.71070  0.66310  0.63160  Biso   1.000  C
  C94      1.0000 0.69520  0.77610  0.62580  Biso   1.000  C
  C95      1.0000 0.76820  0.53790  0.71140  Biso   1.000  C
  C96      1.0000 0.78010  0.45140  0.66460  Biso   1.000  C
  Ba9      1.0000 0.50000  0.53030  0.75000  Biso   1.000  Ba
  Ba10     1.0000 0.00000  0.03030  0.25000  Biso   1.000  Ba
  Ba11     1.0000 0.50000  0.46970  0.25000  Biso   1.000  Ba
  Ba12     1.0000 0.00000  0.96970  0.75000  Biso   1.000  Ba
  Co1      1.0000 0.50000  0.50000  0.00000  Biso   1.000  Co
  Co2      1.0000 0.00000  0.00000  0.50000  Biso   1.000  Co
  Co3      1.0000 0.50000  0.50000  0.50000  Biso   1.000  Co
  Co4      1.0000 0.00000  0.00000  0.00000  Biso   1.000  Co
  Co5      1.0000 0.25000  0.75000  0.75000  Biso   1.000  Co
  Co6      1.0000 0.75000  0.75000  0.75000  Biso   1.000  Co
  Co7      1.0000 0.75000  0.25000  0.25000  Biso   1.000  Co
  Co8      1.0000 0.25000  0.25000  0.25000  Biso   1.000  Co
