data_image0
_cell_length_a       24.7394
_cell_length_b       38.269
_cell_length_c       5.3487
_cell_angle_alpha    90
_cell_angle_beta     90
_cell_angle_gamma    90

_symmetry_space_group_name_H-M    "P 1"
_symmetry_int_tables_number       1

loop_
  _symmetry_equiv_pos_as_xyz
  'x, y, z'

loop_
  _atom_site_label
  _atom_site_occupancy
  _atom_site_fract_x
  _atom_site_fract_y
  _atom_site_fract_z
  _atom_site_thermal_displace_type
  _atom_site_B_iso_or_equiv
  _atom_site_type_symbol
  Ag1      1.0000 0.96009  0.23145  0.43953  Biso   1.000  Ag
  N1       1.0000 0.00704  0.19663  0.68260  Biso   1.000  N
  N2       1.0000 0.03696  0.20900  0.88320  Biso   1.000  N
  N3       1.0000 0.04714  0.15253  0.85860  Biso   1.000  N
  N4       1.0000 0.06315  0.11744  0.88090  Biso   1.000  N
  N5       1.0000 0.15914  0.03245  0.34710  Biso   1.000  N
  C1       1.0000 0.01405  0.16259  0.67170  Biso   1.000  C
  H1       1.0000 0.99860  0.14780  0.55360  Biso   1.000  H
  C2       1.0000 0.06124  0.18211  0.98580  Biso   1.000  C
  H2       1.0000 0.08430  0.18300  0.12290  Biso   1.000  H
  C3       1.0000 0.09493  0.11041  0.05800  Biso   1.000  C
  H3       1.0000 0.10720  0.12780  0.16530  Biso   1.000  H
  C4       1.0000 0.11208  0.07354  0.09010  Biso   1.000  C
  C5       1.0000 0.09498  0.04736  0.93310  Biso   1.000  C
  H4       1.0000 0.07340  0.05230  0.79520  Biso   1.000  H
  C6       1.0000 0.11066  0.01332  0.98490  Biso   1.000  C
  H5       1.0000 0.10010  0.99510  0.88080  Biso   1.000  H
  C7       1.0000 0.14214  0.00684  0.19350  Biso   1.000  C
  H6       1.0000 0.15190  0.98390  0.22890  Biso   1.000  H
  C8       1.0000 0.14407  0.06517  0.29340  Biso   1.000  C
  H7       1.0000 0.15560  0.08310  0.39760  Biso   1.000  H
  Ag2      1.0000 0.96009  0.73145  0.93953  Biso   1.000  Ag
  N6       1.0000 0.00704  0.69663  0.18260  Biso   1.000  N
  N7       1.0000 0.03696  0.70900  0.38320  Biso   1.000  N
  N8       1.0000 0.04714  0.65253  0.35860  Biso   1.000  N
  N9       1.0000 0.06315  0.61744  0.38090  Biso   1.000  N
  N10      1.0000 0.15914  0.53245  0.84710  Biso   1.000  N
  C9       1.0000 0.01405  0.66259  0.17170  Biso   1.000  C
  H8       1.0000 0.99860  0.64780  0.05360  Biso   1.000  H
  C10      1.0000 0.06124  0.68211  0.48580  Biso   1.000  C
  H9       1.0000 0.08430  0.68300  0.62290  Biso   1.000  H
  C11      1.0000 0.09493  0.61041  0.55800  Biso   1.000  C
  H10      1.0000 0.10720  0.62780  0.66530  Biso   1.000  H
  C12      1.0000 0.11208  0.57354  0.59010  Biso   1.000  C
  C13      1.0000 0.09498  0.54736  0.43310  Biso   1.000  C
  H11      1.0000 0.07340  0.55230  0.29520  Biso   1.000  H
  C14      1.0000 0.11066  0.51332  0.48490  Biso   1.000  C
  H12      1.0000 0.10010  0.49510  0.38080  Biso   1.000  H
  C15      1.0000 0.14214  0.50684  0.69350  Biso   1.000  C
  H13      1.0000 0.15190  0.48390  0.72890  Biso   1.000  H
  C16      1.0000 0.14407  0.56517  0.79340  Biso   1.000  C
  H14      1.0000 0.15560  0.58310  0.89760  Biso   1.000  H
  Ag3      1.0000 0.46009  0.23145  0.93953  Biso   1.000  Ag
  N11      1.0000 0.50704  0.19663  0.18260  Biso   1.000  N
  N12      1.0000 0.53696  0.20900  0.38320  Biso   1.000  N
  N13      1.0000 0.54714  0.15253  0.35860  Biso   1.000  N
  N14      1.0000 0.56315  0.11744  0.38090  Biso   1.000  N
  N15      1.0000 0.65914  0.03245  0.84710  Biso   1.000  N
  C17      1.0000 0.51405  0.16259  0.17170  Biso   1.000  C
  H15      1.0000 0.49860  0.14780  0.05360  Biso   1.000  H
  C18      1.0000 0.56124  0.18211  0.48580  Biso   1.000  C
  H16      1.0000 0.58430  0.18300  0.62290  Biso   1.000  H
  C19      1.0000 0.59493  0.11041  0.55800  Biso   1.000  C
  H17      1.0000 0.60720  0.12780  0.66530  Biso   1.000  H
  C20      1.0000 0.61208  0.07354  0.59010  Biso   1.000  C
  C21      1.0000 0.59498  0.04736  0.43310  Biso   1.000  C
  H18      1.0000 0.57340  0.05230  0.29520  Biso   1.000  H
  C22      1.0000 0.61066  0.01332  0.48490  Biso   1.000  C
  H19      1.0000 0.60010  0.99510  0.38080  Biso   1.000  H
  C23      1.0000 0.64214  0.00684  0.69350  Biso   1.000  C
  H20      1.0000 0.65190  0.98390  0.72890  Biso   1.000  H
  C24      1.0000 0.64407  0.06517  0.79340  Biso   1.000  C
  H21      1.0000 0.65560  0.08310  0.89760  Biso   1.000  H
  Ag4      1.0000 0.46009  0.73145  0.43953  Biso   1.000  Ag
  N16      1.0000 0.50704  0.69663  0.68260  Biso   1.000  N
  N17      1.0000 0.53696  0.70900  0.88320  Biso   1.000  N
  N18      1.0000 0.54714  0.65253  0.85860  Biso   1.000  N
  N19      1.0000 0.56315  0.61744  0.88090  Biso   1.000  N
  N20      1.0000 0.65914  0.53245  0.34710  Biso   1.000  N
  C25      1.0000 0.51405  0.66259  0.67170  Biso   1.000  C
  H22      1.0000 0.49860  0.64780  0.55360  Biso   1.000  H
  C26      1.0000 0.56124  0.68211  0.98580  Biso   1.000  C
  H23      1.0000 0.58430  0.68300  0.12290  Biso   1.000  H
  C27      1.0000 0.59493  0.61041  0.05800  Biso   1.000  C
  H24      1.0000 0.60720  0.62780  0.16530  Biso   1.000  H
  C28      1.0000 0.61208  0.57354  0.09010  Biso   1.000  C
  C29      1.0000 0.59498  0.54736  0.93310  Biso   1.000  C
  H25      1.0000 0.57340  0.55230  0.79520  Biso   1.000  H
  C30      1.0000 0.61066  0.51332  0.98490  Biso   1.000  C
  H26      1.0000 0.60010  0.49510  0.88080  Biso   1.000  H
  C31      1.0000 0.64214  0.50684  0.19350  Biso   1.000  C
  H27      1.0000 0.65190  0.48390  0.22890  Biso   1.000  H
  C32      1.0000 0.64407  0.56517  0.29340  Biso   1.000  C
  H28      1.0000 0.65560  0.58310  0.39760  Biso   1.000  H
  Ag5      1.0000 0.03991  0.76855  0.43953  Biso   1.000  Ag
  N21      1.0000 0.99296  0.80337  0.68260  Biso   1.000  N
  N22      1.0000 0.96304  0.79100  0.88320  Biso   1.000  N
  N23      1.0000 0.95286  0.84747  0.85860  Biso   1.000  N
  N24      1.0000 0.93685  0.88256  0.88090  Biso   1.000  N
  N25      1.0000 0.84086  0.96755  0.34710  Biso   1.000  N
  C33      1.0000 0.98595  0.83741  0.67170  Biso   1.000  C
  H29      1.0000 0.00140  0.85220  0.55360  Biso   1.000  H
  C34      1.0000 0.93876  0.81789  0.98580  Biso   1.000  C
  H30      1.0000 0.91570  0.81700  0.12290  Biso   1.000  H
  C35      1.0000 0.90507  0.88959  0.05800  Biso   1.000  C
  H31      1.0000 0.89280  0.87220  0.16530  Biso   1.000  H
  C36      1.0000 0.88792  0.92646  0.09010  Biso   1.000  C
  C37      1.0000 0.90502  0.95264  0.93310  Biso   1.000  C
  H32      1.0000 0.92660  0.94770  0.79520  Biso   1.000  H
  C38      1.0000 0.88934  0.98668  0.98490  Biso   1.000  C
  H33      1.0000 0.89990  0.00490  0.88080  Biso   1.000  H
  C39      1.0000 0.85786  0.99316  0.19350  Biso   1.000  C
  H34      1.0000 0.84810  0.01610  0.22890  Biso   1.000  H
  C40      1.0000 0.85593  0.93483  0.29340  Biso   1.000  C
  H35      1.0000 0.84440  0.91690  0.39760  Biso   1.000  H
  Ag6      1.0000 0.03991  0.26855  0.93953  Biso   1.000  Ag
  N26      1.0000 0.99296  0.30337  0.18260  Biso   1.000  N
  N27      1.0000 0.96304  0.29100  0.38320  Biso   1.000  N
  N28      1.0000 0.95286  0.34747  0.35860  Biso   1.000  N
  N29      1.0000 0.93685  0.38256  0.38090  Biso   1.000  N
  N30      1.0000 0.84086  0.46755  0.84710  Biso   1.000  N
  C41      1.0000 0.98595  0.33741  0.17170  Biso   1.000  C
  H36      1.0000 0.00140  0.35220  0.05360  Biso   1.000  H
  C42      1.0000 0.93876  0.31789  0.48580  Biso   1.000  C
  H37      1.0000 0.91570  0.31700  0.62290  Biso   1.000  H
  C43      1.0000 0.90507  0.38959  0.55800  Biso   1.000  C
  H38      1.0000 0.89280  0.37220  0.66530  Biso   1.000  H
  C44      1.0000 0.88792  0.42646  0.59010  Biso   1.000  C
  C45      1.0000 0.90502  0.45264  0.43310  Biso   1.000  C
  H39      1.0000 0.92660  0.44770  0.29520  Biso   1.000  H
  C46      1.0000 0.88934  0.48668  0.48490  Biso   1.000  C
  H40      1.0000 0.89990  0.50490  0.38080  Biso   1.000  H
  C47      1.0000 0.85786  0.49316  0.69350  Biso   1.000  C
  H41      1.0000 0.84810  0.51610  0.72890  Biso   1.000  H
  C48      1.0000 0.85593  0.43483  0.79340  Biso   1.000  C
  H42      1.0000 0.84440  0.41690  0.89760  Biso   1.000  H
  Ag7      1.0000 0.53991  0.76855  0.93953  Biso   1.000  Ag
  N31      1.0000 0.49296  0.80337  0.18260  Biso   1.000  N
  N32      1.0000 0.46304  0.79100  0.38320  Biso   1.000  N
  N33      1.0000 0.45286  0.84747  0.35860  Biso   1.000  N
  N34      1.0000 0.43685  0.88256  0.38090  Biso   1.000  N
  N35      1.0000 0.34086  0.96755  0.84710  Biso   1.000  N
  C49      1.0000 0.48595  0.83741  0.17170  Biso   1.000  C
  H43      1.0000 0.50140  0.85220  0.05360  Biso   1.000  H
  C50      1.0000 0.43876  0.81789  0.48580  Biso   1.000  C
  H44      1.0000 0.41570  0.81700  0.62290  Biso   1.000  H
  C51      1.0000 0.40507  0.88959  0.55800  Biso   1.000  C
  H45      1.0000 0.39280  0.87220  0.66530  Biso   1.000  H
  C52      1.0000 0.38792  0.92646  0.59010  Biso   1.000  C
  C53      1.0000 0.40502  0.95264  0.43310  Biso   1.000  C
  H46      1.0000 0.42660  0.94770  0.29520  Biso   1.000  H
  C54      1.0000 0.38934  0.98668  0.48490  Biso   1.000  C
  H47      1.0000 0.39990  0.00490  0.38080  Biso   1.000  H
  C55      1.0000 0.35786  0.99316  0.69350  Biso   1.000  C
  H48      1.0000 0.34810  0.01610  0.72890  Biso   1.000  H
  C56      1.0000 0.35593  0.93483  0.79340  Biso   1.000  C
  H49      1.0000 0.34440  0.91690  0.89760  Biso   1.000  H
  Ag8      1.0000 0.53991  0.26855  0.43953  Biso   1.000  Ag
  N36      1.0000 0.49296  0.30337  0.68260  Biso   1.000  N
  N37      1.0000 0.46304  0.29100  0.88320  Biso   1.000  N
  N38      1.0000 0.45286  0.34747  0.85860  Biso   1.000  N
  N39      1.0000 0.43685  0.38256  0.88090  Biso   1.000  N
  N40      1.0000 0.34086  0.46755  0.34710  Biso   1.000  N
  C57      1.0000 0.48595  0.33741  0.67170  Biso   1.000  C
  H50      1.0000 0.50140  0.35220  0.55360  Biso   1.000  H
  C58      1.0000 0.43876  0.31789  0.98580  Biso   1.000  C
  H51      1.0000 0.41570  0.31700  0.12290  Biso   1.000  H
  C59      1.0000 0.40507  0.38959  0.05800  Biso   1.000  C
  H52      1.0000 0.39280  0.37220  0.16530  Biso   1.000  H
  C60      1.0000 0.38792  0.42646  0.09010  Biso   1.000  C
  C61      1.0000 0.40502  0.45264  0.93310  Biso   1.000  C
  H53      1.0000 0.42660  0.44770  0.79520  Biso   1.000  H
  C62      1.0000 0.38934  0.48668  0.98490  Biso   1.000  C
  H54      1.0000 0.39990  0.50490  0.88080  Biso   1.000  H
  C63      1.0000 0.35786  0.49316  0.19350  Biso   1.000  C
  H55      1.0000 0.34810  0.51610  0.22890  Biso   1.000  H
  C64      1.0000 0.35593  0.43483  0.29340  Biso   1.000  C
  H56      1.0000 0.34440  0.41690  0.39760  Biso   1.000  H
  Ag9      1.0000 0.21009  0.01855  0.68953  Biso   1.000  Ag
  N41      1.0000 0.25704  0.05337  0.93260  Biso   1.000  N
  N42      1.0000 0.28696  0.04100  0.13320  Biso   1.000  N
  N43      1.0000 0.29714  0.09747  0.10860  Biso   1.000  N
  N44      1.0000 0.31315  0.13256  0.13090  Biso   1.000  N
  N45      1.0000 0.40914  0.21755  0.59710  Biso   1.000  N
  C65      1.0000 0.26405  0.08741  0.92170  Biso   1.000  C
  H57      1.0000 0.24860  0.10220  0.80360  Biso   1.000  H
  C66      1.0000 0.31124  0.06789  0.23580  Biso   1.000  C
  H58      1.0000 0.33430  0.06700  0.37290  Biso   1.000  H
  C67      1.0000 0.34493  0.13959  0.30800  Biso   1.000  C
  H59      1.0000 0.35720  0.12220  0.41530  Biso   1.000  H
  C68      1.0000 0.36208  0.17646  0.34010  Biso   1.000  C
  C69      1.0000 0.34498  0.20264  0.18310  Biso   1.000  C
  H60      1.0000 0.32340  0.19770  0.04520  Biso   1.000  H
  C70      1.0000 0.36066  0.23668  0.23490  Biso   1.000  C
  H61      1.0000 0.35010  0.25490  0.13080  Biso   1.000  H
  C71      1.0000 0.39214  0.24316  0.44350  Biso   1.000  C
  H62      1.0000 0.40190  0.26610  0.47890  Biso   1.000  H
  C72      1.0000 0.39407  0.18483  0.54340  Biso   1.000  C
  H63      1.0000 0.40560  0.16690  0.64760  Biso   1.000  H
  Ag10     1.0000 0.21009  0.51855  0.18953  Biso   1.000  Ag
  N46      1.0000 0.25704  0.55337  0.43260  Biso   1.000  N
  N47      1.0000 0.28696  0.54100  0.63320  Biso   1.000  N
  N48      1.0000 0.29714  0.59747  0.60860  Biso   1.000  N
  N49      1.0000 0.31315  0.63256  0.63090  Biso   1.000  N
  N50      1.0000 0.40914  0.71755  0.09710  Biso   1.000  N
  C73      1.0000 0.26405  0.58741  0.42170  Biso   1.000  C
  H64      1.0000 0.24860  0.60220  0.30360  Biso   1.000  H
  C74      1.0000 0.31124  0.56789  0.73580  Biso   1.000  C
  H65      1.0000 0.33430  0.56700  0.87290  Biso   1.000  H
  C75      1.0000 0.34493  0.63959  0.80800  Biso   1.000  C
  H66      1.0000 0.35720  0.62220  0.91530  Biso   1.000  H
  C76      1.0000 0.36208  0.67646  0.84010  Biso   1.000  C
  C77      1.0000 0.34498  0.70264  0.68310  Biso   1.000  C
  H67      1.0000 0.32340  0.69770  0.54520  Biso   1.000  H
  C78      1.0000 0.36066  0.73668  0.73490  Biso   1.000  C
  H68      1.0000 0.35010  0.75490  0.63080  Biso   1.000  H
  C79      1.0000 0.39214  0.74316  0.94350  Biso   1.000  C
  H69      1.0000 0.40190  0.76610  0.97890  Biso   1.000  H
  C80      1.0000 0.39407  0.68483  0.04340  Biso   1.000  C
  H70      1.0000 0.40560  0.66690  0.14760  Biso   1.000  H
  Ag11     1.0000 0.71009  0.01855  0.18953  Biso   1.000  Ag
  N51      1.0000 0.75704  0.05337  0.43260  Biso   1.000  N
  N52      1.0000 0.78696  0.04100  0.63320  Biso   1.000  N
  N53      1.0000 0.79714  0.09747  0.60860  Biso   1.000  N
  N54      1.0000 0.81315  0.13256  0.63090  Biso   1.000  N
  N55      1.0000 0.90914  0.21755  0.09710  Biso   1.000  N
  C81      1.0000 0.76405  0.08741  0.42170  Biso   1.000  C
  H71      1.0000 0.74860  0.10220  0.30360  Biso   1.000  H
  C82      1.0000 0.81124  0.06789  0.73580  Biso   1.000  C
  H72      1.0000 0.83430  0.06700  0.87290  Biso   1.000  H
  C83      1.0000 0.84493  0.13959  0.80800  Biso   1.000  C
  H73      1.0000 0.85720  0.12220  0.91530  Biso   1.000  H
  C84      1.0000 0.86208  0.17646  0.84010  Biso   1.000  C
  C85      1.0000 0.84498  0.20264  0.68310  Biso   1.000  C
  H74      1.0000 0.82340  0.19770  0.54520  Biso   1.000  H
  C86      1.0000 0.86066  0.23668  0.73490  Biso   1.000  C
  H75      1.0000 0.85010  0.25490  0.63080  Biso   1.000  H
  C87      1.0000 0.89214  0.24316  0.94350  Biso   1.000  C
  H76      1.0000 0.90190  0.26610  0.97890  Biso   1.000  H
  C88      1.0000 0.89407  0.18483  0.04340  Biso   1.000  C
  H77      1.0000 0.90560  0.16690  0.14760  Biso   1.000  H
  Ag12     1.0000 0.71009  0.51855  0.68953  Biso   1.000  Ag
  N56      1.0000 0.75704  0.55337  0.93260  Biso   1.000  N
  N57      1.0000 0.78696  0.54100  0.13320  Biso   1.000  N
  N58      1.0000 0.79714  0.59747  0.10860  Biso   1.000  N
  N59      1.0000 0.81315  0.63256  0.13090  Biso   1.000  N
  N60      1.0000 0.90914  0.71755  0.59710  Biso   1.000  N
  C89      1.0000 0.76405  0.58741  0.92170  Biso   1.000  C
  H78      1.0000 0.74860  0.60220  0.80360  Biso   1.000  H
  C90      1.0000 0.81124  0.56789  0.23580  Biso   1.000  C
  H79      1.0000 0.83430  0.56700  0.37290  Biso   1.000  H
  C91      1.0000 0.84493  0.63959  0.30800  Biso   1.000  C
  H80      1.0000 0.85720  0.62220  0.41530  Biso   1.000  H
  C92      1.0000 0.86208  0.67646  0.34010  Biso   1.000  C
  C93      1.0000 0.84498  0.70264  0.18310  Biso   1.000  C
  H81      1.0000 0.82340  0.69770  0.04520  Biso   1.000  H
  C94      1.0000 0.86066  0.73668  0.23490  Biso   1.000  C
  H82      1.0000 0.85010  0.75490  0.13080  Biso   1.000  H
  C95      1.0000 0.89214  0.74316  0.44350  Biso   1.000  C
  H83      1.0000 0.90190  0.76610  0.47890  Biso   1.000  H
  C96      1.0000 0.89407  0.68483  0.54340  Biso   1.000  C
  H84      1.0000 0.90560  0.66690  0.64760  Biso   1.000  H
  Ag13     1.0000 0.28991  0.48145  0.68953  Biso   1.000  Ag
  N61      1.0000 0.24296  0.44663  0.93260  Biso   1.000  N
  N62      1.0000 0.21304  0.45900  0.13320  Biso   1.000  N
  N63      1.0000 0.20286  0.40253  0.10860  Biso   1.000  N
  N64      1.0000 0.18685  0.36744  0.13090  Biso   1.000  N
  N65      1.0000 0.09086  0.28245  0.59710  Biso   1.000  N
  C97      1.0000 0.23595  0.41259  0.92170  Biso   1.000  C
  H85      1.0000 0.25140  0.39780  0.80360  Biso   1.000  H
  C98      1.0000 0.18876  0.43211  0.23580  Biso   1.000  C
  H86      1.0000 0.16570  0.43300  0.37290  Biso   1.000  H
  C99      1.0000 0.15507  0.36041  0.30800  Biso   1.000  C
  H87      1.0000 0.14280  0.37780  0.41530  Biso   1.000  H
  C100     1.0000 0.13792  0.32354  0.34010  Biso   1.000  C
  C101     1.0000 0.15502  0.29736  0.18310  Biso   1.000  C
  H88      1.0000 0.17660  0.30230  0.04520  Biso   1.000  H
  C102     1.0000 0.13934  0.26332  0.23490  Biso   1.000  C
  H89      1.0000 0.14990  0.24510  0.13080  Biso   1.000  H
  C103     1.0000 0.10786  0.25684  0.44350  Biso   1.000  C
  H90      1.0000 0.09810  0.23390  0.47890  Biso   1.000  H
  C104     1.0000 0.10593  0.31517  0.54340  Biso   1.000  C
  H91      1.0000 0.09440  0.33310  0.64760  Biso   1.000  H
  Ag14     1.0000 0.28991  0.98145  0.18953  Biso   1.000  Ag
  N66      1.0000 0.24296  0.94663  0.43260  Biso   1.000  N
  N67      1.0000 0.21304  0.95900  0.63320  Biso   1.000  N
  N68      1.0000 0.20286  0.90253  0.60860  Biso   1.000  N
  N69      1.0000 0.18685  0.86744  0.63090  Biso   1.000  N
  N70      1.0000 0.09086  0.78245  0.09710  Biso   1.000  N
  C105     1.0000 0.23595  0.91259  0.42170  Biso   1.000  C
  H92      1.0000 0.25140  0.89780  0.30360  Biso   1.000  H
  C106     1.0000 0.18876  0.93211  0.73580  Biso   1.000  C
  H93      1.0000 0.16570  0.93300  0.87290  Biso   1.000  H
  C107     1.0000 0.15507  0.86041  0.80800  Biso   1.000  C
  H94      1.0000 0.14280  0.87780  0.91530  Biso   1.000  H
  C108     1.0000 0.13792  0.82354  0.84010  Biso   1.000  C
  C109     1.0000 0.15502  0.79736  0.68310  Biso   1.000  C
  H95      1.0000 0.17660  0.80230  0.54520  Biso   1.000  H
  C110     1.0000 0.13934  0.76332  0.73490  Biso   1.000  C
  H96      1.0000 0.14990  0.74510  0.63080  Biso   1.000  H
  C111     1.0000 0.10786  0.75684  0.94350  Biso   1.000  C
  H97      1.0000 0.09810  0.73390  0.97890  Biso   1.000  H
  C112     1.0000 0.10593  0.81517  0.04340  Biso   1.000  C
  H98      1.0000 0.09440  0.83310  0.14760  Biso   1.000  H
  Ag15     1.0000 0.78991  0.48145  0.18953  Biso   1.000  Ag
  N71      1.0000 0.74296  0.44663  0.43260  Biso   1.000  N
  N72      1.0000 0.71304  0.45900  0.63320  Biso   1.000  N
  N73      1.0000 0.70286  0.40253  0.60860  Biso   1.000  N
  N74      1.0000 0.68685  0.36744  0.63090  Biso   1.000  N
  N75      1.0000 0.59086  0.28245  0.09710  Biso   1.000  N
  C113     1.0000 0.73595  0.41259  0.42170  Biso   1.000  C
  H99      1.0000 0.75140  0.39780  0.30360  Biso   1.000  H
  C114     1.0000 0.68876  0.43211  0.73580  Biso   1.000  C
  H100     1.0000 0.66570  0.43300  0.87290  Biso   1.000  H
  C115     1.0000 0.65507  0.36041  0.80800  Biso   1.000  C
  H101     1.0000 0.64280  0.37780  0.91530  Biso   1.000  H
  C116     1.0000 0.63792  0.32354  0.84010  Biso   1.000  C
  C117     1.0000 0.65502  0.29736  0.68310  Biso   1.000  C
  H102     1.0000 0.67660  0.30230  0.54520  Biso   1.000  H
  C118     1.0000 0.63934  0.26332  0.73490  Biso   1.000  C
  H103     1.0000 0.64990  0.24510  0.63080  Biso   1.000  H
  C119     1.0000 0.60786  0.25684  0.94350  Biso   1.000  C
  H104     1.0000 0.59810  0.23390  0.97890  Biso   1.000  H
  C120     1.0000 0.60593  0.31517  0.04340  Biso   1.000  C
  H105     1.0000 0.59440  0.33310  0.14760  Biso   1.000  H
  Ag16     1.0000 0.78991  0.98145  0.68953  Biso   1.000  Ag
  N76      1.0000 0.74296  0.94663  0.93260  Biso   1.000  N
  N77      1.0000 0.71304  0.95900  0.13320  Biso   1.000  N
  N78      1.0000 0.70286  0.90253  0.10860  Biso   1.000  N
  N79      1.0000 0.68685  0.86744  0.13090  Biso   1.000  N
  N80      1.0000 0.59086  0.78245  0.59710  Biso   1.000  N
  C121     1.0000 0.73595  0.91259  0.92170  Biso   1.000  C
  H106     1.0000 0.75140  0.89780  0.80360  Biso   1.000  H
  C122     1.0000 0.68876  0.93211  0.23580  Biso   1.000  C
  H107     1.0000 0.66570  0.93300  0.37290  Biso   1.000  H
  C123     1.0000 0.65507  0.86041  0.30800  Biso   1.000  C
  H108     1.0000 0.64280  0.87780  0.41530  Biso   1.000  H
  C124     1.0000 0.63792  0.82354  0.34010  Biso   1.000  C
  C125     1.0000 0.65502  0.79736  0.18310  Biso   1.000  C
  H109     1.0000 0.67660  0.80230  0.04520  Biso   1.000  H
  C126     1.0000 0.63934  0.76332  0.23490  Biso   1.000  C
  H110     1.0000 0.64990  0.74510  0.13080  Biso   1.000  H
  C127     1.0000 0.60786  0.75684  0.44350  Biso   1.000  C
  H111     1.0000 0.59810  0.73390  0.47890  Biso   1.000  H
  C128     1.0000 0.60593  0.81517  0.54340  Biso   1.000  C
  H112     1.0000 0.59440  0.83310  0.64760  Biso   1.000  H
