data_image0
_cell_length_a       30.3801
_cell_length_b       10.1204
_cell_length_c       10.0977
_cell_angle_alpha    90
_cell_angle_beta     107.712
_cell_angle_gamma    90

_symmetry_space_group_name_H-M    "P 1"
_symmetry_int_tables_number       1

loop_
  _symmetry_equiv_pos_as_xyz
  'x, y, z'

loop_
  _atom_site_label
  _atom_site_occupancy
  _atom_site_fract_x
  _atom_site_fract_y
  _atom_site_fract_z
  _atom_site_thermal_displace_type
  _atom_site_B_iso_or_equiv
  _atom_site_type_symbol
  Fe1      1.0000 0.79644  0.16238  0.91870  Biso   1.000  Fe
  Fe2      1.0000 0.79261  0.92250  0.67120  Biso   1.000  Fe
  Fe3      1.0000 0.03442  0.67750  0.39990  Biso   1.000  Fe
  Fe4      1.0000 0.86542  0.92810  0.00770  Biso   1.000  Fe
  Fe5      1.0000 0.94907  0.43160  0.33830  Biso   1.000  Fe
  Fe6      1.0000 0.87514  0.17770  0.77080  Biso   1.000  Fe
  P1       1.0000 0.76994  0.21920  0.59940  Biso   1.000  P
  P2       1.0000 0.92853  0.73800  0.28590  Biso   1.000  P
  P3       1.0000 0.88902  0.21930  0.06870  Biso   1.000  P
  P4       1.0000 0.90040  0.87760  0.75020  Biso   1.000  P
  P5       1.0000 0.05425  0.38040  0.35580  Biso   1.000  P
  P6       1.0000 0.75886  0.87410  0.92710  Biso   1.000  P
  O1       1.0000 0.76140  0.06920  0.55910  Biso   1.000  O
  O2       1.0000 0.75990  0.24220  0.73930  Biso   1.000  O
  O3       1.0000 0.82030  0.25530  0.61360  Biso   1.000  O
  O4       1.0000 0.73600  0.30060  0.49010  Biso   1.000  O
  O5       1.0000 0.97910  0.76230  0.28230  Biso   1.000  O
  O6       1.0000 0.92730  0.75990  0.43620  Biso   1.000  O
  O7       1.0000 0.89550  0.83380  0.19340  Biso   1.000  O
  O8       1.0000 0.91480  0.59400  0.24470  Biso   1.000  O
  O9       1.0000 0.85520  0.10850  0.09240  Biso   1.000  O
  O10      1.0000 0.85680  0.27890  0.92840  Biso   1.000  O
  O11      1.0000 0.93030  0.15990  0.03920  Biso   1.000  O
  O12      1.0000 0.89940  0.31930  0.18480  Biso   1.000  O
  O13      1.0000 0.85050  0.84210  0.65800  Biso   1.000  O
  O14      1.0000 0.93520  0.79150  0.71250  Biso   1.000  O
  O15      1.0000 0.90440  0.85000  0.90390  Biso   1.000  O
  O16      1.0000 0.90980  0.02400  0.72530  Biso   1.000  O
  O17      1.0000 0.05980  0.53110  0.33260  Biso   1.000  O
  O18      1.0000 0.00260  0.34470  0.30240  Biso   1.000  O
  O19      1.0000 0.07930  0.30900  0.26900  Biso   1.000  O
  O20      1.0000 0.07380  0.35130  0.51130  Biso   1.000  O
  O21      1.0000 0.75420  0.84490  0.77110  Biso   1.000  O
  O22      1.0000 0.75340  0.02550  0.94600  Biso   1.000  O
  O23      1.0000 0.80650  0.82650  0.98310  Biso   1.000  O
  O24      1.0000 0.71990  0.80270  0.96280  Biso   1.000  O
  O25      1.0000 0.82540  0.03300  0.82140  Biso   1.000  O
  Fe7      1.0000 0.29644  0.66238  0.91870  Biso   1.000  Fe
  Fe8      1.0000 0.29261  0.42250  0.67120  Biso   1.000  Fe
  Fe9      1.0000 0.53442  0.17750  0.39990  Biso   1.000  Fe
  Fe10     1.0000 0.36542  0.42810  0.00770  Biso   1.000  Fe
  Fe11     1.0000 0.44907  0.93160  0.33830  Biso   1.000  Fe
  Fe12     1.0000 0.37514  0.67770  0.77080  Biso   1.000  Fe
  P7       1.0000 0.26994  0.71920  0.59940  Biso   1.000  P
  P8       1.0000 0.42853  0.23800  0.28590  Biso   1.000  P
  P9       1.0000 0.38902  0.71930  0.06870  Biso   1.000  P
  P10      1.0000 0.40040  0.37760  0.75020  Biso   1.000  P
  P11      1.0000 0.55425  0.88040  0.35580  Biso   1.000  P
  P12      1.0000 0.25886  0.37410  0.92710  Biso   1.000  P
  O26      1.0000 0.26140  0.56920  0.55910  Biso   1.000  O
  O27      1.0000 0.25990  0.74220  0.73930  Biso   1.000  O
  O28      1.0000 0.32030  0.75530  0.61360  Biso   1.000  O
  O29      1.0000 0.23600  0.80060  0.49010  Biso   1.000  O
  O30      1.0000 0.47910  0.26230  0.28230  Biso   1.000  O
  O31      1.0000 0.42730  0.25990  0.43620  Biso   1.000  O
  O32      1.0000 0.39550  0.33380  0.19340  Biso   1.000  O
  O33      1.0000 0.41480  0.09400  0.24470  Biso   1.000  O
  O34      1.0000 0.35520  0.60850  0.09240  Biso   1.000  O
  O35      1.0000 0.35680  0.77890  0.92840  Biso   1.000  O
  O36      1.0000 0.43030  0.65990  0.03920  Biso   1.000  O
  O37      1.0000 0.39940  0.81930  0.18480  Biso   1.000  O
  O38      1.0000 0.35050  0.34210  0.65800  Biso   1.000  O
  O39      1.0000 0.43520  0.29150  0.71250  Biso   1.000  O
  O40      1.0000 0.40440  0.35000  0.90390  Biso   1.000  O
  O41      1.0000 0.40980  0.52400  0.72530  Biso   1.000  O
  O42      1.0000 0.55980  0.03110  0.33260  Biso   1.000  O
  O43      1.0000 0.50260  0.84470  0.30240  Biso   1.000  O
  O44      1.0000 0.57930  0.80900  0.26900  Biso   1.000  O
  O45      1.0000 0.57380  0.85130  0.51130  Biso   1.000  O
  O46      1.0000 0.25420  0.34490  0.77110  Biso   1.000  O
  O47      1.0000 0.25340  0.52550  0.94600  Biso   1.000  O
  O48      1.0000 0.30650  0.32650  0.98310  Biso   1.000  O
  O49      1.0000 0.21990  0.30270  0.96280  Biso   1.000  O
  O50      1.0000 0.32540  0.53300  0.82140  Biso   1.000  O
  Fe13     1.0000 0.20356  0.16238  0.08130  Biso   1.000  Fe
  Fe14     1.0000 0.20739  0.92250  0.32880  Biso   1.000  Fe
  Fe15     1.0000 0.96558  0.67750  0.60010  Biso   1.000  Fe
  Fe16     1.0000 0.13458  0.92810  0.99230  Biso   1.000  Fe
  Fe17     1.0000 0.05093  0.43160  0.66170  Biso   1.000  Fe
  Fe18     1.0000 0.12486  0.17770  0.22920  Biso   1.000  Fe
  P13      1.0000 0.23006  0.21920  0.40060  Biso   1.000  P
  P14      1.0000 0.07147  0.73800  0.71410  Biso   1.000  P
  P15      1.0000 0.11098  0.21930  0.93130  Biso   1.000  P
  P16      1.0000 0.09960  0.87760  0.24980  Biso   1.000  P
  P17      1.0000 0.94575  0.38040  0.64420  Biso   1.000  P
  P18      1.0000 0.24114  0.87410  0.07290  Biso   1.000  P
  O51      1.0000 0.23860  0.06920  0.44090  Biso   1.000  O
  O52      1.0000 0.24010  0.24220  0.26070  Biso   1.000  O
  O53      1.0000 0.17970  0.25530  0.38640  Biso   1.000  O
  O54      1.0000 0.26400  0.30060  0.50990  Biso   1.000  O
  O55      1.0000 0.02090  0.76230  0.71770  Biso   1.000  O
  O56      1.0000 0.07270  0.75990  0.56380  Biso   1.000  O
  O57      1.0000 0.10450  0.83380  0.80660  Biso   1.000  O
  O58      1.0000 0.08520  0.59400  0.75530  Biso   1.000  O
  O59      1.0000 0.14480  0.10850  0.90760  Biso   1.000  O
  O60      1.0000 0.14320  0.27890  0.07160  Biso   1.000  O
  O61      1.0000 0.06970  0.15990  0.96080  Biso   1.000  O
  O62      1.0000 0.10060  0.31930  0.81520  Biso   1.000  O
  O63      1.0000 0.14950  0.84210  0.34200  Biso   1.000  O
  O64      1.0000 0.06480  0.79150  0.28750  Biso   1.000  O
  O65      1.0000 0.09560  0.85000  0.09610  Biso   1.000  O
  O66      1.0000 0.09020  0.02400  0.27470  Biso   1.000  O
  O67      1.0000 0.94020  0.53110  0.66740  Biso   1.000  O
  O68      1.0000 0.99740  0.34470  0.69760  Biso   1.000  O
  O69      1.0000 0.92070  0.30900  0.73100  Biso   1.000  O
  O70      1.0000 0.92620  0.35130  0.48870  Biso   1.000  O
  O71      1.0000 0.24580  0.84490  0.22890  Biso   1.000  O
  O72      1.0000 0.24660  0.02550  0.05400  Biso   1.000  O
  O73      1.0000 0.19350  0.82650  0.01690  Biso   1.000  O
  O74      1.0000 0.28010  0.80270  0.03720  Biso   1.000  O
  O75      1.0000 0.17460  0.03300  0.17860  Biso   1.000  O
  Fe19     1.0000 0.70356  0.66238  0.08130  Biso   1.000  Fe
  Fe20     1.0000 0.70739  0.42250  0.32880  Biso   1.000  Fe
  Fe21     1.0000 0.46558  0.17750  0.60010  Biso   1.000  Fe
  Fe22     1.0000 0.63458  0.42810  0.99230  Biso   1.000  Fe
  Fe23     1.0000 0.55093  0.93160  0.66170  Biso   1.000  Fe
  Fe24     1.0000 0.62486  0.67770  0.22920  Biso   1.000  Fe
  P19      1.0000 0.73006  0.71920  0.40060  Biso   1.000  P
  P20      1.0000 0.57147  0.23800  0.71410  Biso   1.000  P
  P21      1.0000 0.61098  0.71930  0.93130  Biso   1.000  P
  P22      1.0000 0.59960  0.37760  0.24980  Biso   1.000  P
  P23      1.0000 0.44575  0.88040  0.64420  Biso   1.000  P
  P24      1.0000 0.74114  0.37410  0.07290  Biso   1.000  P
  O76      1.0000 0.73860  0.56920  0.44090  Biso   1.000  O
  O77      1.0000 0.74010  0.74220  0.26070  Biso   1.000  O
  O78      1.0000 0.67970  0.75530  0.38640  Biso   1.000  O
  O79      1.0000 0.76400  0.80060  0.50990  Biso   1.000  O
  O80      1.0000 0.52090  0.26230  0.71770  Biso   1.000  O
  O81      1.0000 0.57270  0.25990  0.56380  Biso   1.000  O
  O82      1.0000 0.60450  0.33380  0.80660  Biso   1.000  O
  O83      1.0000 0.58520  0.09400  0.75530  Biso   1.000  O
  O84      1.0000 0.64480  0.60850  0.90760  Biso   1.000  O
  O85      1.0000 0.64320  0.77890  0.07160  Biso   1.000  O
  O86      1.0000 0.56970  0.65990  0.96080  Biso   1.000  O
  O87      1.0000 0.60060  0.81930  0.81520  Biso   1.000  O
  O88      1.0000 0.64950  0.34210  0.34200  Biso   1.000  O
  O89      1.0000 0.56480  0.29150  0.28750  Biso   1.000  O
  O90      1.0000 0.59560  0.35000  0.09610  Biso   1.000  O
  O91      1.0000 0.59020  0.52400  0.27470  Biso   1.000  O
  O92      1.0000 0.44020  0.03110  0.66740  Biso   1.000  O
  O93      1.0000 0.49740  0.84470  0.69760  Biso   1.000  O
  O94      1.0000 0.42070  0.80900  0.73100  Biso   1.000  O
  O95      1.0000 0.42620  0.85130  0.48870  Biso   1.000  O
  O96      1.0000 0.74580  0.34490  0.22890  Biso   1.000  O
  O97      1.0000 0.74660  0.52550  0.05400  Biso   1.000  O
  O98      1.0000 0.69350  0.32650  0.01690  Biso   1.000  O
  O99      1.0000 0.78010  0.30270  0.03720  Biso   1.000  O
  O100     1.0000 0.67460  0.53300  0.17860  Biso   1.000  O
  O101     1.0000 0.00000  0.57730  0.50000  Biso   1.000  O
  O102     1.0000 0.50000  0.07730  0.50000  Biso   1.000  O
