data_image0
_cell_length_a       20.3177
_cell_length_b       20.3177
_cell_length_c       20.3177
_cell_angle_alpha    90
_cell_angle_beta     90
_cell_angle_gamma    90

_symmetry_space_group_name_H-M    "P 1"
_symmetry_int_tables_number       1

loop_
  _symmetry_equiv_pos_as_xyz
  'x, y, z'

loop_
  _atom_site_label
  _atom_site_occupancy
  _atom_site_fract_x
  _atom_site_fract_y
  _atom_site_fract_z
  _atom_site_thermal_displace_type
  _atom_site_B_iso_or_equiv
  _atom_site_type_symbol
  O1       1.0000 0.12970  0.81460  0.24410  Biso   1.000  O
  O2       1.0000 0.04740  0.88390  0.21560  Biso   1.000  O
  N1       1.0000 0.99700  0.65590  0.00890  Biso   1.000  N
  H1       1.0000 0.96080  0.67000  0.98960  Biso   1.000  H
  N2       1.0000 0.99080  0.57760  0.93000  Biso   1.000  N
  C1       1.0000 0.07790  0.83150  0.20900  Biso   1.000  C
  C2       1.0000 0.05760  0.78380  0.15480  Biso   1.000  C
  C3       1.0000 0.01180  0.79920  0.11680  Biso   1.000  C
  H2       1.0000 0.99110  0.84090  0.12110  Biso   1.000  H
  C4       1.0000 0.99060  0.75490  0.06750  Biso   1.000  C
  H3       1.0000 0.95710  0.76860  0.03790  Biso   1.000  H
  C5       1.0000 0.01670  0.69290  0.06090  Biso   1.000  C
  C6       1.0000 0.07330  0.67980  0.09980  Biso   1.000  C
  H4       1.0000 0.09820  0.64090  0.09270  Biso   1.000  H
  C7       1.0000 0.09210  0.72410  0.14840  Biso   1.000  C
  H5       1.0000 0.12780  0.71420  0.17690  Biso   1.000  H
  C8       1.0000 0.02420  0.59880  0.98020  Biso   1.000  C
  O3       1.0000 0.37030  0.18540  0.74410  Biso   1.000  O
  O4       1.0000 0.45260  0.11610  0.71560  Biso   1.000  O
  N3       1.0000 0.50300  0.34410  0.50890  Biso   1.000  N
  H6       1.0000 0.53920  0.33000  0.48960  Biso   1.000  H
  N4       1.0000 0.50920  0.42240  0.43000  Biso   1.000  N
  C9       1.0000 0.42210  0.16850  0.70900  Biso   1.000  C
  C10      1.0000 0.44240  0.21620  0.65480  Biso   1.000  C
  C11      1.0000 0.48820  0.20080  0.61680  Biso   1.000  C
  H7       1.0000 0.50890  0.15910  0.62110  Biso   1.000  H
  C12      1.0000 0.50940  0.24510  0.56750  Biso   1.000  C
  H8       1.0000 0.54290  0.23140  0.53790  Biso   1.000  H
  C13      1.0000 0.48330  0.30710  0.56090  Biso   1.000  C
  C14      1.0000 0.42670  0.32020  0.59980  Biso   1.000  C
  H9       1.0000 0.40180  0.35910  0.59270  Biso   1.000  H
  C15      1.0000 0.40790  0.27590  0.64840  Biso   1.000  C
  H10      1.0000 0.37220  0.28580  0.67690  Biso   1.000  H
  C16      1.0000 0.47580  0.40120  0.48020  Biso   1.000  C
  O5       1.0000 0.87030  0.31460  0.25590  Biso   1.000  O
  O6       1.0000 0.95260  0.38390  0.28440  Biso   1.000  O
  N5       1.0000 0.00300  0.15590  0.49110  Biso   1.000  N
  H11      1.0000 0.03920  0.17000  0.51040  Biso   1.000  H
  N6       1.0000 0.00920  0.07760  0.57000  Biso   1.000  N
  C17      1.0000 0.92210  0.33150  0.29100  Biso   1.000  C
  C18      1.0000 0.94240  0.28380  0.34520  Biso   1.000  C
  C19      1.0000 0.98820  0.29920  0.38320  Biso   1.000  C
  H12      1.0000 0.00890  0.34090  0.37890  Biso   1.000  H
  C20      1.0000 0.00940  0.25490  0.43250  Biso   1.000  C
  H13      1.0000 0.04290  0.26860  0.46210  Biso   1.000  H
  C21      1.0000 0.98330  0.19290  0.43910  Biso   1.000  C
  C22      1.0000 0.92670  0.17980  0.40020  Biso   1.000  C
  H14      1.0000 0.90180  0.14090  0.40730  Biso   1.000  H
  C23      1.0000 0.90790  0.22410  0.35160  Biso   1.000  C
  H15      1.0000 0.87220  0.21420  0.32310  Biso   1.000  H
  C24      1.0000 0.97580  0.09880  0.51980  Biso   1.000  C
  O7       1.0000 0.62970  0.68540  0.75590  Biso   1.000  O
  O8       1.0000 0.54740  0.61610  0.78440  Biso   1.000  O
  N7       1.0000 0.49700  0.84410  0.99110  Biso   1.000  N
  H16      1.0000 0.46080  0.83000  0.01040  Biso   1.000  H
  N8       1.0000 0.49080  0.92240  0.07000  Biso   1.000  N
  C25      1.0000 0.57790  0.66850  0.79100  Biso   1.000  C
  C26      1.0000 0.55760  0.71620  0.84520  Biso   1.000  C
  C27      1.0000 0.51180  0.70080  0.88320  Biso   1.000  C
  H17      1.0000 0.49110  0.65910  0.87890  Biso   1.000  H
  C28      1.0000 0.49060  0.74510  0.93250  Biso   1.000  C
  H18      1.0000 0.45710  0.73140  0.96210  Biso   1.000  H
  C29      1.0000 0.51670  0.80710  0.93910  Biso   1.000  C
  C30      1.0000 0.57330  0.82020  0.90020  Biso   1.000  C
  H19      1.0000 0.59820  0.85910  0.90730  Biso   1.000  H
  C31      1.0000 0.59210  0.77590  0.85160  Biso   1.000  C
  H20      1.0000 0.62780  0.78580  0.82310  Biso   1.000  H
  C32      1.0000 0.52420  0.90120  0.01980  Biso   1.000  C
  O9       1.0000 0.24410  0.12970  0.81460  Biso   1.000  O
  O10      1.0000 0.21560  0.04740  0.88390  Biso   1.000  O
  N9       1.0000 0.00890  0.99700  0.65590  Biso   1.000  N
  H21      1.0000 0.98960  0.96080  0.67000  Biso   1.000  H
  N10      1.0000 0.93000  0.99080  0.57760  Biso   1.000  N
  C33      1.0000 0.20900  0.07790  0.83150  Biso   1.000  C
  C34      1.0000 0.15480  0.05760  0.78380  Biso   1.000  C
  C35      1.0000 0.11680  0.01180  0.79920  Biso   1.000  C
  H22      1.0000 0.12110  0.99110  0.84090  Biso   1.000  H
  C36      1.0000 0.06750  0.99060  0.75490  Biso   1.000  C
  H23      1.0000 0.03790  0.95710  0.76860  Biso   1.000  H
  C37      1.0000 0.06090  0.01670  0.69290  Biso   1.000  C
  C38      1.0000 0.09980  0.07330  0.67980  Biso   1.000  C
  H24      1.0000 0.09270  0.09820  0.64090  Biso   1.000  H
  C39      1.0000 0.14840  0.09210  0.72410  Biso   1.000  C
  H25      1.0000 0.17690  0.12780  0.71420  Biso   1.000  H
  C40      1.0000 0.98020  0.02420  0.59880  Biso   1.000  C
  O11      1.0000 0.74410  0.37030  0.18540  Biso   1.000  O
  O12      1.0000 0.71560  0.45260  0.11610  Biso   1.000  O
  N11      1.0000 0.50890  0.50300  0.34410  Biso   1.000  N
  H26      1.0000 0.48960  0.53920  0.33000  Biso   1.000  H
  N12      1.0000 0.43000  0.50920  0.42240  Biso   1.000  N
  C41      1.0000 0.70900  0.42210  0.16850  Biso   1.000  C
  C42      1.0000 0.65480  0.44240  0.21620  Biso   1.000  C
  C43      1.0000 0.61680  0.48820  0.20080  Biso   1.000  C
  H27      1.0000 0.62110  0.50890  0.15910  Biso   1.000  H
  C44      1.0000 0.56750  0.50940  0.24510  Biso   1.000  C
  H28      1.0000 0.53790  0.54290  0.23140  Biso   1.000  H
  C45      1.0000 0.56090  0.48330  0.30710  Biso   1.000  C
  C46      1.0000 0.59980  0.42670  0.32020  Biso   1.000  C
  H29      1.0000 0.59270  0.40180  0.35910  Biso   1.000  H
  C47      1.0000 0.64840  0.40790  0.27590  Biso   1.000  C
  H30      1.0000 0.67690  0.37220  0.28580  Biso   1.000  H
  C48      1.0000 0.48020  0.47580  0.40120  Biso   1.000  C
  O13      1.0000 0.25590  0.87030  0.31460  Biso   1.000  O
  O14      1.0000 0.28440  0.95260  0.38390  Biso   1.000  O
  N13      1.0000 0.49110  0.00300  0.15590  Biso   1.000  N
  H31      1.0000 0.51040  0.03920  0.17000  Biso   1.000  H
  N14      1.0000 0.57000  0.00920  0.07760  Biso   1.000  N
  C49      1.0000 0.29100  0.92210  0.33150  Biso   1.000  C
  C50      1.0000 0.34520  0.94240  0.28380  Biso   1.000  C
  C51      1.0000 0.38320  0.98820  0.29920  Biso   1.000  C
  H32      1.0000 0.37890  0.00890  0.34090  Biso   1.000  H
  C52      1.0000 0.43250  0.00940  0.25490  Biso   1.000  C
  H33      1.0000 0.46210  0.04290  0.26860  Biso   1.000  H
  C53      1.0000 0.43910  0.98330  0.19290  Biso   1.000  C
  C54      1.0000 0.40020  0.92670  0.17980  Biso   1.000  C
  H34      1.0000 0.40730  0.90180  0.14090  Biso   1.000  H
  C55      1.0000 0.35160  0.90790  0.22410  Biso   1.000  C
  H35      1.0000 0.32310  0.87220  0.21420  Biso   1.000  H
  C56      1.0000 0.51980  0.97580  0.09880  Biso   1.000  C
  O15      1.0000 0.75590  0.62970  0.68540  Biso   1.000  O
  O16      1.0000 0.78440  0.54740  0.61610  Biso   1.000  O
  N15      1.0000 0.99110  0.49700  0.84410  Biso   1.000  N
  H36      1.0000 0.01040  0.46080  0.83000  Biso   1.000  H
  N16      1.0000 0.07000  0.49080  0.92240  Biso   1.000  N
  C57      1.0000 0.79100  0.57790  0.66850  Biso   1.000  C
  C58      1.0000 0.84520  0.55760  0.71620  Biso   1.000  C
  C59      1.0000 0.88320  0.51180  0.70080  Biso   1.000  C
  H37      1.0000 0.87890  0.49110  0.65910  Biso   1.000  H
  C60      1.0000 0.93250  0.49060  0.74510  Biso   1.000  C
  H38      1.0000 0.96210  0.45710  0.73140  Biso   1.000  H
  C61      1.0000 0.93910  0.51670  0.80710  Biso   1.000  C
  C62      1.0000 0.90020  0.57330  0.82020  Biso   1.000  C
  H39      1.0000 0.90730  0.59820  0.85910  Biso   1.000  H
  C63      1.0000 0.85160  0.59210  0.77590  Biso   1.000  C
  H40      1.0000 0.82310  0.62780  0.78580  Biso   1.000  H
  C64      1.0000 0.01980  0.52420  0.90120  Biso   1.000  C
  O17      1.0000 0.81460  0.24410  0.12970  Biso   1.000  O
  O18      1.0000 0.88390  0.21560  0.04740  Biso   1.000  O
  N17      1.0000 0.65590  0.00890  0.99700  Biso   1.000  N
  H41      1.0000 0.67000  0.98960  0.96080  Biso   1.000  H
  N18      1.0000 0.57760  0.93000  0.99080  Biso   1.000  N
  C65      1.0000 0.83150  0.20900  0.07790  Biso   1.000  C
  C66      1.0000 0.78380  0.15480  0.05760  Biso   1.000  C
  C67      1.0000 0.79920  0.11680  0.01180  Biso   1.000  C
  H42      1.0000 0.84090  0.12110  0.99110  Biso   1.000  H
  C68      1.0000 0.75490  0.06750  0.99060  Biso   1.000  C
  H43      1.0000 0.76860  0.03790  0.95710  Biso   1.000  H
  C69      1.0000 0.69290  0.06090  0.01670  Biso   1.000  C
  C70      1.0000 0.67980  0.09980  0.07330  Biso   1.000  C
  H44      1.0000 0.64090  0.09270  0.09820  Biso   1.000  H
  C71      1.0000 0.72410  0.14840  0.09210  Biso   1.000  C
  H45      1.0000 0.71420  0.17690  0.12780  Biso   1.000  H
  C72      1.0000 0.59880  0.98020  0.02420  Biso   1.000  C
  O19      1.0000 0.18540  0.74410  0.37030  Biso   1.000  O
  O20      1.0000 0.11610  0.71560  0.45260  Biso   1.000  O
  N19      1.0000 0.34410  0.50890  0.50300  Biso   1.000  N
  H46      1.0000 0.33000  0.48960  0.53920  Biso   1.000  H
  N20      1.0000 0.42240  0.43000  0.50920  Biso   1.000  N
  C73      1.0000 0.16850  0.70900  0.42210  Biso   1.000  C
  C74      1.0000 0.21620  0.65480  0.44240  Biso   1.000  C
  C75      1.0000 0.20080  0.61680  0.48820  Biso   1.000  C
  H47      1.0000 0.15910  0.62110  0.50890  Biso   1.000  H
  C76      1.0000 0.24510  0.56750  0.50940  Biso   1.000  C
  H48      1.0000 0.23140  0.53790  0.54290  Biso   1.000  H
  C77      1.0000 0.30710  0.56090  0.48330  Biso   1.000  C
  C78      1.0000 0.32020  0.59980  0.42670  Biso   1.000  C
  H49      1.0000 0.35910  0.59270  0.40180  Biso   1.000  H
  C79      1.0000 0.27590  0.64840  0.40790  Biso   1.000  C
  H50      1.0000 0.28580  0.67690  0.37220  Biso   1.000  H
  C80      1.0000 0.40120  0.48020  0.47580  Biso   1.000  C
  O21      1.0000 0.31460  0.25590  0.87030  Biso   1.000  O
  O22      1.0000 0.38390  0.28440  0.95260  Biso   1.000  O
  N21      1.0000 0.15590  0.49110  0.00300  Biso   1.000  N
  H51      1.0000 0.17000  0.51040  0.03920  Biso   1.000  H
  N22      1.0000 0.07760  0.57000  0.00920  Biso   1.000  N
  C81      1.0000 0.33150  0.29100  0.92210  Biso   1.000  C
  C82      1.0000 0.28380  0.34520  0.94240  Biso   1.000  C
  C83      1.0000 0.29920  0.38320  0.98820  Biso   1.000  C
  H52      1.0000 0.34090  0.37890  0.00890  Biso   1.000  H
  C84      1.0000 0.25490  0.43250  0.00940  Biso   1.000  C
  H53      1.0000 0.26860  0.46210  0.04290  Biso   1.000  H
  C85      1.0000 0.19290  0.43910  0.98330  Biso   1.000  C
  C86      1.0000 0.17980  0.40020  0.92670  Biso   1.000  C
  H54      1.0000 0.14090  0.40730  0.90180  Biso   1.000  H
  C87      1.0000 0.22410  0.35160  0.90790  Biso   1.000  C
  H55      1.0000 0.21420  0.32310  0.87220  Biso   1.000  H
  C88      1.0000 0.09880  0.51980  0.97580  Biso   1.000  C
  O23      1.0000 0.68540  0.75590  0.62970  Biso   1.000  O
  O24      1.0000 0.61610  0.78440  0.54740  Biso   1.000  O
  N23      1.0000 0.84410  0.99110  0.49700  Biso   1.000  N
  H56      1.0000 0.83000  0.01040  0.46080  Biso   1.000  H
  N24      1.0000 0.92240  0.07000  0.49080  Biso   1.000  N
  C89      1.0000 0.66850  0.79100  0.57790  Biso   1.000  C
  C90      1.0000 0.71620  0.84520  0.55760  Biso   1.000  C
  C91      1.0000 0.70080  0.88320  0.51180  Biso   1.000  C
  H57      1.0000 0.65910  0.87890  0.49110  Biso   1.000  H
  C92      1.0000 0.74510  0.93250  0.49060  Biso   1.000  C
  H58      1.0000 0.73140  0.96210  0.45710  Biso   1.000  H
  C93      1.0000 0.80710  0.93910  0.51670  Biso   1.000  C
  C94      1.0000 0.82020  0.90020  0.57330  Biso   1.000  C
  H59      1.0000 0.85910  0.90730  0.59820  Biso   1.000  H
  C95      1.0000 0.77590  0.85160  0.59210  Biso   1.000  C
  H60      1.0000 0.78580  0.82310  0.62780  Biso   1.000  H
  C96      1.0000 0.90120  0.01980  0.52420  Biso   1.000  C
  Yb1      1.0000 0.15627  0.84373  0.34373  Biso   1.000  Yb
  Yb2      1.0000 0.34373  0.15627  0.84373  Biso   1.000  Yb
  Yb3      1.0000 0.84373  0.34373  0.15627  Biso   1.000  Yb
  Yb4      1.0000 0.65627  0.65627  0.65627  Biso   1.000  Yb
  O25      1.0000 0.24190  0.62690  0.18080  Biso   1.000  O
  O26      1.0000 0.21200  0.55010  0.11380  Biso   1.000  O
  N25      1.0000 0.01260  0.49400  0.35160  Biso   1.000  N
  H61      1.0000 0.99800  0.45440  0.34210  Biso   1.000  H
  N26      1.0000 0.01240  0.57260  0.43050  Biso   1.000  N
  C97      1.0000 0.20650  0.58040  0.16470  Biso   1.000  C
  C98      1.0000 0.15940  0.55880  0.21570  Biso   1.000  C
  C99      1.0000 0.15350  0.58700  0.27590  Biso   1.000  C
  H62      1.0000 0.18320  0.62130  0.28720  Biso   1.000  H
  C100     1.0000 0.10630  0.56860  0.32210  Biso   1.000  C
  H63      1.0000 0.10510  0.58880  0.36420  Biso   1.000  H
  C101     1.0000 0.06130  0.52060  0.30550  Biso   1.000  C
  C102     1.0000 0.07040  0.48140  0.24900  Biso   1.000  C
  H64      1.0000 0.04580  0.44200  0.24330  Biso   1.000  H
  C103     1.0000 0.11400  0.50030  0.20370  Biso   1.000  C
  H65      1.0000 0.11680  0.47700  0.16320  Biso   1.000  H
  C104     1.0000 0.98790  0.52020  0.40430  Biso   1.000  C
  O27      1.0000 0.25810  0.37310  0.68080  Biso   1.000  O
  O28      1.0000 0.28800  0.44990  0.61380  Biso   1.000  O
  N27      1.0000 0.48740  0.50600  0.85160  Biso   1.000  N
  H66      1.0000 0.50200  0.54560  0.84210  Biso   1.000  H
  N28      1.0000 0.48760  0.42740  0.93050  Biso   1.000  N
  C105     1.0000 0.29350  0.41960  0.66470  Biso   1.000  C
  C106     1.0000 0.34060  0.44120  0.71570  Biso   1.000  C
  C107     1.0000 0.34650  0.41300  0.77590  Biso   1.000  C
  H67      1.0000 0.31680  0.37870  0.78720  Biso   1.000  H
  C108     1.0000 0.39370  0.43140  0.82210  Biso   1.000  C
  H68      1.0000 0.39490  0.41120  0.86420  Biso   1.000  H
  C109     1.0000 0.43870  0.47940  0.80550  Biso   1.000  C
  C110     1.0000 0.42960  0.51860  0.74900  Biso   1.000  C
  H69      1.0000 0.45420  0.55800  0.74330  Biso   1.000  H
  C111     1.0000 0.38600  0.49970  0.70370  Biso   1.000  C
  H70      1.0000 0.38320  0.52300  0.66320  Biso   1.000  H
  C112     1.0000 0.51210  0.47980  0.90430  Biso   1.000  C
  O29      1.0000 0.75810  0.12690  0.31920  Biso   1.000  O
  O30      1.0000 0.78800  0.05010  0.38620  Biso   1.000  O
  N29      1.0000 0.98740  0.99400  0.14840  Biso   1.000  N
  H71      1.0000 0.00200  0.95440  0.15790  Biso   1.000  H
  N30      1.0000 0.98760  0.07260  0.06950  Biso   1.000  N
  C113     1.0000 0.79350  0.08040  0.33530  Biso   1.000  C
  C114     1.0000 0.84060  0.05880  0.28430  Biso   1.000  C
  C115     1.0000 0.84650  0.08700  0.22410  Biso   1.000  C
  H72      1.0000 0.81680  0.12130  0.21280  Biso   1.000  H
  C116     1.0000 0.89370  0.06860  0.17790  Biso   1.000  C
  H73      1.0000 0.89490  0.08880  0.13580  Biso   1.000  H
  C117     1.0000 0.93870  0.02060  0.19450  Biso   1.000  C
  C118     1.0000 0.92960  0.98140  0.25100  Biso   1.000  C
  H74      1.0000 0.95420  0.94200  0.25670  Biso   1.000  H
  C119     1.0000 0.88600  0.00030  0.29630  Biso   1.000  C
  H75      1.0000 0.88320  0.97700  0.33680  Biso   1.000  H
  C120     1.0000 0.01210  0.02020  0.09570  Biso   1.000  C
  O31      1.0000 0.74190  0.87310  0.81920  Biso   1.000  O
  O32      1.0000 0.71200  0.94990  0.88620  Biso   1.000  O
  N31      1.0000 0.51260  0.00600  0.64840  Biso   1.000  N
  H76      1.0000 0.49800  0.04560  0.65790  Biso   1.000  H
  N32      1.0000 0.51240  0.92740  0.56950  Biso   1.000  N
  C121     1.0000 0.70650  0.91960  0.83530  Biso   1.000  C
  C122     1.0000 0.65940  0.94120  0.78430  Biso   1.000  C
  C123     1.0000 0.65350  0.91300  0.72410  Biso   1.000  C
  H77      1.0000 0.68320  0.87870  0.71280  Biso   1.000  H
  C124     1.0000 0.60630  0.93140  0.67790  Biso   1.000  C
  H78      1.0000 0.60510  0.91120  0.63580  Biso   1.000  H
  C125     1.0000 0.56130  0.97940  0.69450  Biso   1.000  C
  C126     1.0000 0.57040  0.01860  0.75100  Biso   1.000  C
  H79      1.0000 0.54580  0.05800  0.75670  Biso   1.000  H
  C127     1.0000 0.61400  0.99970  0.79630  Biso   1.000  C
  H80      1.0000 0.61680  0.02300  0.83680  Biso   1.000  H
  C128     1.0000 0.48790  0.97980  0.59570  Biso   1.000  C
  O33      1.0000 0.18080  0.24190  0.62690  Biso   1.000  O
  O34      1.0000 0.11380  0.21200  0.55010  Biso   1.000  O
  N33      1.0000 0.35160  0.01260  0.49400  Biso   1.000  N
  H81      1.0000 0.34210  0.99800  0.45440  Biso   1.000  H
  N34      1.0000 0.43050  0.01240  0.57260  Biso   1.000  N
  C129     1.0000 0.16470  0.20650  0.58040  Biso   1.000  C
  C130     1.0000 0.21570  0.15940  0.55880  Biso   1.000  C
  C131     1.0000 0.27590  0.15350  0.58700  Biso   1.000  C
  H82      1.0000 0.28720  0.18320  0.62130  Biso   1.000  H
  C132     1.0000 0.32210  0.10630  0.56860  Biso   1.000  C
  H83      1.0000 0.36420  0.10510  0.58880  Biso   1.000  H
  C133     1.0000 0.30550  0.06130  0.52060  Biso   1.000  C
  C134     1.0000 0.24900  0.07040  0.48140  Biso   1.000  C
  H84      1.0000 0.24330  0.04580  0.44200  Biso   1.000  H
  C135     1.0000 0.20370  0.11400  0.50030  Biso   1.000  C
  H85      1.0000 0.16320  0.11680  0.47700  Biso   1.000  H
  C136     1.0000 0.40430  0.98790  0.52020  Biso   1.000  C
  O35      1.0000 0.68080  0.25810  0.37310  Biso   1.000  O
  O36      1.0000 0.61380  0.28800  0.44990  Biso   1.000  O
  N35      1.0000 0.85160  0.48740  0.50600  Biso   1.000  N
  H86      1.0000 0.84210  0.50200  0.54560  Biso   1.000  H
  N36      1.0000 0.93050  0.48760  0.42740  Biso   1.000  N
  C137     1.0000 0.66470  0.29350  0.41960  Biso   1.000  C
  C138     1.0000 0.71570  0.34060  0.44120  Biso   1.000  C
  C139     1.0000 0.77590  0.34650  0.41300  Biso   1.000  C
  H87      1.0000 0.78720  0.31680  0.37870  Biso   1.000  H
  C140     1.0000 0.82210  0.39370  0.43140  Biso   1.000  C
  H88      1.0000 0.86420  0.39490  0.41120  Biso   1.000  H
  C141     1.0000 0.80550  0.43870  0.47940  Biso   1.000  C
  C142     1.0000 0.74900  0.42960  0.51860  Biso   1.000  C
  H89      1.0000 0.74330  0.45420  0.55800  Biso   1.000  H
  C143     1.0000 0.70370  0.38600  0.49970  Biso   1.000  C
  H90      1.0000 0.66320  0.38320  0.52300  Biso   1.000  H
  C144     1.0000 0.90430  0.51210  0.47980  Biso   1.000  C
  O37      1.0000 0.31920  0.75810  0.12690  Biso   1.000  O
  O38      1.0000 0.38620  0.78800  0.05010  Biso   1.000  O
  N37      1.0000 0.14840  0.98740  0.99400  Biso   1.000  N
  H91      1.0000 0.15790  0.00200  0.95440  Biso   1.000  H
  N38      1.0000 0.06950  0.98760  0.07260  Biso   1.000  N
  C145     1.0000 0.33530  0.79350  0.08040  Biso   1.000  C
  C146     1.0000 0.28430  0.84060  0.05880  Biso   1.000  C
  C147     1.0000 0.22410  0.84650  0.08700  Biso   1.000  C
  H92      1.0000 0.21280  0.81680  0.12130  Biso   1.000  H
  C148     1.0000 0.17790  0.89370  0.06860  Biso   1.000  C
  H93      1.0000 0.13580  0.89490  0.08880  Biso   1.000  H
  C149     1.0000 0.19450  0.93870  0.02060  Biso   1.000  C
  C150     1.0000 0.25100  0.92960  0.98140  Biso   1.000  C
  H94      1.0000 0.25670  0.95420  0.94200  Biso   1.000  H
  C151     1.0000 0.29630  0.88600  0.00030  Biso   1.000  C
  H95      1.0000 0.33680  0.88320  0.97700  Biso   1.000  H
  C152     1.0000 0.09570  0.01210  0.02020  Biso   1.000  C
  O39      1.0000 0.81920  0.74190  0.87310  Biso   1.000  O
  O40      1.0000 0.88620  0.71200  0.94990  Biso   1.000  O
  N39      1.0000 0.64840  0.51260  0.00600  Biso   1.000  N
  H96      1.0000 0.65790  0.49800  0.04560  Biso   1.000  H
  N40      1.0000 0.56950  0.51240  0.92740  Biso   1.000  N
  C153     1.0000 0.83530  0.70650  0.91960  Biso   1.000  C
  C154     1.0000 0.78430  0.65940  0.94120  Biso   1.000  C
  C155     1.0000 0.72410  0.65350  0.91300  Biso   1.000  C
  H97      1.0000 0.71280  0.68320  0.87870  Biso   1.000  H
  C156     1.0000 0.67790  0.60630  0.93140  Biso   1.000  C
  H98      1.0000 0.63580  0.60510  0.91120  Biso   1.000  H
  C157     1.0000 0.69450  0.56130  0.97940  Biso   1.000  C
  C158     1.0000 0.75100  0.57040  0.01860  Biso   1.000  C
  H99      1.0000 0.75670  0.54580  0.05800  Biso   1.000  H
  C159     1.0000 0.79630  0.61400  0.99970  Biso   1.000  C
  H100     1.0000 0.83680  0.61680  0.02300  Biso   1.000  H
  C160     1.0000 0.59570  0.48790  0.97980  Biso   1.000  C
  O41      1.0000 0.62690  0.18080  0.24190  Biso   1.000  O
  O42      1.0000 0.55010  0.11380  0.21200  Biso   1.000  O
  N41      1.0000 0.49400  0.35160  0.01260  Biso   1.000  N
  H101     1.0000 0.45440  0.34210  0.99800  Biso   1.000  H
  N42      1.0000 0.57260  0.43050  0.01240  Biso   1.000  N
  C161     1.0000 0.58040  0.16470  0.20650  Biso   1.000  C
  C162     1.0000 0.55880  0.21570  0.15940  Biso   1.000  C
  C163     1.0000 0.58700  0.27590  0.15350  Biso   1.000  C
  H102     1.0000 0.62130  0.28720  0.18320  Biso   1.000  H
  C164     1.0000 0.56860  0.32210  0.10630  Biso   1.000  C
  H103     1.0000 0.58880  0.36420  0.10510  Biso   1.000  H
  C165     1.0000 0.52060  0.30550  0.06130  Biso   1.000  C
  C166     1.0000 0.48140  0.24900  0.07040  Biso   1.000  C
  H104     1.0000 0.44200  0.24330  0.04580  Biso   1.000  H
  C167     1.0000 0.50030  0.20370  0.11400  Biso   1.000  C
  H105     1.0000 0.47700  0.16320  0.11680  Biso   1.000  H
  C168     1.0000 0.52020  0.40430  0.98790  Biso   1.000  C
  O43      1.0000 0.37310  0.68080  0.25810  Biso   1.000  O
  O44      1.0000 0.44990  0.61380  0.28800  Biso   1.000  O
  N43      1.0000 0.50600  0.85160  0.48740  Biso   1.000  N
  H106     1.0000 0.54560  0.84210  0.50200  Biso   1.000  H
  N44      1.0000 0.42740  0.93050  0.48760  Biso   1.000  N
  C169     1.0000 0.41960  0.66470  0.29350  Biso   1.000  C
  C170     1.0000 0.44120  0.71570  0.34060  Biso   1.000  C
  C171     1.0000 0.41300  0.77590  0.34650  Biso   1.000  C
  H107     1.0000 0.37870  0.78720  0.31680  Biso   1.000  H
  C172     1.0000 0.43140  0.82210  0.39370  Biso   1.000  C
  H108     1.0000 0.41120  0.86420  0.39490  Biso   1.000  H
  C173     1.0000 0.47940  0.80550  0.43870  Biso   1.000  C
  C174     1.0000 0.51860  0.74900  0.42960  Biso   1.000  C
  H109     1.0000 0.55800  0.74330  0.45420  Biso   1.000  H
  C175     1.0000 0.49970  0.70370  0.38600  Biso   1.000  C
  H110     1.0000 0.52300  0.66320  0.38320  Biso   1.000  H
  C176     1.0000 0.47980  0.90430  0.51210  Biso   1.000  C
  O45      1.0000 0.12690  0.31920  0.75810  Biso   1.000  O
  O46      1.0000 0.05010  0.38620  0.78800  Biso   1.000  O
  N45      1.0000 0.99400  0.14840  0.98740  Biso   1.000  N
  H111     1.0000 0.95440  0.15790  0.00200  Biso   1.000  H
  N46      1.0000 0.07260  0.06950  0.98760  Biso   1.000  N
  C177     1.0000 0.08040  0.33530  0.79350  Biso   1.000  C
  C178     1.0000 0.05880  0.28430  0.84060  Biso   1.000  C
  C179     1.0000 0.08700  0.22410  0.84650  Biso   1.000  C
  H112     1.0000 0.12130  0.21280  0.81680  Biso   1.000  H
  C180     1.0000 0.06860  0.17790  0.89370  Biso   1.000  C
  H113     1.0000 0.08880  0.13580  0.89490  Biso   1.000  H
  C181     1.0000 0.02060  0.19450  0.93870  Biso   1.000  C
  C182     1.0000 0.98140  0.25100  0.92960  Biso   1.000  C
  H114     1.0000 0.94200  0.25670  0.95420  Biso   1.000  H
  C183     1.0000 0.00030  0.29630  0.88600  Biso   1.000  C
  H115     1.0000 0.97700  0.33680  0.88320  Biso   1.000  H
  C184     1.0000 0.02020  0.09570  0.01210  Biso   1.000  C
  O47      1.0000 0.87310  0.81920  0.74190  Biso   1.000  O
  O48      1.0000 0.94990  0.88620  0.71200  Biso   1.000  O
  N47      1.0000 0.00600  0.64840  0.51260  Biso   1.000  N
  H116     1.0000 0.04560  0.65790  0.49800  Biso   1.000  H
  N48      1.0000 0.92740  0.56950  0.51240  Biso   1.000  N
  C185     1.0000 0.91960  0.83530  0.70650  Biso   1.000  C
  C186     1.0000 0.94120  0.78430  0.65940  Biso   1.000  C
  C187     1.0000 0.91300  0.72410  0.65350  Biso   1.000  C
  H117     1.0000 0.87870  0.71280  0.68320  Biso   1.000  H
  C188     1.0000 0.93140  0.67790  0.60630  Biso   1.000  C
  H118     1.0000 0.91120  0.63580  0.60510  Biso   1.000  H
  C189     1.0000 0.97940  0.69450  0.56130  Biso   1.000  C
  C190     1.0000 0.01860  0.75100  0.57040  Biso   1.000  C
  H119     1.0000 0.05800  0.75670  0.54580  Biso   1.000  H
  C191     1.0000 0.99970  0.79630  0.61400  Biso   1.000  C
  H120     1.0000 0.02300  0.83680  0.61680  Biso   1.000  H
  C192     1.0000 0.97980  0.59570  0.48790  Biso   1.000  C
  Yb5      1.0000 0.34236  0.65764  0.15764  Biso   1.000  Yb
  Yb6      1.0000 0.15764  0.34236  0.65764  Biso   1.000  Yb
  Yb7      1.0000 0.65764  0.15764  0.34236  Biso   1.000  Yb
  Yb8      1.0000 0.84236  0.84236  0.84236  Biso   1.000  Yb
