data_image0
_cell_length_a       20.3587
_cell_length_b       20.3587
_cell_length_c       20.3587
_cell_angle_alpha    90
_cell_angle_beta     90
_cell_angle_gamma    90

_symmetry_space_group_name_H-M    "P 1"
_symmetry_int_tables_number       1

loop_
  _symmetry_equiv_pos_as_xyz
  'x, y, z'

loop_
  _atom_site_label
  _atom_site_occupancy
  _atom_site_fract_x
  _atom_site_fract_y
  _atom_site_fract_z
  _atom_site_thermal_displace_type
  _atom_site_B_iso_or_equiv
  _atom_site_type_symbol
  O1       1.0000 0.13060  0.81520  0.24270  Biso   1.000  O
  O2       1.0000 0.05380  0.88450  0.21220  Biso   1.000  O
  N1       1.0000 0.99590  0.65450  0.01130  Biso   1.000  N
  H1       1.0000 0.95950  0.66860  0.99270  Biso   1.000  H
  N2       1.0000 0.98900  0.57460  0.93110  Biso   1.000  N
  C1       1.0000 0.08230  0.83150  0.20740  Biso   1.000  C
  C2       1.0000 0.06020  0.78300  0.15690  Biso   1.000  C
  C3       1.0000 0.00970  0.79810  0.11560  Biso   1.000  C
  H2       1.0000 0.98890  0.83970  0.11880  Biso   1.000  H
  C4       1.0000 0.98870  0.75370  0.06940  Biso   1.000  C
  H3       1.0000 0.95270  0.76490  0.04200  Biso   1.000  H
  C5       1.0000 0.01920  0.69110  0.06130  Biso   1.000  C
  C6       1.0000 0.07060  0.67760  0.10440  Biso   1.000  C
  H4       1.0000 0.09200  0.63620  0.10210  Biso   1.000  H
  C7       1.0000 0.09120  0.72300  0.15010  Biso   1.000  C
  H5       1.0000 0.12760  0.71290  0.17760  Biso   1.000  H
  C8       1.0000 0.02290  0.59580  0.98510  Biso   1.000  C
  O3       1.0000 0.36940  0.18480  0.74270  Biso   1.000  O
  O4       1.0000 0.44620  0.11550  0.71220  Biso   1.000  O
  N3       1.0000 0.50410  0.34550  0.51130  Biso   1.000  N
  H6       1.0000 0.54050  0.33140  0.49270  Biso   1.000  H
  N4       1.0000 0.51100  0.42540  0.43110  Biso   1.000  N
  C9       1.0000 0.41770  0.16850  0.70740  Biso   1.000  C
  C10      1.0000 0.43980  0.21700  0.65690  Biso   1.000  C
  C11      1.0000 0.49030  0.20190  0.61560  Biso   1.000  C
  H7       1.0000 0.51110  0.16030  0.61880  Biso   1.000  H
  C12      1.0000 0.51130  0.24630  0.56940  Biso   1.000  C
  H8       1.0000 0.54730  0.23510  0.54200  Biso   1.000  H
  C13      1.0000 0.48080  0.30890  0.56130  Biso   1.000  C
  C14      1.0000 0.42940  0.32240  0.60440  Biso   1.000  C
  H9       1.0000 0.40800  0.36380  0.60210  Biso   1.000  H
  C15      1.0000 0.40880  0.27700  0.65010  Biso   1.000  C
  H10      1.0000 0.37240  0.28710  0.67760  Biso   1.000  H
  C16      1.0000 0.47710  0.40420  0.48510  Biso   1.000  C
  O5       1.0000 0.86940  0.31520  0.25730  Biso   1.000  O
  O6       1.0000 0.94620  0.38450  0.28780  Biso   1.000  O
  N5       1.0000 0.00410  0.15450  0.48870  Biso   1.000  N
  H11      1.0000 0.04050  0.16860  0.50730  Biso   1.000  H
  N6       1.0000 0.01100  0.07460  0.56890  Biso   1.000  N
  C17      1.0000 0.91770  0.33150  0.29260  Biso   1.000  C
  C18      1.0000 0.93980  0.28300  0.34310  Biso   1.000  C
  C19      1.0000 0.99030  0.29810  0.38440  Biso   1.000  C
  H12      1.0000 0.01110  0.33970  0.38120  Biso   1.000  H
  C20      1.0000 0.01130  0.25370  0.43060  Biso   1.000  C
  H13      1.0000 0.04730  0.26490  0.45800  Biso   1.000  H
  C21      1.0000 0.98080  0.19110  0.43870  Biso   1.000  C
  C22      1.0000 0.92940  0.17760  0.39560  Biso   1.000  C
  H14      1.0000 0.90800  0.13620  0.39790  Biso   1.000  H
  C23      1.0000 0.90880  0.22300  0.34990  Biso   1.000  C
  H15      1.0000 0.87240  0.21290  0.32240  Biso   1.000  H
  C24      1.0000 0.97710  0.09580  0.51490  Biso   1.000  C
  O7       1.0000 0.63060  0.68480  0.75730  Biso   1.000  O
  O8       1.0000 0.55380  0.61550  0.78780  Biso   1.000  O
  N7       1.0000 0.49590  0.84550  0.98870  Biso   1.000  N
  H16      1.0000 0.45950  0.83140  0.00730  Biso   1.000  H
  N8       1.0000 0.48900  0.92540  0.06890  Biso   1.000  N
  C25      1.0000 0.58230  0.66850  0.79260  Biso   1.000  C
  C26      1.0000 0.56020  0.71700  0.84310  Biso   1.000  C
  C27      1.0000 0.50970  0.70190  0.88440  Biso   1.000  C
  H17      1.0000 0.48890  0.66030  0.88120  Biso   1.000  H
  C28      1.0000 0.48870  0.74630  0.93060  Biso   1.000  C
  H18      1.0000 0.45270  0.73510  0.95800  Biso   1.000  H
  C29      1.0000 0.51920  0.80890  0.93870  Biso   1.000  C
  C30      1.0000 0.57060  0.82240  0.89560  Biso   1.000  C
  H19      1.0000 0.59200  0.86380  0.89790  Biso   1.000  H
  C31      1.0000 0.59120  0.77700  0.84990  Biso   1.000  C
  H20      1.0000 0.62760  0.78710  0.82240  Biso   1.000  H
  C32      1.0000 0.52290  0.90420  0.01490  Biso   1.000  C
  O9       1.0000 0.24270  0.13060  0.81520  Biso   1.000  O
  O10      1.0000 0.21220  0.05380  0.88450  Biso   1.000  O
  N9       1.0000 0.01130  0.99590  0.65450  Biso   1.000  N
  H21      1.0000 0.99270  0.95950  0.66860  Biso   1.000  H
  N10      1.0000 0.93110  0.98900  0.57460  Biso   1.000  N
  C33      1.0000 0.20740  0.08230  0.83150  Biso   1.000  C
  C34      1.0000 0.15690  0.06020  0.78300  Biso   1.000  C
  C35      1.0000 0.11560  0.00970  0.79810  Biso   1.000  C
  H22      1.0000 0.11880  0.98890  0.83970  Biso   1.000  H
  C36      1.0000 0.06940  0.98870  0.75370  Biso   1.000  C
  H23      1.0000 0.04200  0.95270  0.76490  Biso   1.000  H
  C37      1.0000 0.06130  0.01920  0.69110  Biso   1.000  C
  C38      1.0000 0.10440  0.07060  0.67760  Biso   1.000  C
  H24      1.0000 0.10210  0.09200  0.63620  Biso   1.000  H
  C39      1.0000 0.15010  0.09120  0.72300  Biso   1.000  C
  H25      1.0000 0.17760  0.12760  0.71290  Biso   1.000  H
  C40      1.0000 0.98510  0.02290  0.59580  Biso   1.000  C
  O11      1.0000 0.74270  0.36940  0.18480  Biso   1.000  O
  O12      1.0000 0.71220  0.44620  0.11550  Biso   1.000  O
  N11      1.0000 0.51130  0.50410  0.34550  Biso   1.000  N
  H26      1.0000 0.49270  0.54050  0.33140  Biso   1.000  H
  N12      1.0000 0.43110  0.51100  0.42540  Biso   1.000  N
  C41      1.0000 0.70740  0.41770  0.16850  Biso   1.000  C
  C42      1.0000 0.65690  0.43980  0.21700  Biso   1.000  C
  C43      1.0000 0.61560  0.49030  0.20190  Biso   1.000  C
  H27      1.0000 0.61880  0.51110  0.16030  Biso   1.000  H
  C44      1.0000 0.56940  0.51130  0.24630  Biso   1.000  C
  H28      1.0000 0.54200  0.54730  0.23510  Biso   1.000  H
  C45      1.0000 0.56130  0.48080  0.30890  Biso   1.000  C
  C46      1.0000 0.60440  0.42940  0.32240  Biso   1.000  C
  H29      1.0000 0.60210  0.40800  0.36380  Biso   1.000  H
  C47      1.0000 0.65010  0.40880  0.27700  Biso   1.000  C
  H30      1.0000 0.67760  0.37240  0.28710  Biso   1.000  H
  C48      1.0000 0.48510  0.47710  0.40420  Biso   1.000  C
  O13      1.0000 0.25730  0.86940  0.31520  Biso   1.000  O
  O14      1.0000 0.28780  0.94620  0.38450  Biso   1.000  O
  N13      1.0000 0.48870  0.00410  0.15450  Biso   1.000  N
  H31      1.0000 0.50730  0.04050  0.16860  Biso   1.000  H
  N14      1.0000 0.56890  0.01100  0.07460  Biso   1.000  N
  C49      1.0000 0.29260  0.91770  0.33150  Biso   1.000  C
  C50      1.0000 0.34310  0.93980  0.28300  Biso   1.000  C
  C51      1.0000 0.38440  0.99030  0.29810  Biso   1.000  C
  H32      1.0000 0.38120  0.01110  0.33970  Biso   1.000  H
  C52      1.0000 0.43060  0.01130  0.25370  Biso   1.000  C
  H33      1.0000 0.45800  0.04730  0.26490  Biso   1.000  H
  C53      1.0000 0.43870  0.98080  0.19110  Biso   1.000  C
  C54      1.0000 0.39560  0.92940  0.17760  Biso   1.000  C
  H34      1.0000 0.39790  0.90800  0.13620  Biso   1.000  H
  C55      1.0000 0.34990  0.90880  0.22300  Biso   1.000  C
  H35      1.0000 0.32240  0.87240  0.21290  Biso   1.000  H
  C56      1.0000 0.51490  0.97710  0.09580  Biso   1.000  C
  O15      1.0000 0.75730  0.63060  0.68480  Biso   1.000  O
  O16      1.0000 0.78780  0.55380  0.61550  Biso   1.000  O
  N15      1.0000 0.98870  0.49590  0.84550  Biso   1.000  N
  H36      1.0000 0.00730  0.45950  0.83140  Biso   1.000  H
  N16      1.0000 0.06890  0.48900  0.92540  Biso   1.000  N
  C57      1.0000 0.79260  0.58230  0.66850  Biso   1.000  C
  C58      1.0000 0.84310  0.56020  0.71700  Biso   1.000  C
  C59      1.0000 0.88440  0.50970  0.70190  Biso   1.000  C
  H37      1.0000 0.88120  0.48890  0.66030  Biso   1.000  H
  C60      1.0000 0.93060  0.48870  0.74630  Biso   1.000  C
  H38      1.0000 0.95800  0.45270  0.73510  Biso   1.000  H
  C61      1.0000 0.93870  0.51920  0.80890  Biso   1.000  C
  C62      1.0000 0.89560  0.57060  0.82240  Biso   1.000  C
  H39      1.0000 0.89790  0.59200  0.86380  Biso   1.000  H
  C63      1.0000 0.84990  0.59120  0.77700  Biso   1.000  C
  H40      1.0000 0.82240  0.62760  0.78710  Biso   1.000  H
  C64      1.0000 0.01490  0.52290  0.90420  Biso   1.000  C
  O17      1.0000 0.81520  0.24270  0.13060  Biso   1.000  O
  O18      1.0000 0.88450  0.21220  0.05380  Biso   1.000  O
  N17      1.0000 0.65450  0.01130  0.99590  Biso   1.000  N
  H41      1.0000 0.66860  0.99270  0.95950  Biso   1.000  H
  N18      1.0000 0.57460  0.93110  0.98900  Biso   1.000  N
  C65      1.0000 0.83150  0.20740  0.08230  Biso   1.000  C
  C66      1.0000 0.78300  0.15690  0.06020  Biso   1.000  C
  C67      1.0000 0.79810  0.11560  0.00970  Biso   1.000  C
  H42      1.0000 0.83970  0.11880  0.98890  Biso   1.000  H
  C68      1.0000 0.75370  0.06940  0.98870  Biso   1.000  C
  H43      1.0000 0.76490  0.04200  0.95270  Biso   1.000  H
  C69      1.0000 0.69110  0.06130  0.01920  Biso   1.000  C
  C70      1.0000 0.67760  0.10440  0.07060  Biso   1.000  C
  H44      1.0000 0.63620  0.10210  0.09200  Biso   1.000  H
  C71      1.0000 0.72300  0.15010  0.09120  Biso   1.000  C
  H45      1.0000 0.71290  0.17760  0.12760  Biso   1.000  H
  C72      1.0000 0.59580  0.98510  0.02290  Biso   1.000  C
  O19      1.0000 0.18480  0.74270  0.36940  Biso   1.000  O
  O20      1.0000 0.11550  0.71220  0.44620  Biso   1.000  O
  N19      1.0000 0.34550  0.51130  0.50410  Biso   1.000  N
  H46      1.0000 0.33140  0.49270  0.54050  Biso   1.000  H
  N20      1.0000 0.42540  0.43110  0.51100  Biso   1.000  N
  C73      1.0000 0.16850  0.70740  0.41770  Biso   1.000  C
  C74      1.0000 0.21700  0.65690  0.43980  Biso   1.000  C
  C75      1.0000 0.20190  0.61560  0.49030  Biso   1.000  C
  H47      1.0000 0.16030  0.61880  0.51110  Biso   1.000  H
  C76      1.0000 0.24630  0.56940  0.51130  Biso   1.000  C
  H48      1.0000 0.23510  0.54200  0.54730  Biso   1.000  H
  C77      1.0000 0.30890  0.56130  0.48080  Biso   1.000  C
  C78      1.0000 0.32240  0.60440  0.42940  Biso   1.000  C
  H49      1.0000 0.36380  0.60210  0.40800  Biso   1.000  H
  C79      1.0000 0.27700  0.65010  0.40880  Biso   1.000  C
  H50      1.0000 0.28710  0.67760  0.37240  Biso   1.000  H
  C80      1.0000 0.40420  0.48510  0.47710  Biso   1.000  C
  O21      1.0000 0.31520  0.25730  0.86940  Biso   1.000  O
  O22      1.0000 0.38450  0.28780  0.94620  Biso   1.000  O
  N21      1.0000 0.15450  0.48870  0.00410  Biso   1.000  N
  H51      1.0000 0.16860  0.50730  0.04050  Biso   1.000  H
  N22      1.0000 0.07460  0.56890  0.01100  Biso   1.000  N
  C81      1.0000 0.33150  0.29260  0.91770  Biso   1.000  C
  C82      1.0000 0.28300  0.34310  0.93980  Biso   1.000  C
  C83      1.0000 0.29810  0.38440  0.99030  Biso   1.000  C
  H52      1.0000 0.33970  0.38120  0.01110  Biso   1.000  H
  C84      1.0000 0.25370  0.43060  0.01130  Biso   1.000  C
  H53      1.0000 0.26490  0.45800  0.04730  Biso   1.000  H
  C85      1.0000 0.19110  0.43870  0.98080  Biso   1.000  C
  C86      1.0000 0.17760  0.39560  0.92940  Biso   1.000  C
  H54      1.0000 0.13620  0.39790  0.90800  Biso   1.000  H
  C87      1.0000 0.22300  0.34990  0.90880  Biso   1.000  C
  H55      1.0000 0.21290  0.32240  0.87240  Biso   1.000  H
  C88      1.0000 0.09580  0.51490  0.97710  Biso   1.000  C
  O23      1.0000 0.68480  0.75730  0.63060  Biso   1.000  O
  O24      1.0000 0.61550  0.78780  0.55380  Biso   1.000  O
  N23      1.0000 0.84550  0.98870  0.49590  Biso   1.000  N
  H56      1.0000 0.83140  0.00730  0.45950  Biso   1.000  H
  N24      1.0000 0.92540  0.06890  0.48900  Biso   1.000  N
  C89      1.0000 0.66850  0.79260  0.58230  Biso   1.000  C
  C90      1.0000 0.71700  0.84310  0.56020  Biso   1.000  C
  C91      1.0000 0.70190  0.88440  0.50970  Biso   1.000  C
  H57      1.0000 0.66030  0.88120  0.48890  Biso   1.000  H
  C92      1.0000 0.74630  0.93060  0.48870  Biso   1.000  C
  H58      1.0000 0.73510  0.95800  0.45270  Biso   1.000  H
  C93      1.0000 0.80890  0.93870  0.51920  Biso   1.000  C
  C94      1.0000 0.82240  0.89560  0.57060  Biso   1.000  C
  H59      1.0000 0.86380  0.89790  0.59200  Biso   1.000  H
  C95      1.0000 0.77700  0.84990  0.59120  Biso   1.000  C
  H60      1.0000 0.78710  0.82240  0.62760  Biso   1.000  H
  C96      1.0000 0.90420  0.01490  0.52290  Biso   1.000  C
  Tm1      1.0000 0.15619  0.84381  0.34381  Biso   1.000  Tm
  Tm2      1.0000 0.34381  0.15619  0.84381  Biso   1.000  Tm
  Tm3      1.0000 0.84381  0.34381  0.15619  Biso   1.000  Tm
  Tm4      1.0000 0.65619  0.65619  0.65619  Biso   1.000  Tm
  O25      1.0000 0.24020  0.62480  0.18290  Biso   1.000  O
  O26      1.0000 0.21330  0.54240  0.11570  Biso   1.000  O
  N25      1.0000 0.01020  0.49380  0.35220  Biso   1.000  N
  H61      1.0000 0.99390  0.45490  0.34250  Biso   1.000  H
  N26      1.0000 0.01190  0.57330  0.43020  Biso   1.000  N
  C97      1.0000 0.20630  0.57370  0.16720  Biso   1.000  C
  C98      1.0000 0.15580  0.55440  0.21620  Biso   1.000  C
  C99      1.0000 0.15030  0.58530  0.27610  Biso   1.000  C
  H62      1.0000 0.18000  0.61980  0.28640  Biso   1.000  H
  C100     1.0000 0.10320  0.56780  0.32160  Biso   1.000  C
  H63      1.0000 0.09970  0.59030  0.36230  Biso   1.000  H
  C101     1.0000 0.06070  0.51590  0.30630  Biso   1.000  C
  C102     1.0000 0.06670  0.48270  0.24860  Biso   1.000  C
  H64      1.0000 0.03830  0.44690  0.23930  Biso   1.000  H
  C103     1.0000 0.11380  0.50080  0.20380  Biso   1.000  C
  H65      1.0000 0.11800  0.47700  0.16390  Biso   1.000  H
  C104     1.0000 0.98510  0.51940  0.40350  Biso   1.000  C
  O27      1.0000 0.25980  0.37520  0.68290  Biso   1.000  O
  O28      1.0000 0.28670  0.45760  0.61570  Biso   1.000  O
  N27      1.0000 0.48980  0.50620  0.85220  Biso   1.000  N
  H66      1.0000 0.50610  0.54510  0.84250  Biso   1.000  H
  N28      1.0000 0.48810  0.42670  0.93020  Biso   1.000  N
  C105     1.0000 0.29370  0.42630  0.66720  Biso   1.000  C
  C106     1.0000 0.34420  0.44560  0.71620  Biso   1.000  C
  C107     1.0000 0.34970  0.41470  0.77610  Biso   1.000  C
  H67      1.0000 0.32000  0.38020  0.78640  Biso   1.000  H
  C108     1.0000 0.39680  0.43220  0.82160  Biso   1.000  C
  H68      1.0000 0.40030  0.40970  0.86230  Biso   1.000  H
  C109     1.0000 0.43930  0.48410  0.80630  Biso   1.000  C
  C110     1.0000 0.43330  0.51730  0.74860  Biso   1.000  C
  H69      1.0000 0.46170  0.55310  0.73930  Biso   1.000  H
  C111     1.0000 0.38620  0.49920  0.70380  Biso   1.000  C
  H70      1.0000 0.38200  0.52300  0.66390  Biso   1.000  H
  C112     1.0000 0.51490  0.48060  0.90350  Biso   1.000  C
  O29      1.0000 0.75980  0.12480  0.31710  Biso   1.000  O
  O30      1.0000 0.78670  0.04240  0.38430  Biso   1.000  O
  N29      1.0000 0.98980  0.99380  0.14780  Biso   1.000  N
  H71      1.0000 0.00610  0.95490  0.15750  Biso   1.000  H
  N30      1.0000 0.98810  0.07330  0.06980  Biso   1.000  N
  C113     1.0000 0.79370  0.07370  0.33280  Biso   1.000  C
  C114     1.0000 0.84420  0.05440  0.28380  Biso   1.000  C
  C115     1.0000 0.84970  0.08530  0.22390  Biso   1.000  C
  H72      1.0000 0.82000  0.11980  0.21360  Biso   1.000  H
  C116     1.0000 0.89680  0.06780  0.17840  Biso   1.000  C
  H73      1.0000 0.90030  0.09030  0.13770  Biso   1.000  H
  C117     1.0000 0.93930  0.01590  0.19370  Biso   1.000  C
  C118     1.0000 0.93330  0.98270  0.25140  Biso   1.000  C
  H74      1.0000 0.96170  0.94690  0.26070  Biso   1.000  H
  C119     1.0000 0.88620  0.00080  0.29620  Biso   1.000  C
  H75      1.0000 0.88200  0.97700  0.33610  Biso   1.000  H
  C120     1.0000 0.01490  0.01940  0.09650  Biso   1.000  C
  O31      1.0000 0.74020  0.87520  0.81710  Biso   1.000  O
  O32      1.0000 0.71330  0.95760  0.88430  Biso   1.000  O
  N31      1.0000 0.51020  0.00620  0.64780  Biso   1.000  N
  H76      1.0000 0.49390  0.04510  0.65750  Biso   1.000  H
  N32      1.0000 0.51190  0.92670  0.56980  Biso   1.000  N
  C121     1.0000 0.70630  0.92630  0.83280  Biso   1.000  C
  C122     1.0000 0.65580  0.94560  0.78380  Biso   1.000  C
  C123     1.0000 0.65030  0.91470  0.72390  Biso   1.000  C
  H77      1.0000 0.68000  0.88020  0.71360  Biso   1.000  H
  C124     1.0000 0.60320  0.93220  0.67840  Biso   1.000  C
  H78      1.0000 0.59970  0.90970  0.63770  Biso   1.000  H
  C125     1.0000 0.56070  0.98410  0.69370  Biso   1.000  C
  C126     1.0000 0.56670  0.01730  0.75140  Biso   1.000  C
  H79      1.0000 0.53830  0.05310  0.76070  Biso   1.000  H
  C127     1.0000 0.61380  0.99920  0.79620  Biso   1.000  C
  H80      1.0000 0.61800  0.02300  0.83610  Biso   1.000  H
  C128     1.0000 0.48510  0.98060  0.59650  Biso   1.000  C
  O33      1.0000 0.18290  0.24020  0.62480  Biso   1.000  O
  O34      1.0000 0.11570  0.21330  0.54240  Biso   1.000  O
  N33      1.0000 0.35220  0.01020  0.49380  Biso   1.000  N
  H81      1.0000 0.34250  0.99390  0.45490  Biso   1.000  H
  N34      1.0000 0.43020  0.01190  0.57330  Biso   1.000  N
  C129     1.0000 0.16720  0.20630  0.57370  Biso   1.000  C
  C130     1.0000 0.21620  0.15580  0.55440  Biso   1.000  C
  C131     1.0000 0.27610  0.15030  0.58530  Biso   1.000  C
  H82      1.0000 0.28640  0.18000  0.61980  Biso   1.000  H
  C132     1.0000 0.32160  0.10320  0.56780  Biso   1.000  C
  H83      1.0000 0.36230  0.09970  0.59030  Biso   1.000  H
  C133     1.0000 0.30630  0.06070  0.51590  Biso   1.000  C
  C134     1.0000 0.24860  0.06670  0.48270  Biso   1.000  C
  H84      1.0000 0.23930  0.03830  0.44690  Biso   1.000  H
  C135     1.0000 0.20380  0.11380  0.50080  Biso   1.000  C
  H85      1.0000 0.16390  0.11800  0.47700  Biso   1.000  H
  C136     1.0000 0.40350  0.98510  0.51940  Biso   1.000  C
  O35      1.0000 0.68290  0.25980  0.37520  Biso   1.000  O
  O36      1.0000 0.61570  0.28670  0.45760  Biso   1.000  O
  N35      1.0000 0.85220  0.48980  0.50620  Biso   1.000  N
  H86      1.0000 0.84250  0.50610  0.54510  Biso   1.000  H
  N36      1.0000 0.93020  0.48810  0.42670  Biso   1.000  N
  C137     1.0000 0.66720  0.29370  0.42630  Biso   1.000  C
  C138     1.0000 0.71620  0.34420  0.44560  Biso   1.000  C
  C139     1.0000 0.77610  0.34970  0.41470  Biso   1.000  C
  H87      1.0000 0.78640  0.32000  0.38020  Biso   1.000  H
  C140     1.0000 0.82160  0.39680  0.43220  Biso   1.000  C
  H88      1.0000 0.86230  0.40030  0.40970  Biso   1.000  H
  C141     1.0000 0.80630  0.43930  0.48410  Biso   1.000  C
  C142     1.0000 0.74860  0.43330  0.51730  Biso   1.000  C
  H89      1.0000 0.73930  0.46170  0.55310  Biso   1.000  H
  C143     1.0000 0.70380  0.38620  0.49920  Biso   1.000  C
  H90      1.0000 0.66390  0.38200  0.52300  Biso   1.000  H
  C144     1.0000 0.90350  0.51490  0.48060  Biso   1.000  C
  O37      1.0000 0.31710  0.75980  0.12480  Biso   1.000  O
  O38      1.0000 0.38430  0.78670  0.04240  Biso   1.000  O
  N37      1.0000 0.14780  0.98980  0.99380  Biso   1.000  N
  H91      1.0000 0.15750  0.00610  0.95490  Biso   1.000  H
  N38      1.0000 0.06980  0.98810  0.07330  Biso   1.000  N
  C145     1.0000 0.33280  0.79370  0.07370  Biso   1.000  C
  C146     1.0000 0.28380  0.84420  0.05440  Biso   1.000  C
  C147     1.0000 0.22390  0.84970  0.08530  Biso   1.000  C
  H92      1.0000 0.21360  0.82000  0.11980  Biso   1.000  H
  C148     1.0000 0.17840  0.89680  0.06780  Biso   1.000  C
  H93      1.0000 0.13770  0.90030  0.09030  Biso   1.000  H
  C149     1.0000 0.19370  0.93930  0.01590  Biso   1.000  C
  C150     1.0000 0.25140  0.93330  0.98270  Biso   1.000  C
  H94      1.0000 0.26070  0.96170  0.94690  Biso   1.000  H
  C151     1.0000 0.29620  0.88620  0.00080  Biso   1.000  C
  H95      1.0000 0.33610  0.88200  0.97700  Biso   1.000  H
  C152     1.0000 0.09650  0.01490  0.01940  Biso   1.000  C
  O39      1.0000 0.81710  0.74020  0.87520  Biso   1.000  O
  O40      1.0000 0.88430  0.71330  0.95760  Biso   1.000  O
  N39      1.0000 0.64780  0.51020  0.00620  Biso   1.000  N
  H96      1.0000 0.65750  0.49390  0.04510  Biso   1.000  H
  N40      1.0000 0.56980  0.51190  0.92670  Biso   1.000  N
  C153     1.0000 0.83280  0.70630  0.92630  Biso   1.000  C
  C154     1.0000 0.78380  0.65580  0.94560  Biso   1.000  C
  C155     1.0000 0.72390  0.65030  0.91470  Biso   1.000  C
  H97      1.0000 0.71360  0.68000  0.88020  Biso   1.000  H
  C156     1.0000 0.67840  0.60320  0.93220  Biso   1.000  C
  H98      1.0000 0.63770  0.59970  0.90970  Biso   1.000  H
  C157     1.0000 0.69370  0.56070  0.98410  Biso   1.000  C
  C158     1.0000 0.75140  0.56670  0.01730  Biso   1.000  C
  H99      1.0000 0.76070  0.53830  0.05310  Biso   1.000  H
  C159     1.0000 0.79620  0.61380  0.99920  Biso   1.000  C
  H100     1.0000 0.83610  0.61800  0.02300  Biso   1.000  H
  C160     1.0000 0.59650  0.48510  0.98060  Biso   1.000  C
  O41      1.0000 0.62480  0.18290  0.24020  Biso   1.000  O
  O42      1.0000 0.54240  0.11570  0.21330  Biso   1.000  O
  N41      1.0000 0.49380  0.35220  0.01020  Biso   1.000  N
  H101     1.0000 0.45490  0.34250  0.99390  Biso   1.000  H
  N42      1.0000 0.57330  0.43020  0.01190  Biso   1.000  N
  C161     1.0000 0.57370  0.16720  0.20630  Biso   1.000  C
  C162     1.0000 0.55440  0.21620  0.15580  Biso   1.000  C
  C163     1.0000 0.58530  0.27610  0.15030  Biso   1.000  C
  H102     1.0000 0.61980  0.28640  0.18000  Biso   1.000  H
  C164     1.0000 0.56780  0.32160  0.10320  Biso   1.000  C
  H103     1.0000 0.59030  0.36230  0.09970  Biso   1.000  H
  C165     1.0000 0.51590  0.30630  0.06070  Biso   1.000  C
  C166     1.0000 0.48270  0.24860  0.06670  Biso   1.000  C
  H104     1.0000 0.44690  0.23930  0.03830  Biso   1.000  H
  C167     1.0000 0.50080  0.20380  0.11380  Biso   1.000  C
  H105     1.0000 0.47700  0.16390  0.11800  Biso   1.000  H
  C168     1.0000 0.51940  0.40350  0.98510  Biso   1.000  C
  O43      1.0000 0.37520  0.68290  0.25980  Biso   1.000  O
  O44      1.0000 0.45760  0.61570  0.28670  Biso   1.000  O
  N43      1.0000 0.50620  0.85220  0.48980  Biso   1.000  N
  H106     1.0000 0.54510  0.84250  0.50610  Biso   1.000  H
  N44      1.0000 0.42670  0.93020  0.48810  Biso   1.000  N
  C169     1.0000 0.42630  0.66720  0.29370  Biso   1.000  C
  C170     1.0000 0.44560  0.71620  0.34420  Biso   1.000  C
  C171     1.0000 0.41470  0.77610  0.34970  Biso   1.000  C
  H107     1.0000 0.38020  0.78640  0.32000  Biso   1.000  H
  C172     1.0000 0.43220  0.82160  0.39680  Biso   1.000  C
  H108     1.0000 0.40970  0.86230  0.40030  Biso   1.000  H
  C173     1.0000 0.48410  0.80630  0.43930  Biso   1.000  C
  C174     1.0000 0.51730  0.74860  0.43330  Biso   1.000  C
  H109     1.0000 0.55310  0.73930  0.46170  Biso   1.000  H
  C175     1.0000 0.49920  0.70380  0.38620  Biso   1.000  C
  H110     1.0000 0.52300  0.66390  0.38200  Biso   1.000  H
  C176     1.0000 0.48060  0.90350  0.51490  Biso   1.000  C
  O45      1.0000 0.12480  0.31710  0.75980  Biso   1.000  O
  O46      1.0000 0.04240  0.38430  0.78670  Biso   1.000  O
  N45      1.0000 0.99380  0.14780  0.98980  Biso   1.000  N
  H111     1.0000 0.95490  0.15750  0.00610  Biso   1.000  H
  N46      1.0000 0.07330  0.06980  0.98810  Biso   1.000  N
  C177     1.0000 0.07370  0.33280  0.79370  Biso   1.000  C
  C178     1.0000 0.05440  0.28380  0.84420  Biso   1.000  C
  C179     1.0000 0.08530  0.22390  0.84970  Biso   1.000  C
  H112     1.0000 0.11980  0.21360  0.82000  Biso   1.000  H
  C180     1.0000 0.06780  0.17840  0.89680  Biso   1.000  C
  H113     1.0000 0.09030  0.13770  0.90030  Biso   1.000  H
  C181     1.0000 0.01590  0.19370  0.93930  Biso   1.000  C
  C182     1.0000 0.98270  0.25140  0.93330  Biso   1.000  C
  H114     1.0000 0.94690  0.26070  0.96170  Biso   1.000  H
  C183     1.0000 0.00080  0.29620  0.88620  Biso   1.000  C
  H115     1.0000 0.97700  0.33610  0.88200  Biso   1.000  H
  C184     1.0000 0.01940  0.09650  0.01490  Biso   1.000  C
  O47      1.0000 0.87520  0.81710  0.74020  Biso   1.000  O
  O48      1.0000 0.95760  0.88430  0.71330  Biso   1.000  O
  N47      1.0000 0.00620  0.64780  0.51020  Biso   1.000  N
  H116     1.0000 0.04510  0.65750  0.49390  Biso   1.000  H
  N48      1.0000 0.92670  0.56980  0.51190  Biso   1.000  N
  C185     1.0000 0.92630  0.83280  0.70630  Biso   1.000  C
  C186     1.0000 0.94560  0.78380  0.65580  Biso   1.000  C
  C187     1.0000 0.91470  0.72390  0.65030  Biso   1.000  C
  H117     1.0000 0.88020  0.71360  0.68000  Biso   1.000  H
  C188     1.0000 0.93220  0.67840  0.60320  Biso   1.000  C
  H118     1.0000 0.90970  0.63770  0.59970  Biso   1.000  H
  C189     1.0000 0.98410  0.69370  0.56070  Biso   1.000  C
  C190     1.0000 0.01730  0.75140  0.56670  Biso   1.000  C
  H119     1.0000 0.05310  0.76070  0.53830  Biso   1.000  H
  C191     1.0000 0.99920  0.79620  0.61380  Biso   1.000  C
  H120     1.0000 0.02300  0.83610  0.61800  Biso   1.000  H
  C192     1.0000 0.98060  0.59650  0.48510  Biso   1.000  C
  Tm5      1.0000 0.33830  0.66170  0.16170  Biso   1.000  Tm
  Tm6      1.0000 0.16170  0.33830  0.66170  Biso   1.000  Tm
  Tm7      1.0000 0.66170  0.16170  0.33830  Biso   1.000  Tm
  Tm8      1.0000 0.83830  0.83830  0.83830  Biso   1.000  Tm
