data_image0
_cell_length_a       20.9259
_cell_length_b       20.9259
_cell_length_c       9.6322
_cell_angle_alpha    90
_cell_angle_beta     90
_cell_angle_gamma    90

_symmetry_space_group_name_H-M    "P 1"
_symmetry_int_tables_number       1

loop_
  _symmetry_equiv_pos_as_xyz
  'x, y, z'

loop_
  _atom_site_label
  _atom_site_occupancy
  _atom_site_fract_x
  _atom_site_fract_y
  _atom_site_fract_z
  _atom_site_thermal_displace_type
  _atom_site_B_iso_or_equiv
  _atom_site_type_symbol
  K1       1.0000 0.33809  0.98095  0.14419  Biso   1.000  K
  C1       1.0000 0.27490  0.88904  0.74480  Biso   1.000  C
  C2       1.0000 0.22670  0.90770  0.83430  Biso   1.000  C
  H1       1.0000 0.23430  0.93880  0.90120  Biso   1.000  H
  C3       1.0000 0.16650  0.87930  0.82310  Biso   1.000  C
  H2       1.0000 0.13470  0.89200  0.88470  Biso   1.000  H
  C4       1.0000 0.26050  0.84230  0.64780  Biso   1.000  C
  H3       1.0000 0.29170  0.82810  0.58630  Biso   1.000  H
  C5       1.0000 0.19990  0.81720  0.64340  Biso   1.000  C
  H4       1.0000 0.19130  0.78600  0.57730  Biso   1.000  H
  C6       1.0000 0.33970  0.91947  0.74990  Biso   1.000  C
  C7       1.0000 0.48420  0.12580  0.02100  Biso   1.000  C
  C8       1.0000 0.54220  0.15740  0.02540  Biso   1.000  C
  H5       1.0000 0.57560  0.14490  0.96770  Biso   1.000  H
  C9       1.0000 0.55010  0.20760  0.11640  Biso   1.000  C
  H6       1.0000 0.58950  0.22820  0.11860  Biso   1.000  H
  C10      1.0000 0.43610  0.14750  0.10880  Biso   1.000  C
  H7       1.0000 0.39620  0.12810  0.10880  Biso   1.000  H
  C11      1.0000 0.44850  0.19830  0.19600  Biso   1.000  C
  H8       1.0000 0.41590  0.21230  0.25430  Biso   1.000  H
  C12      1.0000 0.47340  0.07031  0.92550  Biso   1.000  C
  C13      1.0000 0.59421  0.91660  0.48820  Biso   1.000  C
  C14      1.0000 0.58550  0.86550  0.39850  Biso   1.000  C
  H9       1.0000 0.54740  0.84260  0.39920  Biso   1.000  H
  C15      1.0000 0.63400  0.84910  0.30820  Biso   1.000  C
  H10      1.0000 0.62690  0.81520  0.24760  Biso   1.000  H
  C16      1.0000 0.65270  0.94790  0.48050  Biso   1.000  C
  H11      1.0000 0.66100  0.98250  0.53850  Biso   1.000  H
  C17      1.0000 0.69790  0.92790  0.38790  Biso   1.000  C
  H12      1.0000 0.73640  0.95010  0.38420  Biso   1.000  H
  C18      1.0000 0.54226  0.93736  0.58340  Biso   1.000  C
  C19      1.0000 0.43963  0.92609  0.65840  Biso   1.000  C
  C20      1.0000 0.40420  0.99570  0.84440  Biso   1.000  C
  C21      1.0000 0.45180  0.97625  0.75090  Biso   1.000  C
  C22      1.0000 0.51130  0.00592  0.75480  Biso   1.000  C
  N1       1.0000 0.15233  0.83500  0.72880  Biso   1.000  N
  N2       1.0000 0.50440  0.22824  0.20120  Biso   1.000  N
  N3       1.0000 0.69000  0.87820  0.30200  Biso   1.000  N
  N4       1.0000 0.38175  0.89792  0.65490  Biso   1.000  N
  N5       1.0000 0.34697  0.96484  0.84670  Biso   1.000  N
  N6       1.0000 0.41510  0.04367  0.93260  Biso   1.000  N
  N7       1.0000 0.52260  0.05444  0.84470  Biso   1.000  N
  N8       1.0000 0.55849  0.98545  0.67040  Biso   1.000  N
  N9       1.0000 0.48643  0.90682  0.57150  Biso   1.000  N
  K2       1.0000 0.16191  0.51905  0.14419  Biso   1.000  K
  C23      1.0000 0.22510  0.61096  0.74480  Biso   1.000  C
  C24      1.0000 0.27330  0.59230  0.83430  Biso   1.000  C
  H13      1.0000 0.26570  0.56120  0.90120  Biso   1.000  H
  C25      1.0000 0.33350  0.62070  0.82310  Biso   1.000  C
  H14      1.0000 0.36530  0.60800  0.88470  Biso   1.000  H
  C26      1.0000 0.23950  0.65770  0.64780  Biso   1.000  C
  H15      1.0000 0.20830  0.67190  0.58630  Biso   1.000  H
  C27      1.0000 0.30010  0.68280  0.64340  Biso   1.000  C
  H16      1.0000 0.30870  0.71400  0.57730  Biso   1.000  H
  C28      1.0000 0.16030  0.58053  0.74990  Biso   1.000  C
  C29      1.0000 0.01580  0.37420  0.02100  Biso   1.000  C
  C30      1.0000 0.95780  0.34260  0.02540  Biso   1.000  C
  H17      1.0000 0.92440  0.35510  0.96770  Biso   1.000  H
  C31      1.0000 0.94990  0.29240  0.11640  Biso   1.000  C
  H18      1.0000 0.91050  0.27180  0.11860  Biso   1.000  H
  C32      1.0000 0.06390  0.35250  0.10880  Biso   1.000  C
  H19      1.0000 0.10380  0.37190  0.10880  Biso   1.000  H
  C33      1.0000 0.05150  0.30170  0.19600  Biso   1.000  C
  H20      1.0000 0.08410  0.28770  0.25430  Biso   1.000  H
  C34      1.0000 0.02660  0.42969  0.92550  Biso   1.000  C
  C35      1.0000 0.90579  0.58340  0.48820  Biso   1.000  C
  C36      1.0000 0.91450  0.63450  0.39850  Biso   1.000  C
  H21      1.0000 0.95260  0.65740  0.39920  Biso   1.000  H
  C37      1.0000 0.86600  0.65090  0.30820  Biso   1.000  C
  H22      1.0000 0.87310  0.68480  0.24760  Biso   1.000  H
  C38      1.0000 0.84730  0.55210  0.48050  Biso   1.000  C
  H23      1.0000 0.83900  0.51750  0.53850  Biso   1.000  H
  C39      1.0000 0.80210  0.57210  0.38790  Biso   1.000  C
  H24      1.0000 0.76360  0.54990  0.38420  Biso   1.000  H
  C40      1.0000 0.95774  0.56264  0.58340  Biso   1.000  C
  C41      1.0000 0.06037  0.57391  0.65840  Biso   1.000  C
  C42      1.0000 0.09580  0.50430  0.84440  Biso   1.000  C
  C43      1.0000 0.04820  0.52375  0.75090  Biso   1.000  C
  C44      1.0000 0.98870  0.49408  0.75480  Biso   1.000  C
  N10      1.0000 0.34767  0.66500  0.72880  Biso   1.000  N
  N11      1.0000 0.99560  0.27176  0.20120  Biso   1.000  N
  N12      1.0000 0.81000  0.62180  0.30200  Biso   1.000  N
  N13      1.0000 0.11825  0.60208  0.65490  Biso   1.000  N
  N14      1.0000 0.15303  0.53516  0.84670  Biso   1.000  N
  N15      1.0000 0.08490  0.45633  0.93260  Biso   1.000  N
  N16      1.0000 0.97740  0.44556  0.84470  Biso   1.000  N
  N17      1.0000 0.94151  0.51455  0.67040  Biso   1.000  N
  N18      1.0000 0.01357  0.59318  0.57150  Biso   1.000  N
  K3       1.0000 0.01905  0.83809  0.64419  Biso   1.000  K
  C45      1.0000 0.11096  0.77490  0.24480  Biso   1.000  C
  C46      1.0000 0.09230  0.72670  0.33430  Biso   1.000  C
  H25      1.0000 0.06120  0.73430  0.40120  Biso   1.000  H
  C47      1.0000 0.12070  0.66650  0.32310  Biso   1.000  C
  H26      1.0000 0.10800  0.63470  0.38470  Biso   1.000  H
  C48      1.0000 0.15770  0.76050  0.14780  Biso   1.000  C
  H27      1.0000 0.17190  0.79170  0.08630  Biso   1.000  H
  C49      1.0000 0.18280  0.69990  0.14340  Biso   1.000  C
  H28      1.0000 0.21400  0.69130  0.07730  Biso   1.000  H
  C50      1.0000 0.08053  0.83970  0.24990  Biso   1.000  C
  C51      1.0000 0.87420  0.98420  0.52100  Biso   1.000  C
  C52      1.0000 0.84260  0.04220  0.52540  Biso   1.000  C
  H29      1.0000 0.85510  0.07560  0.46770  Biso   1.000  H
  C53      1.0000 0.79240  0.05010  0.61640  Biso   1.000  C
  H30      1.0000 0.77180  0.08950  0.61860  Biso   1.000  H
  C54      1.0000 0.85250  0.93610  0.60880  Biso   1.000  C
  H31      1.0000 0.87190  0.89620  0.60880  Biso   1.000  H
  C55      1.0000 0.80170  0.94850  0.69600  Biso   1.000  C
  H32      1.0000 0.78770  0.91590  0.75430  Biso   1.000  H
  C56      1.0000 0.92969  0.97340  0.42550  Biso   1.000  C
  C57      1.0000 0.08340  0.09421  0.98820  Biso   1.000  C
  C58      1.0000 0.13450  0.08550  0.89850  Biso   1.000  C
  H33      1.0000 0.15740  0.04740  0.89920  Biso   1.000  H
  C59      1.0000 0.15090  0.13400  0.80820  Biso   1.000  C
  H34      1.0000 0.18480  0.12690  0.74760  Biso   1.000  H
  C60      1.0000 0.05210  0.15270  0.98050  Biso   1.000  C
  H35      1.0000 0.01750  0.16100  0.03850  Biso   1.000  H
  C61      1.0000 0.07210  0.19790  0.88790  Biso   1.000  C
  H36      1.0000 0.04990  0.23640  0.88420  Biso   1.000  H
  C62      1.0000 0.06264  0.04226  0.08340  Biso   1.000  C
  C63      1.0000 0.07391  0.93963  0.15840  Biso   1.000  C
  C64      1.0000 0.00430  0.90420  0.34440  Biso   1.000  C
  C65      1.0000 0.02375  0.95180  0.25090  Biso   1.000  C
  C66      1.0000 0.99408  0.01130  0.25480  Biso   1.000  C
  N19      1.0000 0.16500  0.65233  0.22880  Biso   1.000  N
  N20      1.0000 0.77176  0.00440  0.70120  Biso   1.000  N
  N21      1.0000 0.12180  0.19000  0.80200  Biso   1.000  N
  N22      1.0000 0.10208  0.88175  0.15490  Biso   1.000  N
  N23      1.0000 0.03516  0.84697  0.34670  Biso   1.000  N
  N24      1.0000 0.95633  0.91510  0.43260  Biso   1.000  N
  N25      1.0000 0.94556  0.02260  0.34470  Biso   1.000  N
  N26      1.0000 0.01455  0.05849  0.17040  Biso   1.000  N
  N27      1.0000 0.09318  0.98643  0.07150  Biso   1.000  N
  K4       1.0000 0.48095  0.66191  0.64419  Biso   1.000  K
  C67      1.0000 0.38904  0.72510  0.24480  Biso   1.000  C
  C68      1.0000 0.40770  0.77330  0.33430  Biso   1.000  C
  H37      1.0000 0.43880  0.76570  0.40120  Biso   1.000  H
  C69      1.0000 0.37930  0.83350  0.32310  Biso   1.000  C
  H38      1.0000 0.39200  0.86530  0.38470  Biso   1.000  H
  C70      1.0000 0.34230  0.73950  0.14780  Biso   1.000  C
  H39      1.0000 0.32810  0.70830  0.08630  Biso   1.000  H
  C71      1.0000 0.31720  0.80010  0.14340  Biso   1.000  C
  H40      1.0000 0.28600  0.80870  0.07730  Biso   1.000  H
  C72      1.0000 0.41947  0.66030  0.24990  Biso   1.000  C
  C73      1.0000 0.62580  0.51580  0.52100  Biso   1.000  C
  C74      1.0000 0.65740  0.45780  0.52540  Biso   1.000  C
  H41      1.0000 0.64490  0.42440  0.46770  Biso   1.000  H
  C75      1.0000 0.70760  0.44990  0.61640  Biso   1.000  C
  H42      1.0000 0.72820  0.41050  0.61860  Biso   1.000  H
  C76      1.0000 0.64750  0.56390  0.60880  Biso   1.000  C
  H43      1.0000 0.62810  0.60380  0.60880  Biso   1.000  H
  C77      1.0000 0.69830  0.55150  0.69600  Biso   1.000  C
  H44      1.0000 0.71230  0.58410  0.75430  Biso   1.000  H
  C78      1.0000 0.57031  0.52660  0.42550  Biso   1.000  C
  C79      1.0000 0.41660  0.40579  0.98820  Biso   1.000  C
  C80      1.0000 0.36550  0.41450  0.89850  Biso   1.000  C
  H45      1.0000 0.34260  0.45260  0.89920  Biso   1.000  H
  C81      1.0000 0.34910  0.36600  0.80820  Biso   1.000  C
  H46      1.0000 0.31520  0.37310  0.74760  Biso   1.000  H
  C82      1.0000 0.44790  0.34730  0.98050  Biso   1.000  C
  H47      1.0000 0.48250  0.33900  0.03850  Biso   1.000  H
  C83      1.0000 0.42790  0.30210  0.88790  Biso   1.000  C
  H48      1.0000 0.45010  0.26360  0.88420  Biso   1.000  H
  C84      1.0000 0.43736  0.45774  0.08340  Biso   1.000  C
  C85      1.0000 0.42609  0.56037  0.15840  Biso   1.000  C
  C86      1.0000 0.49570  0.59580  0.34440  Biso   1.000  C
  C87      1.0000 0.47625  0.54820  0.25090  Biso   1.000  C
  C88      1.0000 0.50592  0.48870  0.25480  Biso   1.000  C
  N28      1.0000 0.33500  0.84767  0.22880  Biso   1.000  N
  N29      1.0000 0.72824  0.49560  0.70120  Biso   1.000  N
  N30      1.0000 0.37820  0.31000  0.80200  Biso   1.000  N
  N31      1.0000 0.39792  0.61825  0.15490  Biso   1.000  N
  N32      1.0000 0.46484  0.65303  0.34670  Biso   1.000  N
  N33      1.0000 0.54367  0.58490  0.43260  Biso   1.000  N
  N34      1.0000 0.55444  0.47740  0.34470  Biso   1.000  N
  N35      1.0000 0.48545  0.44151  0.17040  Biso   1.000  N
  N36      1.0000 0.40682  0.51357  0.07150  Biso   1.000  N
  K5       1.0000 0.66191  0.01905  0.85581  Biso   1.000  K
  C89      1.0000 0.72510  0.11096  0.25520  Biso   1.000  C
  C90      1.0000 0.77330  0.09230  0.16570  Biso   1.000  C
  H49      1.0000 0.76570  0.06120  0.09880  Biso   1.000  H
  C91      1.0000 0.83350  0.12070  0.17690  Biso   1.000  C
  H50      1.0000 0.86530  0.10800  0.11530  Biso   1.000  H
  C92      1.0000 0.73950  0.15770  0.35220  Biso   1.000  C
  H51      1.0000 0.70830  0.17190  0.41370  Biso   1.000  H
  C93      1.0000 0.80010  0.18280  0.35660  Biso   1.000  C
  H52      1.0000 0.80870  0.21400  0.42270  Biso   1.000  H
  C94      1.0000 0.66030  0.08053  0.25010  Biso   1.000  C
  C95      1.0000 0.51580  0.87420  0.97900  Biso   1.000  C
  C96      1.0000 0.45780  0.84260  0.97460  Biso   1.000  C
  H53      1.0000 0.42440  0.85510  0.03230  Biso   1.000  H
  C97      1.0000 0.44990  0.79240  0.88360  Biso   1.000  C
  H54      1.0000 0.41050  0.77180  0.88140  Biso   1.000  H
  C98      1.0000 0.56390  0.85250  0.89120  Biso   1.000  C
  H55      1.0000 0.60380  0.87190  0.89120  Biso   1.000  H
  C99      1.0000 0.55150  0.80170  0.80400  Biso   1.000  C
  H56      1.0000 0.58410  0.78770  0.74570  Biso   1.000  H
  C100     1.0000 0.52660  0.92969  0.07450  Biso   1.000  C
  C101     1.0000 0.40579  0.08340  0.51180  Biso   1.000  C
  C102     1.0000 0.41450  0.13450  0.60150  Biso   1.000  C
  H57      1.0000 0.45260  0.15740  0.60080  Biso   1.000  H
  C103     1.0000 0.36600  0.15090  0.69180  Biso   1.000  C
  H58      1.0000 0.37310  0.18480  0.75240  Biso   1.000  H
  C104     1.0000 0.34730  0.05210  0.51950  Biso   1.000  C
  H59      1.0000 0.33900  0.01750  0.46150  Biso   1.000  H
  C105     1.0000 0.30210  0.07210  0.61210  Biso   1.000  C
  H60      1.0000 0.26360  0.04990  0.61580  Biso   1.000  H
  C106     1.0000 0.45774  0.06264  0.41660  Biso   1.000  C
  C107     1.0000 0.56037  0.07391  0.34160  Biso   1.000  C
  C108     1.0000 0.59580  0.00430  0.15560  Biso   1.000  C
  C109     1.0000 0.54820  0.02375  0.24910  Biso   1.000  C
  C110     1.0000 0.48870  0.99408  0.24520  Biso   1.000  C
  N37      1.0000 0.84767  0.16500  0.27120  Biso   1.000  N
  N38      1.0000 0.49560  0.77176  0.79880  Biso   1.000  N
  N39      1.0000 0.31000  0.12180  0.69800  Biso   1.000  N
  N40      1.0000 0.61825  0.10208  0.34510  Biso   1.000  N
  N41      1.0000 0.65303  0.03516  0.15330  Biso   1.000  N
  N42      1.0000 0.58490  0.95633  0.06740  Biso   1.000  N
  N43      1.0000 0.47740  0.94556  0.15530  Biso   1.000  N
  N44      1.0000 0.44151  0.01455  0.32960  Biso   1.000  N
  N45      1.0000 0.51357  0.09318  0.42850  Biso   1.000  N
  K6       1.0000 0.83809  0.48095  0.85581  Biso   1.000  K
  C111     1.0000 0.77490  0.38904  0.25520  Biso   1.000  C
  C112     1.0000 0.72670  0.40770  0.16570  Biso   1.000  C
  H61      1.0000 0.73430  0.43880  0.09880  Biso   1.000  H
  C113     1.0000 0.66650  0.37930  0.17690  Biso   1.000  C
  H62      1.0000 0.63470  0.39200  0.11530  Biso   1.000  H
  C114     1.0000 0.76050  0.34230  0.35220  Biso   1.000  C
  H63      1.0000 0.79170  0.32810  0.41370  Biso   1.000  H
  C115     1.0000 0.69990  0.31720  0.35660  Biso   1.000  C
  H64      1.0000 0.69130  0.28600  0.42270  Biso   1.000  H
  C116     1.0000 0.83970  0.41947  0.25010  Biso   1.000  C
  C117     1.0000 0.98420  0.62580  0.97900  Biso   1.000  C
  C118     1.0000 0.04220  0.65740  0.97460  Biso   1.000  C
  H65      1.0000 0.07560  0.64490  0.03230  Biso   1.000  H
  C119     1.0000 0.05010  0.70760  0.88360  Biso   1.000  C
  H66      1.0000 0.08950  0.72820  0.88140  Biso   1.000  H
  C120     1.0000 0.93610  0.64750  0.89120  Biso   1.000  C
  H67      1.0000 0.89620  0.62810  0.89120  Biso   1.000  H
  C121     1.0000 0.94850  0.69830  0.80400  Biso   1.000  C
  H68      1.0000 0.91590  0.71230  0.74570  Biso   1.000  H
  C122     1.0000 0.97340  0.57031  0.07450  Biso   1.000  C
  C123     1.0000 0.09421  0.41660  0.51180  Biso   1.000  C
  C124     1.0000 0.08550  0.36550  0.60150  Biso   1.000  C
  H69      1.0000 0.04740  0.34260  0.60080  Biso   1.000  H
  C125     1.0000 0.13400  0.34910  0.69180  Biso   1.000  C
  H70      1.0000 0.12690  0.31520  0.75240  Biso   1.000  H
  C126     1.0000 0.15270  0.44790  0.51950  Biso   1.000  C
  H71      1.0000 0.16100  0.48250  0.46150  Biso   1.000  H
  C127     1.0000 0.19790  0.42790  0.61210  Biso   1.000  C
  H72      1.0000 0.23640  0.45010  0.61580  Biso   1.000  H
  C128     1.0000 0.04226  0.43736  0.41660  Biso   1.000  C
  C129     1.0000 0.93963  0.42609  0.34160  Biso   1.000  C
  C130     1.0000 0.90420  0.49570  0.15560  Biso   1.000  C
  C131     1.0000 0.95180  0.47625  0.24910  Biso   1.000  C
  C132     1.0000 0.01130  0.50592  0.24520  Biso   1.000  C
  N46      1.0000 0.65233  0.33500  0.27120  Biso   1.000  N
  N47      1.0000 0.00440  0.72824  0.79880  Biso   1.000  N
  N48      1.0000 0.19000  0.37820  0.69800  Biso   1.000  N
  N49      1.0000 0.88175  0.39792  0.34510  Biso   1.000  N
  N50      1.0000 0.84697  0.46484  0.15330  Biso   1.000  N
  N51      1.0000 0.91510  0.54367  0.06740  Biso   1.000  N
  N52      1.0000 0.02260  0.55444  0.15530  Biso   1.000  N
  N53      1.0000 0.05849  0.48545  0.32960  Biso   1.000  N
  N54      1.0000 0.98643  0.40682  0.42850  Biso   1.000  N
  K7       1.0000 0.98095  0.16191  0.35581  Biso   1.000  K
  C133     1.0000 0.88904  0.22510  0.75520  Biso   1.000  C
  C134     1.0000 0.90770  0.27330  0.66570  Biso   1.000  C
  H73      1.0000 0.93880  0.26570  0.59880  Biso   1.000  H
  C135     1.0000 0.87930  0.33350  0.67690  Biso   1.000  C
  H74      1.0000 0.89200  0.36530  0.61530  Biso   1.000  H
  C136     1.0000 0.84230  0.23950  0.85220  Biso   1.000  C
  H75      1.0000 0.82810  0.20830  0.91370  Biso   1.000  H
  C137     1.0000 0.81720  0.30010  0.85660  Biso   1.000  C
  H76      1.0000 0.78600  0.30870  0.92270  Biso   1.000  H
  C138     1.0000 0.91947  0.16030  0.75010  Biso   1.000  C
  C139     1.0000 0.12580  0.01580  0.47900  Biso   1.000  C
  C140     1.0000 0.15740  0.95780  0.47460  Biso   1.000  C
  H77      1.0000 0.14490  0.92440  0.53230  Biso   1.000  H
  C141     1.0000 0.20760  0.94990  0.38360  Biso   1.000  C
  H78      1.0000 0.22820  0.91050  0.38140  Biso   1.000  H
  C142     1.0000 0.14750  0.06390  0.39120  Biso   1.000  C
  H79      1.0000 0.12810  0.10380  0.39120  Biso   1.000  H
  C143     1.0000 0.19830  0.05150  0.30400  Biso   1.000  C
  H80      1.0000 0.21230  0.08410  0.24570  Biso   1.000  H
  C144     1.0000 0.07031  0.02660  0.57450  Biso   1.000  C
  C145     1.0000 0.91660  0.90579  0.01180  Biso   1.000  C
  C146     1.0000 0.86550  0.91450  0.10150  Biso   1.000  C
  H81      1.0000 0.84260  0.95260  0.10080  Biso   1.000  H
  C147     1.0000 0.84910  0.86600  0.19180  Biso   1.000  C
  H82      1.0000 0.81520  0.87310  0.25240  Biso   1.000  H
  C148     1.0000 0.94790  0.84730  0.01950  Biso   1.000  C
  H83      1.0000 0.98250  0.83900  0.96150  Biso   1.000  H
  C149     1.0000 0.92790  0.80210  0.11210  Biso   1.000  C
  H84      1.0000 0.95010  0.76360  0.11580  Biso   1.000  H
  C150     1.0000 0.93736  0.95774  0.91660  Biso   1.000  C
  C151     1.0000 0.92609  0.06037  0.84160  Biso   1.000  C
  C152     1.0000 0.99570  0.09580  0.65560  Biso   1.000  C
  C153     1.0000 0.97625  0.04820  0.74910  Biso   1.000  C
  C154     1.0000 0.00592  0.98870  0.74520  Biso   1.000  C
  N55      1.0000 0.83500  0.34767  0.77120  Biso   1.000  N
  N56      1.0000 0.22824  0.99560  0.29880  Biso   1.000  N
  N57      1.0000 0.87820  0.81000  0.19800  Biso   1.000  N
  N58      1.0000 0.89792  0.11825  0.84510  Biso   1.000  N
  N59      1.0000 0.96484  0.15303  0.65330  Biso   1.000  N
  N60      1.0000 0.04367  0.08490  0.56740  Biso   1.000  N
  N61      1.0000 0.05444  0.97740  0.65530  Biso   1.000  N
  N62      1.0000 0.98545  0.94151  0.82960  Biso   1.000  N
  N63      1.0000 0.90682  0.01357  0.92850  Biso   1.000  N
  K8       1.0000 0.51905  0.33809  0.35581  Biso   1.000  K
  C155     1.0000 0.61096  0.27490  0.75520  Biso   1.000  C
  C156     1.0000 0.59230  0.22670  0.66570  Biso   1.000  C
  H85      1.0000 0.56120  0.23430  0.59880  Biso   1.000  H
  C157     1.0000 0.62070  0.16650  0.67690  Biso   1.000  C
  H86      1.0000 0.60800  0.13470  0.61530  Biso   1.000  H
  C158     1.0000 0.65770  0.26050  0.85220  Biso   1.000  C
  H87      1.0000 0.67190  0.29170  0.91370  Biso   1.000  H
  C159     1.0000 0.68280  0.19990  0.85660  Biso   1.000  C
  H88      1.0000 0.71400  0.19130  0.92270  Biso   1.000  H
  C160     1.0000 0.58053  0.33970  0.75010  Biso   1.000  C
  C161     1.0000 0.37420  0.48420  0.47900  Biso   1.000  C
  C162     1.0000 0.34260  0.54220  0.47460  Biso   1.000  C
  H89      1.0000 0.35510  0.57560  0.53230  Biso   1.000  H
  C163     1.0000 0.29240  0.55010  0.38360  Biso   1.000  C
  H90      1.0000 0.27180  0.58950  0.38140  Biso   1.000  H
  C164     1.0000 0.35250  0.43610  0.39120  Biso   1.000  C
  H91      1.0000 0.37190  0.39620  0.39120  Biso   1.000  H
  C165     1.0000 0.30170  0.44850  0.30400  Biso   1.000  C
  H92      1.0000 0.28770  0.41590  0.24570  Biso   1.000  H
  C166     1.0000 0.42969  0.47340  0.57450  Biso   1.000  C
  C167     1.0000 0.58340  0.59421  0.01180  Biso   1.000  C
  C168     1.0000 0.63450  0.58550  0.10150  Biso   1.000  C
  H93      1.0000 0.65740  0.54740  0.10080  Biso   1.000  H
  C169     1.0000 0.65090  0.63400  0.19180  Biso   1.000  C
  H94      1.0000 0.68480  0.62690  0.25240  Biso   1.000  H
  C170     1.0000 0.55210  0.65270  0.01950  Biso   1.000  C
  H95      1.0000 0.51750  0.66100  0.96150  Biso   1.000  H
  C171     1.0000 0.57210  0.69790  0.11210  Biso   1.000  C
  H96      1.0000 0.54990  0.73640  0.11580  Biso   1.000  H
  C172     1.0000 0.56264  0.54226  0.91660  Biso   1.000  C
  C173     1.0000 0.57391  0.43963  0.84160  Biso   1.000  C
  C174     1.0000 0.50430  0.40420  0.65560  Biso   1.000  C
  C175     1.0000 0.52375  0.45180  0.74910  Biso   1.000  C
  C176     1.0000 0.49408  0.51130  0.74520  Biso   1.000  C
  N64      1.0000 0.66500  0.15233  0.77120  Biso   1.000  N
  N65      1.0000 0.27176  0.50440  0.29880  Biso   1.000  N
  N66      1.0000 0.62180  0.69000  0.19800  Biso   1.000  N
  N67      1.0000 0.60208  0.38175  0.84510  Biso   1.000  N
  N68      1.0000 0.53516  0.34697  0.65330  Biso   1.000  N
  N69      1.0000 0.45633  0.41510  0.56740  Biso   1.000  N
  N70      1.0000 0.44556  0.52260  0.65530  Biso   1.000  N
  N71      1.0000 0.51455  0.55849  0.82960  Biso   1.000  N
  N72      1.0000 0.59318  0.48643  0.92850  Biso   1.000  N
