data_image0
_cell_length_a       20.4926
_cell_length_b       20.4926
_cell_length_c       20.4926
_cell_angle_alpha    90
_cell_angle_beta     90
_cell_angle_gamma    90

_symmetry_space_group_name_H-M    "P 1"
_symmetry_int_tables_number       1

loop_
  _symmetry_equiv_pos_as_xyz
  'x, y, z'

loop_
  _atom_site_label
  _atom_site_occupancy
  _atom_site_fract_x
  _atom_site_fract_y
  _atom_site_fract_z
  _atom_site_thermal_displace_type
  _atom_site_B_iso_or_equiv
  _atom_site_type_symbol
  O1       1.0000 0.13380  0.80810  0.24380  Biso   1.000  O
  O2       1.0000 0.06120  0.88110  0.21230  Biso   1.000  O
  N1       1.0000 0.99790  0.65150  0.01120  Biso   1.000  N
  H1       1.0000 0.96110  0.66490  0.99380  Biso   1.000  H
  N2       1.0000 0.99010  0.57600  0.93130  Biso   1.000  N
  C1       1.0000 0.08730  0.82700  0.20740  Biso   1.000  C
  C2       1.0000 0.06560  0.77990  0.15610  Biso   1.000  C
  C3       1.0000 0.01460  0.79600  0.11450  Biso   1.000  C
  H2       1.0000 0.99430  0.83740  0.11820  Biso   1.000  H
  C4       1.0000 0.99330  0.75280  0.06810  Biso   1.000  C
  H3       1.0000 0.95860  0.76480  0.03970  Biso   1.000  H
  C5       1.0000 0.02230  0.69050  0.06210  Biso   1.000  C
  C6       1.0000 0.07410  0.67570  0.10460  Biso   1.000  C
  H4       1.0000 0.09580  0.63490  0.10080  Biso   1.000  H
  C7       1.0000 0.09330  0.71860  0.15070  Biso   1.000  C
  H5       1.0000 0.12670  0.70630  0.18030  Biso   1.000  H
  C8       1.0000 0.02310  0.59620  0.98520  Biso   1.000  C
  O3       1.0000 0.36620  0.19190  0.74380  Biso   1.000  O
  O4       1.0000 0.43880  0.11890  0.71230  Biso   1.000  O
  N3       1.0000 0.50210  0.34850  0.51120  Biso   1.000  N
  H6       1.0000 0.53890  0.33510  0.49380  Biso   1.000  H
  N4       1.0000 0.50990  0.42400  0.43130  Biso   1.000  N
  C9       1.0000 0.41270  0.17300  0.70740  Biso   1.000  C
  C10      1.0000 0.43440  0.22010  0.65610  Biso   1.000  C
  C11      1.0000 0.48540  0.20400  0.61450  Biso   1.000  C
  H7       1.0000 0.50570  0.16260  0.61820  Biso   1.000  H
  C12      1.0000 0.50670  0.24720  0.56810  Biso   1.000  C
  H8       1.0000 0.54140  0.23520  0.53970  Biso   1.000  H
  C13      1.0000 0.47770  0.30950  0.56210  Biso   1.000  C
  C14      1.0000 0.42590  0.32430  0.60460  Biso   1.000  C
  H9       1.0000 0.40420  0.36510  0.60080  Biso   1.000  H
  C15      1.0000 0.40670  0.28140  0.65070  Biso   1.000  C
  H10      1.0000 0.37330  0.29370  0.68030  Biso   1.000  H
  C16      1.0000 0.47690  0.40380  0.48520  Biso   1.000  C
  O5       1.0000 0.86620  0.30810  0.25620  Biso   1.000  O
  O6       1.0000 0.93880  0.38110  0.28770  Biso   1.000  O
  N5       1.0000 0.00210  0.15150  0.48880  Biso   1.000  N
  H11      1.0000 0.03890  0.16490  0.50620  Biso   1.000  H
  N6       1.0000 0.00990  0.07600  0.56870  Biso   1.000  N
  C17      1.0000 0.91270  0.32700  0.29260  Biso   1.000  C
  C18      1.0000 0.93440  0.27990  0.34390  Biso   1.000  C
  C19      1.0000 0.98540  0.29600  0.38550  Biso   1.000  C
  H12      1.0000 0.00570  0.33740  0.38180  Biso   1.000  H
  C20      1.0000 0.00670  0.25280  0.43190  Biso   1.000  C
  H13      1.0000 0.04140  0.26480  0.46030  Biso   1.000  H
  C21      1.0000 0.97770  0.19050  0.43790  Biso   1.000  C
  C22      1.0000 0.92590  0.17570  0.39540  Biso   1.000  C
  H14      1.0000 0.90420  0.13490  0.39920  Biso   1.000  H
  C23      1.0000 0.90670  0.21860  0.34930  Biso   1.000  C
  H15      1.0000 0.87330  0.20630  0.31970  Biso   1.000  H
  C24      1.0000 0.97690  0.09620  0.51480  Biso   1.000  C
  O7       1.0000 0.63380  0.69190  0.75620  Biso   1.000  O
  O8       1.0000 0.56120  0.61890  0.78770  Biso   1.000  O
  N7       1.0000 0.49790  0.84850  0.98880  Biso   1.000  N
  H16      1.0000 0.46110  0.83510  0.00620  Biso   1.000  H
  N8       1.0000 0.49010  0.92400  0.06870  Biso   1.000  N
  C25      1.0000 0.58730  0.67300  0.79260  Biso   1.000  C
  C26      1.0000 0.56560  0.72010  0.84390  Biso   1.000  C
  C27      1.0000 0.51460  0.70400  0.88550  Biso   1.000  C
  H17      1.0000 0.49430  0.66260  0.88180  Biso   1.000  H
  C28      1.0000 0.49330  0.74720  0.93190  Biso   1.000  C
  H18      1.0000 0.45860  0.73520  0.96030  Biso   1.000  H
  C29      1.0000 0.52230  0.80950  0.93790  Biso   1.000  C
  C30      1.0000 0.57410  0.82430  0.89540  Biso   1.000  C
  H19      1.0000 0.59580  0.86510  0.89920  Biso   1.000  H
  C31      1.0000 0.59330  0.78140  0.84930  Biso   1.000  C
  H20      1.0000 0.62670  0.79370  0.81970  Biso   1.000  H
  C32      1.0000 0.52310  0.90380  0.01480  Biso   1.000  C
  O9       1.0000 0.24380  0.13380  0.80810  Biso   1.000  O
  O10      1.0000 0.21230  0.06120  0.88110  Biso   1.000  O
  N9       1.0000 0.01120  0.99790  0.65150  Biso   1.000  N
  H21      1.0000 0.99380  0.96110  0.66490  Biso   1.000  H
  N10      1.0000 0.93130  0.99010  0.57600  Biso   1.000  N
  C33      1.0000 0.20740  0.08730  0.82700  Biso   1.000  C
  C34      1.0000 0.15610  0.06560  0.77990  Biso   1.000  C
  C35      1.0000 0.11450  0.01460  0.79600  Biso   1.000  C
  H22      1.0000 0.11820  0.99430  0.83740  Biso   1.000  H
  C36      1.0000 0.06810  0.99330  0.75280  Biso   1.000  C
  H23      1.0000 0.03970  0.95860  0.76480  Biso   1.000  H
  C37      1.0000 0.06210  0.02230  0.69050  Biso   1.000  C
  C38      1.0000 0.10460  0.07410  0.67570  Biso   1.000  C
  H24      1.0000 0.10080  0.09580  0.63490  Biso   1.000  H
  C39      1.0000 0.15070  0.09330  0.71860  Biso   1.000  C
  H25      1.0000 0.18030  0.12670  0.70630  Biso   1.000  H
  C40      1.0000 0.98520  0.02310  0.59620  Biso   1.000  C
  O11      1.0000 0.74380  0.36620  0.19190  Biso   1.000  O
  O12      1.0000 0.71230  0.43880  0.11890  Biso   1.000  O
  N11      1.0000 0.51120  0.50210  0.34850  Biso   1.000  N
  H26      1.0000 0.49380  0.53890  0.33510  Biso   1.000  H
  N12      1.0000 0.43130  0.50990  0.42400  Biso   1.000  N
  C41      1.0000 0.70740  0.41270  0.17300  Biso   1.000  C
  C42      1.0000 0.65610  0.43440  0.22010  Biso   1.000  C
  C43      1.0000 0.61450  0.48540  0.20400  Biso   1.000  C
  H27      1.0000 0.61820  0.50570  0.16260  Biso   1.000  H
  C44      1.0000 0.56810  0.50670  0.24720  Biso   1.000  C
  H28      1.0000 0.53970  0.54140  0.23520  Biso   1.000  H
  C45      1.0000 0.56210  0.47770  0.30950  Biso   1.000  C
  C46      1.0000 0.60460  0.42590  0.32430  Biso   1.000  C
  H29      1.0000 0.60080  0.40420  0.36510  Biso   1.000  H
  C47      1.0000 0.65070  0.40670  0.28140  Biso   1.000  C
  H30      1.0000 0.68030  0.37330  0.29370  Biso   1.000  H
  C48      1.0000 0.48520  0.47690  0.40380  Biso   1.000  C
  O13      1.0000 0.25620  0.86620  0.30810  Biso   1.000  O
  O14      1.0000 0.28770  0.93880  0.38110  Biso   1.000  O
  N13      1.0000 0.48880  0.00210  0.15150  Biso   1.000  N
  H31      1.0000 0.50620  0.03890  0.16490  Biso   1.000  H
  N14      1.0000 0.56870  0.00990  0.07600  Biso   1.000  N
  C49      1.0000 0.29260  0.91270  0.32700  Biso   1.000  C
  C50      1.0000 0.34390  0.93440  0.27990  Biso   1.000  C
  C51      1.0000 0.38550  0.98540  0.29600  Biso   1.000  C
  H32      1.0000 0.38180  0.00570  0.33740  Biso   1.000  H
  C52      1.0000 0.43190  0.00670  0.25280  Biso   1.000  C
  H33      1.0000 0.46030  0.04140  0.26480  Biso   1.000  H
  C53      1.0000 0.43790  0.97770  0.19050  Biso   1.000  C
  C54      1.0000 0.39540  0.92590  0.17570  Biso   1.000  C
  H34      1.0000 0.39920  0.90420  0.13490  Biso   1.000  H
  C55      1.0000 0.34930  0.90670  0.21860  Biso   1.000  C
  H35      1.0000 0.31970  0.87330  0.20630  Biso   1.000  H
  C56      1.0000 0.51480  0.97690  0.09620  Biso   1.000  C
  O15      1.0000 0.75620  0.63380  0.69190  Biso   1.000  O
  O16      1.0000 0.78770  0.56120  0.61890  Biso   1.000  O
  N15      1.0000 0.98880  0.49790  0.84850  Biso   1.000  N
  H36      1.0000 0.00620  0.46110  0.83510  Biso   1.000  H
  N16      1.0000 0.06870  0.49010  0.92400  Biso   1.000  N
  C57      1.0000 0.79260  0.58730  0.67300  Biso   1.000  C
  C58      1.0000 0.84390  0.56560  0.72010  Biso   1.000  C
  C59      1.0000 0.88550  0.51460  0.70400  Biso   1.000  C
  H37      1.0000 0.88180  0.49430  0.66260  Biso   1.000  H
  C60      1.0000 0.93190  0.49330  0.74720  Biso   1.000  C
  H38      1.0000 0.96030  0.45860  0.73520  Biso   1.000  H
  C61      1.0000 0.93790  0.52230  0.80950  Biso   1.000  C
  C62      1.0000 0.89540  0.57410  0.82430  Biso   1.000  C
  H39      1.0000 0.89920  0.59580  0.86510  Biso   1.000  H
  C63      1.0000 0.84930  0.59330  0.78140  Biso   1.000  C
  H40      1.0000 0.81970  0.62670  0.79370  Biso   1.000  H
  C64      1.0000 0.01480  0.52310  0.90380  Biso   1.000  C
  O17      1.0000 0.80810  0.24380  0.13380  Biso   1.000  O
  O18      1.0000 0.88110  0.21230  0.06120  Biso   1.000  O
  N17      1.0000 0.65150  0.01120  0.99790  Biso   1.000  N
  H41      1.0000 0.66490  0.99380  0.96110  Biso   1.000  H
  N18      1.0000 0.57600  0.93130  0.99010  Biso   1.000  N
  C65      1.0000 0.82700  0.20740  0.08730  Biso   1.000  C
  C66      1.0000 0.77990  0.15610  0.06560  Biso   1.000  C
  C67      1.0000 0.79600  0.11450  0.01460  Biso   1.000  C
  H42      1.0000 0.83740  0.11820  0.99430  Biso   1.000  H
  C68      1.0000 0.75280  0.06810  0.99330  Biso   1.000  C
  H43      1.0000 0.76480  0.03970  0.95860  Biso   1.000  H
  C69      1.0000 0.69050  0.06210  0.02230  Biso   1.000  C
  C70      1.0000 0.67570  0.10460  0.07410  Biso   1.000  C
  H44      1.0000 0.63490  0.10080  0.09580  Biso   1.000  H
  C71      1.0000 0.71860  0.15070  0.09330  Biso   1.000  C
  H45      1.0000 0.70630  0.18030  0.12670  Biso   1.000  H
  C72      1.0000 0.59620  0.98520  0.02310  Biso   1.000  C
  O19      1.0000 0.19190  0.74380  0.36620  Biso   1.000  O
  O20      1.0000 0.11890  0.71230  0.43880  Biso   1.000  O
  N19      1.0000 0.34850  0.51120  0.50210  Biso   1.000  N
  H46      1.0000 0.33510  0.49380  0.53890  Biso   1.000  H
  N20      1.0000 0.42400  0.43130  0.50990  Biso   1.000  N
  C73      1.0000 0.17300  0.70740  0.41270  Biso   1.000  C
  C74      1.0000 0.22010  0.65610  0.43440  Biso   1.000  C
  C75      1.0000 0.20400  0.61450  0.48540  Biso   1.000  C
  H47      1.0000 0.16260  0.61820  0.50570  Biso   1.000  H
  C76      1.0000 0.24720  0.56810  0.50670  Biso   1.000  C
  H48      1.0000 0.23520  0.53970  0.54140  Biso   1.000  H
  C77      1.0000 0.30950  0.56210  0.47770  Biso   1.000  C
  C78      1.0000 0.32430  0.60460  0.42590  Biso   1.000  C
  H49      1.0000 0.36510  0.60080  0.40420  Biso   1.000  H
  C79      1.0000 0.28140  0.65070  0.40670  Biso   1.000  C
  H50      1.0000 0.29370  0.68030  0.37330  Biso   1.000  H
  C80      1.0000 0.40380  0.48520  0.47690  Biso   1.000  C
  O21      1.0000 0.30810  0.25620  0.86620  Biso   1.000  O
  O22      1.0000 0.38110  0.28770  0.93880  Biso   1.000  O
  N21      1.0000 0.15150  0.48880  0.00210  Biso   1.000  N
  H51      1.0000 0.16490  0.50620  0.03890  Biso   1.000  H
  N22      1.0000 0.07600  0.56870  0.00990  Biso   1.000  N
  C81      1.0000 0.32700  0.29260  0.91270  Biso   1.000  C
  C82      1.0000 0.27990  0.34390  0.93440  Biso   1.000  C
  C83      1.0000 0.29600  0.38550  0.98540  Biso   1.000  C
  H52      1.0000 0.33740  0.38180  0.00570  Biso   1.000  H
  C84      1.0000 0.25280  0.43190  0.00670  Biso   1.000  C
  H53      1.0000 0.26480  0.46030  0.04140  Biso   1.000  H
  C85      1.0000 0.19050  0.43790  0.97770  Biso   1.000  C
  C86      1.0000 0.17570  0.39540  0.92590  Biso   1.000  C
  H54      1.0000 0.13490  0.39920  0.90420  Biso   1.000  H
  C87      1.0000 0.21860  0.34930  0.90670  Biso   1.000  C
  H55      1.0000 0.20630  0.31970  0.87330  Biso   1.000  H
  C88      1.0000 0.09620  0.51480  0.97690  Biso   1.000  C
  O23      1.0000 0.69190  0.75620  0.63380  Biso   1.000  O
  O24      1.0000 0.61890  0.78770  0.56120  Biso   1.000  O
  N23      1.0000 0.84850  0.98880  0.49790  Biso   1.000  N
  H56      1.0000 0.83510  0.00620  0.46110  Biso   1.000  H
  N24      1.0000 0.92400  0.06870  0.49010  Biso   1.000  N
  C89      1.0000 0.67300  0.79260  0.58730  Biso   1.000  C
  C90      1.0000 0.72010  0.84390  0.56560  Biso   1.000  C
  C91      1.0000 0.70400  0.88550  0.51460  Biso   1.000  C
  H57      1.0000 0.66260  0.88180  0.49430  Biso   1.000  H
  C92      1.0000 0.74720  0.93190  0.49330  Biso   1.000  C
  H58      1.0000 0.73520  0.96030  0.45860  Biso   1.000  H
  C93      1.0000 0.80950  0.93790  0.52230  Biso   1.000  C
  C94      1.0000 0.82430  0.89540  0.57410  Biso   1.000  C
  H59      1.0000 0.86510  0.89920  0.59580  Biso   1.000  H
  C95      1.0000 0.78140  0.84930  0.59330  Biso   1.000  C
  H60      1.0000 0.79370  0.81970  0.62670  Biso   1.000  H
  C96      1.0000 0.90380  0.01480  0.52310  Biso   1.000  C
  Sm1      1.0000 0.15332  0.84668  0.34668  Biso   1.000  Sm
  Sm2      1.0000 0.34668  0.15332  0.84668  Biso   1.000  Sm
  Sm3      1.0000 0.84668  0.34668  0.15332  Biso   1.000  Sm
  Sm4      1.0000 0.65332  0.65332  0.65332  Biso   1.000  Sm
  O25      1.0000 0.23440  0.61710  0.17940  Biso   1.000  O
  O26      1.0000 0.20860  0.53320  0.11620  Biso   1.000  O
  N25      1.0000 0.00730  0.49040  0.34970  Biso   1.000  N
  H61      1.0000 0.98820  0.45360  0.33840  Biso   1.000  H
  N26      1.0000 0.01160  0.57100  0.42950  Biso   1.000  N
  C97      1.0000 0.20170  0.56620  0.16650  Biso   1.000  C
  C98      1.0000 0.15190  0.54610  0.21690  Biso   1.000  C
  C99      1.0000 0.14700  0.57850  0.27490  Biso   1.000  C
  H62      1.0000 0.17590  0.61360  0.28370  Biso   1.000  H
  C100     1.0000 0.10070  0.56140  0.32110  Biso   1.000  C
  H63      1.0000 0.09840  0.58420  0.36140  Biso   1.000  H
  C101     1.0000 0.05760  0.51040  0.30800  Biso   1.000  C
  C102     1.0000 0.06260  0.47770  0.24830  Biso   1.000  C
  H64      1.0000 0.03330  0.44310  0.23860  Biso   1.000  H
  C103     1.0000 0.10900  0.49480  0.20400  Biso   1.000  C
  H65      1.0000 0.11230  0.47170  0.16400  Biso   1.000  H
  C104     1.0000 0.98330  0.51820  0.40460  Biso   1.000  C
  O27      1.0000 0.26560  0.38290  0.67940  Biso   1.000  O
  O28      1.0000 0.29140  0.46680  0.61620  Biso   1.000  O
  N27      1.0000 0.49270  0.50960  0.84970  Biso   1.000  N
  H66      1.0000 0.51180  0.54640  0.83840  Biso   1.000  H
  N28      1.0000 0.48840  0.42900  0.92950  Biso   1.000  N
  C105     1.0000 0.29830  0.43380  0.66650  Biso   1.000  C
  C106     1.0000 0.34810  0.45390  0.71690  Biso   1.000  C
  C107     1.0000 0.35300  0.42150  0.77490  Biso   1.000  C
  H67      1.0000 0.32410  0.38640  0.78370  Biso   1.000  H
  C108     1.0000 0.39930  0.43860  0.82110  Biso   1.000  C
  H68      1.0000 0.40160  0.41580  0.86140  Biso   1.000  H
  C109     1.0000 0.44240  0.48960  0.80800  Biso   1.000  C
  C110     1.0000 0.43740  0.52230  0.74830  Biso   1.000  C
  H69      1.0000 0.46670  0.55690  0.73860  Biso   1.000  H
  C111     1.0000 0.39100  0.50520  0.70400  Biso   1.000  C
  H70      1.0000 0.38770  0.52830  0.66400  Biso   1.000  H
  C112     1.0000 0.51670  0.48180  0.90460  Biso   1.000  C
  O29      1.0000 0.76560  0.11710  0.32060  Biso   1.000  O
  O30      1.0000 0.79140  0.03320  0.38380  Biso   1.000  O
  N29      1.0000 0.99270  0.99040  0.15030  Biso   1.000  N
  H71      1.0000 0.01180  0.95360  0.16160  Biso   1.000  H
  N30      1.0000 0.98840  0.07100  0.07050  Biso   1.000  N
  C113     1.0000 0.79830  0.06620  0.33350  Biso   1.000  C
  C114     1.0000 0.84810  0.04610  0.28310  Biso   1.000  C
  C115     1.0000 0.85300  0.07850  0.22510  Biso   1.000  C
  H72      1.0000 0.82410  0.11360  0.21630  Biso   1.000  H
  C116     1.0000 0.89930  0.06140  0.17890  Biso   1.000  C
  H73      1.0000 0.90160  0.08420  0.13860  Biso   1.000  H
  C117     1.0000 0.94240  0.01040  0.19200  Biso   1.000  C
  C118     1.0000 0.93740  0.97770  0.25170  Biso   1.000  C
  H74      1.0000 0.96670  0.94310  0.26140  Biso   1.000  H
  C119     1.0000 0.89100  0.99480  0.29600  Biso   1.000  C
  H75      1.0000 0.88770  0.97170  0.33600  Biso   1.000  H
  C120     1.0000 0.01670  0.01820  0.09540  Biso   1.000  C
  O31      1.0000 0.73440  0.88290  0.82060  Biso   1.000  O
  O32      1.0000 0.70860  0.96680  0.88380  Biso   1.000  O
  N31      1.0000 0.50730  0.00960  0.65030  Biso   1.000  N
  H76      1.0000 0.48820  0.04640  0.66160  Biso   1.000  H
  N32      1.0000 0.51160  0.92900  0.57050  Biso   1.000  N
  C121     1.0000 0.70170  0.93380  0.83350  Biso   1.000  C
  C122     1.0000 0.65190  0.95390  0.78310  Biso   1.000  C
  C123     1.0000 0.64700  0.92150  0.72510  Biso   1.000  C
  H77      1.0000 0.67590  0.88640  0.71630  Biso   1.000  H
  C124     1.0000 0.60070  0.93860  0.67890  Biso   1.000  C
  H78      1.0000 0.59840  0.91580  0.63860  Biso   1.000  H
  C125     1.0000 0.55760  0.98960  0.69200  Biso   1.000  C
  C126     1.0000 0.56260  0.02230  0.75170  Biso   1.000  C
  H79      1.0000 0.53330  0.05690  0.76140  Biso   1.000  H
  C127     1.0000 0.60900  0.00520  0.79600  Biso   1.000  C
  H80      1.0000 0.61230  0.02830  0.83600  Biso   1.000  H
  C128     1.0000 0.48330  0.98180  0.59540  Biso   1.000  C
  O33      1.0000 0.17940  0.23440  0.61710  Biso   1.000  O
  O34      1.0000 0.11620  0.20860  0.53320  Biso   1.000  O
  N33      1.0000 0.34970  0.00730  0.49040  Biso   1.000  N
  H81      1.0000 0.33840  0.98820  0.45360  Biso   1.000  H
  N34      1.0000 0.42950  0.01160  0.57100  Biso   1.000  N
  C129     1.0000 0.16650  0.20170  0.56620  Biso   1.000  C
  C130     1.0000 0.21690  0.15190  0.54610  Biso   1.000  C
  C131     1.0000 0.27490  0.14700  0.57850  Biso   1.000  C
  H82      1.0000 0.28370  0.17590  0.61360  Biso   1.000  H
  C132     1.0000 0.32110  0.10070  0.56140  Biso   1.000  C
  H83      1.0000 0.36140  0.09840  0.58420  Biso   1.000  H
  C133     1.0000 0.30800  0.05760  0.51040  Biso   1.000  C
  C134     1.0000 0.24830  0.06260  0.47770  Biso   1.000  C
  H84      1.0000 0.23860  0.03330  0.44310  Biso   1.000  H
  C135     1.0000 0.20400  0.10900  0.49480  Biso   1.000  C
  H85      1.0000 0.16400  0.11230  0.47170  Biso   1.000  H
  C136     1.0000 0.40460  0.98330  0.51820  Biso   1.000  C
  O35      1.0000 0.67940  0.26560  0.38290  Biso   1.000  O
  O36      1.0000 0.61620  0.29140  0.46680  Biso   1.000  O
  N35      1.0000 0.84970  0.49270  0.50960  Biso   1.000  N
  H86      1.0000 0.83840  0.51180  0.54640  Biso   1.000  H
  N36      1.0000 0.92950  0.48840  0.42900  Biso   1.000  N
  C137     1.0000 0.66650  0.29830  0.43380  Biso   1.000  C
  C138     1.0000 0.71690  0.34810  0.45390  Biso   1.000  C
  C139     1.0000 0.77490  0.35300  0.42150  Biso   1.000  C
  H87      1.0000 0.78370  0.32410  0.38640  Biso   1.000  H
  C140     1.0000 0.82110  0.39930  0.43860  Biso   1.000  C
  H88      1.0000 0.86140  0.40160  0.41580  Biso   1.000  H
  C141     1.0000 0.80800  0.44240  0.48960  Biso   1.000  C
  C142     1.0000 0.74830  0.43740  0.52230  Biso   1.000  C
  H89      1.0000 0.73860  0.46670  0.55690  Biso   1.000  H
  C143     1.0000 0.70400  0.39100  0.50520  Biso   1.000  C
  H90      1.0000 0.66400  0.38770  0.52830  Biso   1.000  H
  C144     1.0000 0.90460  0.51670  0.48180  Biso   1.000  C
  O37      1.0000 0.32060  0.76560  0.11710  Biso   1.000  O
  O38      1.0000 0.38380  0.79140  0.03320  Biso   1.000  O
  N37      1.0000 0.15030  0.99270  0.99040  Biso   1.000  N
  H91      1.0000 0.16160  0.01180  0.95360  Biso   1.000  H
  N38      1.0000 0.07050  0.98840  0.07100  Biso   1.000  N
  C145     1.0000 0.33350  0.79830  0.06620  Biso   1.000  C
  C146     1.0000 0.28310  0.84810  0.04610  Biso   1.000  C
  C147     1.0000 0.22510  0.85300  0.07850  Biso   1.000  C
  H92      1.0000 0.21630  0.82410  0.11360  Biso   1.000  H
  C148     1.0000 0.17890  0.89930  0.06140  Biso   1.000  C
  H93      1.0000 0.13860  0.90160  0.08420  Biso   1.000  H
  C149     1.0000 0.19200  0.94240  0.01040  Biso   1.000  C
  C150     1.0000 0.25170  0.93740  0.97770  Biso   1.000  C
  H94      1.0000 0.26140  0.96670  0.94310  Biso   1.000  H
  C151     1.0000 0.29600  0.89100  0.99480  Biso   1.000  C
  H95      1.0000 0.33600  0.88770  0.97170  Biso   1.000  H
  C152     1.0000 0.09540  0.01670  0.01820  Biso   1.000  C
  O39      1.0000 0.82060  0.73440  0.88290  Biso   1.000  O
  O40      1.0000 0.88380  0.70860  0.96680  Biso   1.000  O
  N39      1.0000 0.65030  0.50730  0.00960  Biso   1.000  N
  H96      1.0000 0.66160  0.48820  0.04640  Biso   1.000  H
  N40      1.0000 0.57050  0.51160  0.92900  Biso   1.000  N
  C153     1.0000 0.83350  0.70170  0.93380  Biso   1.000  C
  C154     1.0000 0.78310  0.65190  0.95390  Biso   1.000  C
  C155     1.0000 0.72510  0.64700  0.92150  Biso   1.000  C
  H97      1.0000 0.71630  0.67590  0.88640  Biso   1.000  H
  C156     1.0000 0.67890  0.60070  0.93860  Biso   1.000  C
  H98      1.0000 0.63860  0.59840  0.91580  Biso   1.000  H
  C157     1.0000 0.69200  0.55760  0.98960  Biso   1.000  C
  C158     1.0000 0.75170  0.56260  0.02230  Biso   1.000  C
  H99      1.0000 0.76140  0.53330  0.05690  Biso   1.000  H
  C159     1.0000 0.79600  0.60900  0.00520  Biso   1.000  C
  H100     1.0000 0.83600  0.61230  0.02830  Biso   1.000  H
  C160     1.0000 0.59540  0.48330  0.98180  Biso   1.000  C
  O41      1.0000 0.61710  0.17940  0.23440  Biso   1.000  O
  O42      1.0000 0.53320  0.11620  0.20860  Biso   1.000  O
  N41      1.0000 0.49040  0.34970  0.00730  Biso   1.000  N
  H101     1.0000 0.45360  0.33840  0.98820  Biso   1.000  H
  N42      1.0000 0.57100  0.42950  0.01160  Biso   1.000  N
  C161     1.0000 0.56620  0.16650  0.20170  Biso   1.000  C
  C162     1.0000 0.54610  0.21690  0.15190  Biso   1.000  C
  C163     1.0000 0.57850  0.27490  0.14700  Biso   1.000  C
  H102     1.0000 0.61360  0.28370  0.17590  Biso   1.000  H
  C164     1.0000 0.56140  0.32110  0.10070  Biso   1.000  C
  H103     1.0000 0.58420  0.36140  0.09840  Biso   1.000  H
  C165     1.0000 0.51040  0.30800  0.05760  Biso   1.000  C
  C166     1.0000 0.47770  0.24830  0.06260  Biso   1.000  C
  H104     1.0000 0.44310  0.23860  0.03330  Biso   1.000  H
  C167     1.0000 0.49480  0.20400  0.10900  Biso   1.000  C
  H105     1.0000 0.47170  0.16400  0.11230  Biso   1.000  H
  C168     1.0000 0.51820  0.40460  0.98330  Biso   1.000  C
  O43      1.0000 0.38290  0.67940  0.26560  Biso   1.000  O
  O44      1.0000 0.46680  0.61620  0.29140  Biso   1.000  O
  N43      1.0000 0.50960  0.84970  0.49270  Biso   1.000  N
  H106     1.0000 0.54640  0.83840  0.51180  Biso   1.000  H
  N44      1.0000 0.42900  0.92950  0.48840  Biso   1.000  N
  C169     1.0000 0.43380  0.66650  0.29830  Biso   1.000  C
  C170     1.0000 0.45390  0.71690  0.34810  Biso   1.000  C
  C171     1.0000 0.42150  0.77490  0.35300  Biso   1.000  C
  H107     1.0000 0.38640  0.78370  0.32410  Biso   1.000  H
  C172     1.0000 0.43860  0.82110  0.39930  Biso   1.000  C
  H108     1.0000 0.41580  0.86140  0.40160  Biso   1.000  H
  C173     1.0000 0.48960  0.80800  0.44240  Biso   1.000  C
  C174     1.0000 0.52230  0.74830  0.43740  Biso   1.000  C
  H109     1.0000 0.55690  0.73860  0.46670  Biso   1.000  H
  C175     1.0000 0.50520  0.70400  0.39100  Biso   1.000  C
  H110     1.0000 0.52830  0.66400  0.38770  Biso   1.000  H
  C176     1.0000 0.48180  0.90460  0.51670  Biso   1.000  C
  O45      1.0000 0.11710  0.32060  0.76560  Biso   1.000  O
  O46      1.0000 0.03320  0.38380  0.79140  Biso   1.000  O
  N45      1.0000 0.99040  0.15030  0.99270  Biso   1.000  N
  H111     1.0000 0.95360  0.16160  0.01180  Biso   1.000  H
  N46      1.0000 0.07100  0.07050  0.98840  Biso   1.000  N
  C177     1.0000 0.06620  0.33350  0.79830  Biso   1.000  C
  C178     1.0000 0.04610  0.28310  0.84810  Biso   1.000  C
  C179     1.0000 0.07850  0.22510  0.85300  Biso   1.000  C
  H112     1.0000 0.11360  0.21630  0.82410  Biso   1.000  H
  C180     1.0000 0.06140  0.17890  0.89930  Biso   1.000  C
  H113     1.0000 0.08420  0.13860  0.90160  Biso   1.000  H
  C181     1.0000 0.01040  0.19200  0.94240  Biso   1.000  C
  C182     1.0000 0.97770  0.25170  0.93740  Biso   1.000  C
  H114     1.0000 0.94310  0.26140  0.96670  Biso   1.000  H
  C183     1.0000 0.99480  0.29600  0.89100  Biso   1.000  C
  H115     1.0000 0.97170  0.33600  0.88770  Biso   1.000  H
  C184     1.0000 0.01820  0.09540  0.01670  Biso   1.000  C
  O47      1.0000 0.88290  0.82060  0.73440  Biso   1.000  O
  O48      1.0000 0.96680  0.88380  0.70860  Biso   1.000  O
  N47      1.0000 0.00960  0.65030  0.50730  Biso   1.000  N
  H116     1.0000 0.04640  0.66160  0.48820  Biso   1.000  H
  N48      1.0000 0.92900  0.57050  0.51160  Biso   1.000  N
  C185     1.0000 0.93380  0.83350  0.70170  Biso   1.000  C
  C186     1.0000 0.95390  0.78310  0.65190  Biso   1.000  C
  C187     1.0000 0.92150  0.72510  0.64700  Biso   1.000  C
  H117     1.0000 0.88640  0.71630  0.67590  Biso   1.000  H
  C188     1.0000 0.93860  0.67890  0.60070  Biso   1.000  C
  H118     1.0000 0.91580  0.63860  0.59840  Biso   1.000  H
  C189     1.0000 0.98960  0.69200  0.55760  Biso   1.000  C
  C190     1.0000 0.02230  0.75170  0.56260  Biso   1.000  C
  H119     1.0000 0.05690  0.76140  0.53330  Biso   1.000  H
  C191     1.0000 0.00520  0.79600  0.60900  Biso   1.000  C
  H120     1.0000 0.02830  0.83600  0.61230  Biso   1.000  H
  C192     1.0000 0.98180  0.59540  0.48330  Biso   1.000  C
  Sm5      1.0000 0.33357  0.66643  0.16643  Biso   1.000  Sm
  Sm6      1.0000 0.16643  0.33357  0.66643  Biso   1.000  Sm
  Sm7      1.0000 0.66643  0.16643  0.33357  Biso   1.000  Sm
  Sm8      1.0000 0.83357  0.83357  0.83357  Biso   1.000  Sm
