data_image0
_cell_length_a       20.501
_cell_length_b       20.501
_cell_length_c       20.501
_cell_angle_alpha    90
_cell_angle_beta     90
_cell_angle_gamma    90

_symmetry_space_group_name_H-M    "P 1"
_symmetry_int_tables_number       1

loop_
  _symmetry_equiv_pos_as_xyz
  'x, y, z'

loop_
  _atom_site_label
  _atom_site_occupancy
  _atom_site_fract_x
  _atom_site_fract_y
  _atom_site_fract_z
  _atom_site_thermal_displace_type
  _atom_site_B_iso_or_equiv
  _atom_site_type_symbol
  O1       1.0000 0.13340  0.81010  0.24250  Biso   1.000  O
  O2       1.0000 0.05870  0.88150  0.21170  Biso   1.000  O
  N1       1.0000 0.99630  0.65070  0.01300  Biso   1.000  N
  H1       1.0000 0.95900  0.66320  0.99590  Biso   1.000  H
  N2       1.0000 0.98880  0.57450  0.93200  Biso   1.000  N
  C1       1.0000 0.08650  0.82790  0.20730  Biso   1.000  C
  C2       1.0000 0.06380  0.78060  0.15660  Biso   1.000  C
  C3       1.0000 0.01390  0.79590  0.11450  Biso   1.000  C
  H2       1.0000 0.99410  0.83770  0.11690  Biso   1.000  H
  C4       1.0000 0.99210  0.75160  0.06890  Biso   1.000  C
  H3       1.0000 0.95690  0.76320  0.04110  Biso   1.000  H
  C5       1.0000 0.02040  0.69070  0.06280  Biso   1.000  C
  C6       1.0000 0.07160  0.67510  0.10480  Biso   1.000  C
  H4       1.0000 0.09190  0.63350  0.10190  Biso   1.000  H
  C7       1.0000 0.09250  0.71840  0.14950  Biso   1.000  C
  H5       1.0000 0.12770  0.70670  0.17730  Biso   1.000  H
  C8       1.0000 0.02230  0.59460  0.98680  Biso   1.000  C
  O3       1.0000 0.36660  0.18990  0.74250  Biso   1.000  O
  O4       1.0000 0.44130  0.11850  0.71170  Biso   1.000  O
  N3       1.0000 0.50370  0.34930  0.51300  Biso   1.000  N
  H6       1.0000 0.54100  0.33680  0.49590  Biso   1.000  H
  N4       1.0000 0.51120  0.42550  0.43200  Biso   1.000  N
  C9       1.0000 0.41350  0.17210  0.70730  Biso   1.000  C
  C10      1.0000 0.43620  0.21940  0.65660  Biso   1.000  C
  C11      1.0000 0.48610  0.20410  0.61450  Biso   1.000  C
  H7       1.0000 0.50590  0.16230  0.61690  Biso   1.000  H
  C12      1.0000 0.50790  0.24840  0.56890  Biso   1.000  C
  H8       1.0000 0.54310  0.23680  0.54110  Biso   1.000  H
  C13      1.0000 0.47960  0.30930  0.56280  Biso   1.000  C
  C14      1.0000 0.42840  0.32490  0.60480  Biso   1.000  C
  H9       1.0000 0.40810  0.36650  0.60190  Biso   1.000  H
  C15      1.0000 0.40750  0.28160  0.64950  Biso   1.000  C
  H10      1.0000 0.37230  0.29330  0.67730  Biso   1.000  H
  C16      1.0000 0.47770  0.40540  0.48680  Biso   1.000  C
  O5       1.0000 0.86660  0.31010  0.25750  Biso   1.000  O
  O6       1.0000 0.94130  0.38150  0.28830  Biso   1.000  O
  N5       1.0000 0.00370  0.15070  0.48700  Biso   1.000  N
  H11      1.0000 0.04100  0.16320  0.50410  Biso   1.000  H
  N6       1.0000 0.01120  0.07450  0.56800  Biso   1.000  N
  C17      1.0000 0.91350  0.32790  0.29270  Biso   1.000  C
  C18      1.0000 0.93620  0.28060  0.34340  Biso   1.000  C
  C19      1.0000 0.98610  0.29590  0.38550  Biso   1.000  C
  H12      1.0000 0.00590  0.33770  0.38310  Biso   1.000  H
  C20      1.0000 0.00790  0.25160  0.43110  Biso   1.000  C
  H13      1.0000 0.04310  0.26320  0.45890  Biso   1.000  H
  C21      1.0000 0.97960  0.19070  0.43720  Biso   1.000  C
  C22      1.0000 0.92840  0.17510  0.39520  Biso   1.000  C
  H14      1.0000 0.90810  0.13350  0.39810  Biso   1.000  H
  C23      1.0000 0.90750  0.21840  0.35050  Biso   1.000  C
  H15      1.0000 0.87230  0.20670  0.32270  Biso   1.000  H
  C24      1.0000 0.97770  0.09460  0.51320  Biso   1.000  C
  O7       1.0000 0.63340  0.68990  0.75750  Biso   1.000  O
  O8       1.0000 0.55870  0.61850  0.78830  Biso   1.000  O
  N7       1.0000 0.49630  0.84930  0.98700  Biso   1.000  N
  H16      1.0000 0.45900  0.83680  0.00410  Biso   1.000  H
  N8       1.0000 0.48880  0.92550  0.06800  Biso   1.000  N
  C25      1.0000 0.58650  0.67210  0.79270  Biso   1.000  C
  C26      1.0000 0.56380  0.71940  0.84340  Biso   1.000  C
  C27      1.0000 0.51390  0.70410  0.88550  Biso   1.000  C
  H17      1.0000 0.49410  0.66230  0.88310  Biso   1.000  H
  C28      1.0000 0.49210  0.74840  0.93110  Biso   1.000  C
  H18      1.0000 0.45690  0.73680  0.95890  Biso   1.000  H
  C29      1.0000 0.52040  0.80930  0.93720  Biso   1.000  C
  C30      1.0000 0.57160  0.82490  0.89520  Biso   1.000  C
  H19      1.0000 0.59190  0.86650  0.89810  Biso   1.000  H
  C31      1.0000 0.59250  0.78160  0.85050  Biso   1.000  C
  H20      1.0000 0.62770  0.79330  0.82270  Biso   1.000  H
  C32      1.0000 0.52230  0.90540  0.01320  Biso   1.000  C
  O9       1.0000 0.24250  0.13340  0.81010  Biso   1.000  O
  O10      1.0000 0.21170  0.05870  0.88150  Biso   1.000  O
  N9       1.0000 0.01300  0.99630  0.65070  Biso   1.000  N
  H21      1.0000 0.99590  0.95900  0.66320  Biso   1.000  H
  N10      1.0000 0.93200  0.98880  0.57450  Biso   1.000  N
  C33      1.0000 0.20730  0.08650  0.82790  Biso   1.000  C
  C34      1.0000 0.15660  0.06380  0.78060  Biso   1.000  C
  C35      1.0000 0.11450  0.01390  0.79590  Biso   1.000  C
  H22      1.0000 0.11690  0.99410  0.83770  Biso   1.000  H
  C36      1.0000 0.06890  0.99210  0.75160  Biso   1.000  C
  H23      1.0000 0.04110  0.95690  0.76320  Biso   1.000  H
  C37      1.0000 0.06280  0.02040  0.69070  Biso   1.000  C
  C38      1.0000 0.10480  0.07160  0.67510  Biso   1.000  C
  H24      1.0000 0.10190  0.09190  0.63350  Biso   1.000  H
  C39      1.0000 0.14950  0.09250  0.71840  Biso   1.000  C
  H25      1.0000 0.17730  0.12770  0.70670  Biso   1.000  H
  C40      1.0000 0.98680  0.02230  0.59460  Biso   1.000  C
  O11      1.0000 0.74250  0.36660  0.18990  Biso   1.000  O
  O12      1.0000 0.71170  0.44130  0.11850  Biso   1.000  O
  N11      1.0000 0.51300  0.50370  0.34930  Biso   1.000  N
  H26      1.0000 0.49590  0.54100  0.33680  Biso   1.000  H
  N12      1.0000 0.43200  0.51120  0.42550  Biso   1.000  N
  C41      1.0000 0.70730  0.41350  0.17210  Biso   1.000  C
  C42      1.0000 0.65660  0.43620  0.21940  Biso   1.000  C
  C43      1.0000 0.61450  0.48610  0.20410  Biso   1.000  C
  H27      1.0000 0.61690  0.50590  0.16230  Biso   1.000  H
  C44      1.0000 0.56890  0.50790  0.24840  Biso   1.000  C
  H28      1.0000 0.54110  0.54310  0.23680  Biso   1.000  H
  C45      1.0000 0.56280  0.47960  0.30930  Biso   1.000  C
  C46      1.0000 0.60480  0.42840  0.32490  Biso   1.000  C
  H29      1.0000 0.60190  0.40810  0.36650  Biso   1.000  H
  C47      1.0000 0.64950  0.40750  0.28160  Biso   1.000  C
  H30      1.0000 0.67730  0.37230  0.29330  Biso   1.000  H
  C48      1.0000 0.48680  0.47770  0.40540  Biso   1.000  C
  O13      1.0000 0.25750  0.86660  0.31010  Biso   1.000  O
  O14      1.0000 0.28830  0.94130  0.38150  Biso   1.000  O
  N13      1.0000 0.48700  0.00370  0.15070  Biso   1.000  N
  H31      1.0000 0.50410  0.04100  0.16320  Biso   1.000  H
  N14      1.0000 0.56800  0.01120  0.07450  Biso   1.000  N
  C49      1.0000 0.29270  0.91350  0.32790  Biso   1.000  C
  C50      1.0000 0.34340  0.93620  0.28060  Biso   1.000  C
  C51      1.0000 0.38550  0.98610  0.29590  Biso   1.000  C
  H32      1.0000 0.38310  0.00590  0.33770  Biso   1.000  H
  C52      1.0000 0.43110  0.00790  0.25160  Biso   1.000  C
  H33      1.0000 0.45890  0.04310  0.26320  Biso   1.000  H
  C53      1.0000 0.43720  0.97960  0.19070  Biso   1.000  C
  C54      1.0000 0.39520  0.92840  0.17510  Biso   1.000  C
  H34      1.0000 0.39810  0.90810  0.13350  Biso   1.000  H
  C55      1.0000 0.35050  0.90750  0.21840  Biso   1.000  C
  H35      1.0000 0.32270  0.87230  0.20670  Biso   1.000  H
  C56      1.0000 0.51320  0.97770  0.09460  Biso   1.000  C
  O15      1.0000 0.75750  0.63340  0.68990  Biso   1.000  O
  O16      1.0000 0.78830  0.55870  0.61850  Biso   1.000  O
  N15      1.0000 0.98700  0.49630  0.84930  Biso   1.000  N
  H36      1.0000 0.00410  0.45900  0.83680  Biso   1.000  H
  N16      1.0000 0.06800  0.48880  0.92550  Biso   1.000  N
  C57      1.0000 0.79270  0.58650  0.67210  Biso   1.000  C
  C58      1.0000 0.84340  0.56380  0.71940  Biso   1.000  C
  C59      1.0000 0.88550  0.51390  0.70410  Biso   1.000  C
  H37      1.0000 0.88310  0.49410  0.66230  Biso   1.000  H
  C60      1.0000 0.93110  0.49210  0.74840  Biso   1.000  C
  H38      1.0000 0.95890  0.45690  0.73680  Biso   1.000  H
  C61      1.0000 0.93720  0.52040  0.80930  Biso   1.000  C
  C62      1.0000 0.89520  0.57160  0.82490  Biso   1.000  C
  H39      1.0000 0.89810  0.59190  0.86650  Biso   1.000  H
  C63      1.0000 0.85050  0.59250  0.78160  Biso   1.000  C
  H40      1.0000 0.82270  0.62770  0.79330  Biso   1.000  H
  C64      1.0000 0.01320  0.52230  0.90540  Biso   1.000  C
  O17      1.0000 0.81010  0.24250  0.13340  Biso   1.000  O
  O18      1.0000 0.88150  0.21170  0.05870  Biso   1.000  O
  N17      1.0000 0.65070  0.01300  0.99630  Biso   1.000  N
  H41      1.0000 0.66320  0.99590  0.95900  Biso   1.000  H
  N18      1.0000 0.57450  0.93200  0.98880  Biso   1.000  N
  C65      1.0000 0.82790  0.20730  0.08650  Biso   1.000  C
  C66      1.0000 0.78060  0.15660  0.06380  Biso   1.000  C
  C67      1.0000 0.79590  0.11450  0.01390  Biso   1.000  C
  H42      1.0000 0.83770  0.11690  0.99410  Biso   1.000  H
  C68      1.0000 0.75160  0.06890  0.99210  Biso   1.000  C
  H43      1.0000 0.76320  0.04110  0.95690  Biso   1.000  H
  C69      1.0000 0.69070  0.06280  0.02040  Biso   1.000  C
  C70      1.0000 0.67510  0.10480  0.07160  Biso   1.000  C
  H44      1.0000 0.63350  0.10190  0.09190  Biso   1.000  H
  C71      1.0000 0.71840  0.14950  0.09250  Biso   1.000  C
  H45      1.0000 0.70670  0.17730  0.12770  Biso   1.000  H
  C72      1.0000 0.59460  0.98680  0.02230  Biso   1.000  C
  O19      1.0000 0.18990  0.74250  0.36660  Biso   1.000  O
  O20      1.0000 0.11850  0.71170  0.44130  Biso   1.000  O
  N19      1.0000 0.34930  0.51300  0.50370  Biso   1.000  N
  H46      1.0000 0.33680  0.49590  0.54100  Biso   1.000  H
  N20      1.0000 0.42550  0.43200  0.51120  Biso   1.000  N
  C73      1.0000 0.17210  0.70730  0.41350  Biso   1.000  C
  C74      1.0000 0.21940  0.65660  0.43620  Biso   1.000  C
  C75      1.0000 0.20410  0.61450  0.48610  Biso   1.000  C
  H47      1.0000 0.16230  0.61690  0.50590  Biso   1.000  H
  C76      1.0000 0.24840  0.56890  0.50790  Biso   1.000  C
  H48      1.0000 0.23680  0.54110  0.54310  Biso   1.000  H
  C77      1.0000 0.30930  0.56280  0.47960  Biso   1.000  C
  C78      1.0000 0.32490  0.60480  0.42840  Biso   1.000  C
  H49      1.0000 0.36650  0.60190  0.40810  Biso   1.000  H
  C79      1.0000 0.28160  0.64950  0.40750  Biso   1.000  C
  H50      1.0000 0.29330  0.67730  0.37230  Biso   1.000  H
  C80      1.0000 0.40540  0.48680  0.47770  Biso   1.000  C
  O21      1.0000 0.31010  0.25750  0.86660  Biso   1.000  O
  O22      1.0000 0.38150  0.28830  0.94130  Biso   1.000  O
  N21      1.0000 0.15070  0.48700  0.00370  Biso   1.000  N
  H51      1.0000 0.16320  0.50410  0.04100  Biso   1.000  H
  N22      1.0000 0.07450  0.56800  0.01120  Biso   1.000  N
  C81      1.0000 0.32790  0.29270  0.91350  Biso   1.000  C
  C82      1.0000 0.28060  0.34340  0.93620  Biso   1.000  C
  C83      1.0000 0.29590  0.38550  0.98610  Biso   1.000  C
  H52      1.0000 0.33770  0.38310  0.00590  Biso   1.000  H
  C84      1.0000 0.25160  0.43110  0.00790  Biso   1.000  C
  H53      1.0000 0.26320  0.45890  0.04310  Biso   1.000  H
  C85      1.0000 0.19070  0.43720  0.97960  Biso   1.000  C
  C86      1.0000 0.17510  0.39520  0.92840  Biso   1.000  C
  H54      1.0000 0.13350  0.39810  0.90810  Biso   1.000  H
  C87      1.0000 0.21840  0.35050  0.90750  Biso   1.000  C
  H55      1.0000 0.20670  0.32270  0.87230  Biso   1.000  H
  C88      1.0000 0.09460  0.51320  0.97770  Biso   1.000  C
  O23      1.0000 0.68990  0.75750  0.63340  Biso   1.000  O
  O24      1.0000 0.61850  0.78830  0.55870  Biso   1.000  O
  N23      1.0000 0.84930  0.98700  0.49630  Biso   1.000  N
  H56      1.0000 0.83680  0.00410  0.45900  Biso   1.000  H
  N24      1.0000 0.92550  0.06800  0.48880  Biso   1.000  N
  C89      1.0000 0.67210  0.79270  0.58650  Biso   1.000  C
  C90      1.0000 0.71940  0.84340  0.56380  Biso   1.000  C
  C91      1.0000 0.70410  0.88550  0.51390  Biso   1.000  C
  H57      1.0000 0.66230  0.88310  0.49410  Biso   1.000  H
  C92      1.0000 0.74840  0.93110  0.49210  Biso   1.000  C
  H58      1.0000 0.73680  0.95890  0.45690  Biso   1.000  H
  C93      1.0000 0.80930  0.93720  0.52040  Biso   1.000  C
  C94      1.0000 0.82490  0.89520  0.57160  Biso   1.000  C
  H59      1.0000 0.86650  0.89810  0.59190  Biso   1.000  H
  C95      1.0000 0.78160  0.85050  0.59250  Biso   1.000  C
  H60      1.0000 0.79330  0.82270  0.62770  Biso   1.000  H
  C96      1.0000 0.90540  0.01320  0.52230  Biso   1.000  C
  Eu1      1.0000 0.15433  0.84567  0.34567  Biso   1.000  Eu
  Eu2      1.0000 0.34567  0.15433  0.84567  Biso   1.000  Eu
  Eu3      1.0000 0.84567  0.34567  0.15433  Biso   1.000  Eu
  Eu4      1.0000 0.65433  0.65433  0.65433  Biso   1.000  Eu
  O25      1.0000 0.23530  0.61780  0.18040  Biso   1.000  O
  O26      1.0000 0.20860  0.53420  0.11600  Biso   1.000  O
  N25      1.0000 0.00810  0.49010  0.35130  Biso   1.000  N
  H61      1.0000 0.98980  0.45270  0.34070  Biso   1.000  H
  N26      1.0000 0.01170  0.57160  0.42940  Biso   1.000  N
  C97      1.0000 0.20170  0.56650  0.16660  Biso   1.000  C
  C98      1.0000 0.15250  0.54750  0.21630  Biso   1.000  C
  C99      1.0000 0.14810  0.57970  0.27480  Biso   1.000  C
  H62      1.0000 0.17750  0.61430  0.28420  Biso   1.000  H
  C100     1.0000 0.10050  0.56210  0.32110  Biso   1.000  C
  H63      1.0000 0.09730  0.58520  0.36120  Biso   1.000  H
  C101     1.0000 0.05850  0.51100  0.30790  Biso   1.000  C
  C102     1.0000 0.06440  0.47890  0.24870  Biso   1.000  C
  H64      1.0000 0.03560  0.44380  0.23910  Biso   1.000  H
  C103     1.0000 0.10950  0.49610  0.20450  Biso   1.000  C
  H65      1.0000 0.11220  0.47280  0.16450  Biso   1.000  H
  C104     1.0000 0.98400  0.51770  0.40480  Biso   1.000  C
  O27      1.0000 0.26470  0.38220  0.68040  Biso   1.000  O
  O28      1.0000 0.29140  0.46580  0.61600  Biso   1.000  O
  N27      1.0000 0.49190  0.50990  0.85130  Biso   1.000  N
  H66      1.0000 0.51020  0.54730  0.84070  Biso   1.000  H
  N28      1.0000 0.48830  0.42840  0.92940  Biso   1.000  N
  C105     1.0000 0.29830  0.43350  0.66660  Biso   1.000  C
  C106     1.0000 0.34750  0.45250  0.71630  Biso   1.000  C
  C107     1.0000 0.35190  0.42030  0.77480  Biso   1.000  C
  H67      1.0000 0.32250  0.38570  0.78420  Biso   1.000  H
  C108     1.0000 0.39950  0.43790  0.82110  Biso   1.000  C
  H68      1.0000 0.40270  0.41480  0.86120  Biso   1.000  H
  C109     1.0000 0.44150  0.48900  0.80790  Biso   1.000  C
  C110     1.0000 0.43560  0.52110  0.74870  Biso   1.000  C
  H69      1.0000 0.46440  0.55620  0.73910  Biso   1.000  H
  C111     1.0000 0.39050  0.50390  0.70450  Biso   1.000  C
  H70      1.0000 0.38780  0.52720  0.66450  Biso   1.000  H
  C112     1.0000 0.51600  0.48230  0.90480  Biso   1.000  C
  O29      1.0000 0.76470  0.11780  0.31960  Biso   1.000  O
  O30      1.0000 0.79140  0.03420  0.38400  Biso   1.000  O
  N29      1.0000 0.99190  0.99010  0.14870  Biso   1.000  N
  H71      1.0000 0.01020  0.95270  0.15930  Biso   1.000  H
  N30      1.0000 0.98830  0.07160  0.07060  Biso   1.000  N
  C113     1.0000 0.79830  0.06650  0.33340  Biso   1.000  C
  C114     1.0000 0.84750  0.04750  0.28370  Biso   1.000  C
  C115     1.0000 0.85190  0.07970  0.22520  Biso   1.000  C
  H72      1.0000 0.82250  0.11430  0.21580  Biso   1.000  H
  C116     1.0000 0.89950  0.06210  0.17890  Biso   1.000  C
  H73      1.0000 0.90270  0.08520  0.13880  Biso   1.000  H
  C117     1.0000 0.94150  0.01100  0.19210  Biso   1.000  C
  C118     1.0000 0.93560  0.97890  0.25130  Biso   1.000  C
  H74      1.0000 0.96440  0.94380  0.26090  Biso   1.000  H
  C119     1.0000 0.89050  0.99610  0.29550  Biso   1.000  C
  H75      1.0000 0.88780  0.97280  0.33550  Biso   1.000  H
  C120     1.0000 0.01600  0.01770  0.09520  Biso   1.000  C
  O31      1.0000 0.73530  0.88220  0.81960  Biso   1.000  O
  O32      1.0000 0.70860  0.96580  0.88400  Biso   1.000  O
  N31      1.0000 0.50810  0.00990  0.64870  Biso   1.000  N
  H76      1.0000 0.48980  0.04730  0.65930  Biso   1.000  H
  N32      1.0000 0.51170  0.92840  0.57060  Biso   1.000  N
  C121     1.0000 0.70170  0.93350  0.83340  Biso   1.000  C
  C122     1.0000 0.65250  0.95250  0.78370  Biso   1.000  C
  C123     1.0000 0.64810  0.92030  0.72520  Biso   1.000  C
  H77      1.0000 0.67750  0.88570  0.71580  Biso   1.000  H
  C124     1.0000 0.60050  0.93790  0.67890  Biso   1.000  C
  H78      1.0000 0.59730  0.91480  0.63880  Biso   1.000  H
  C125     1.0000 0.55850  0.98900  0.69210  Biso   1.000  C
  C126     1.0000 0.56440  0.02110  0.75130  Biso   1.000  C
  H79      1.0000 0.53560  0.05620  0.76090  Biso   1.000  H
  C127     1.0000 0.60950  0.00390  0.79550  Biso   1.000  C
  H80      1.0000 0.61220  0.02720  0.83550  Biso   1.000  H
  C128     1.0000 0.48400  0.98230  0.59520  Biso   1.000  C
  O33      1.0000 0.18040  0.23530  0.61780  Biso   1.000  O
  O34      1.0000 0.11600  0.20860  0.53420  Biso   1.000  O
  N33      1.0000 0.35130  0.00810  0.49010  Biso   1.000  N
  H81      1.0000 0.34070  0.98980  0.45270  Biso   1.000  H
  N34      1.0000 0.42940  0.01170  0.57160  Biso   1.000  N
  C129     1.0000 0.16660  0.20170  0.56650  Biso   1.000  C
  C130     1.0000 0.21630  0.15250  0.54750  Biso   1.000  C
  C131     1.0000 0.27480  0.14810  0.57970  Biso   1.000  C
  H82      1.0000 0.28420  0.17750  0.61430  Biso   1.000  H
  C132     1.0000 0.32110  0.10050  0.56210  Biso   1.000  C
  H83      1.0000 0.36120  0.09730  0.58520  Biso   1.000  H
  C133     1.0000 0.30790  0.05850  0.51100  Biso   1.000  C
  C134     1.0000 0.24870  0.06440  0.47890  Biso   1.000  C
  H84      1.0000 0.23910  0.03560  0.44380  Biso   1.000  H
  C135     1.0000 0.20450  0.10950  0.49610  Biso   1.000  C
  H85      1.0000 0.16450  0.11220  0.47280  Biso   1.000  H
  C136     1.0000 0.40480  0.98400  0.51770  Biso   1.000  C
  O35      1.0000 0.68040  0.26470  0.38220  Biso   1.000  O
  O36      1.0000 0.61600  0.29140  0.46580  Biso   1.000  O
  N35      1.0000 0.85130  0.49190  0.50990  Biso   1.000  N
  H86      1.0000 0.84070  0.51020  0.54730  Biso   1.000  H
  N36      1.0000 0.92940  0.48830  0.42840  Biso   1.000  N
  C137     1.0000 0.66660  0.29830  0.43350  Biso   1.000  C
  C138     1.0000 0.71630  0.34750  0.45250  Biso   1.000  C
  C139     1.0000 0.77480  0.35190  0.42030  Biso   1.000  C
  H87      1.0000 0.78420  0.32250  0.38570  Biso   1.000  H
  C140     1.0000 0.82110  0.39950  0.43790  Biso   1.000  C
  H88      1.0000 0.86120  0.40270  0.41480  Biso   1.000  H
  C141     1.0000 0.80790  0.44150  0.48900  Biso   1.000  C
  C142     1.0000 0.74870  0.43560  0.52110  Biso   1.000  C
  H89      1.0000 0.73910  0.46440  0.55620  Biso   1.000  H
  C143     1.0000 0.70450  0.39050  0.50390  Biso   1.000  C
  H90      1.0000 0.66450  0.38780  0.52720  Biso   1.000  H
  C144     1.0000 0.90480  0.51600  0.48230  Biso   1.000  C
  O37      1.0000 0.31960  0.76470  0.11780  Biso   1.000  O
  O38      1.0000 0.38400  0.79140  0.03420  Biso   1.000  O
  N37      1.0000 0.14870  0.99190  0.99010  Biso   1.000  N
  H91      1.0000 0.15930  0.01020  0.95270  Biso   1.000  H
  N38      1.0000 0.07060  0.98830  0.07160  Biso   1.000  N
  C145     1.0000 0.33340  0.79830  0.06650  Biso   1.000  C
  C146     1.0000 0.28370  0.84750  0.04750  Biso   1.000  C
  C147     1.0000 0.22520  0.85190  0.07970  Biso   1.000  C
  H92      1.0000 0.21580  0.82250  0.11430  Biso   1.000  H
  C148     1.0000 0.17890  0.89950  0.06210  Biso   1.000  C
  H93      1.0000 0.13880  0.90270  0.08520  Biso   1.000  H
  C149     1.0000 0.19210  0.94150  0.01100  Biso   1.000  C
  C150     1.0000 0.25130  0.93560  0.97890  Biso   1.000  C
  H94      1.0000 0.26090  0.96440  0.94380  Biso   1.000  H
  C151     1.0000 0.29550  0.89050  0.99610  Biso   1.000  C
  H95      1.0000 0.33550  0.88780  0.97280  Biso   1.000  H
  C152     1.0000 0.09520  0.01600  0.01770  Biso   1.000  C
  O39      1.0000 0.81960  0.73530  0.88220  Biso   1.000  O
  O40      1.0000 0.88400  0.70860  0.96580  Biso   1.000  O
  N39      1.0000 0.64870  0.50810  0.00990  Biso   1.000  N
  H96      1.0000 0.65930  0.48980  0.04730  Biso   1.000  H
  N40      1.0000 0.57060  0.51170  0.92840  Biso   1.000  N
  C153     1.0000 0.83340  0.70170  0.93350  Biso   1.000  C
  C154     1.0000 0.78370  0.65250  0.95250  Biso   1.000  C
  C155     1.0000 0.72520  0.64810  0.92030  Biso   1.000  C
  H97      1.0000 0.71580  0.67750  0.88570  Biso   1.000  H
  C156     1.0000 0.67890  0.60050  0.93790  Biso   1.000  C
  H98      1.0000 0.63880  0.59730  0.91480  Biso   1.000  H
  C157     1.0000 0.69210  0.55850  0.98900  Biso   1.000  C
  C158     1.0000 0.75130  0.56440  0.02110  Biso   1.000  C
  H99      1.0000 0.76090  0.53560  0.05620  Biso   1.000  H
  C159     1.0000 0.79550  0.60950  0.00390  Biso   1.000  C
  H100     1.0000 0.83550  0.61220  0.02720  Biso   1.000  H
  C160     1.0000 0.59520  0.48400  0.98230  Biso   1.000  C
  O41      1.0000 0.61780  0.18040  0.23530  Biso   1.000  O
  O42      1.0000 0.53420  0.11600  0.20860  Biso   1.000  O
  N41      1.0000 0.49010  0.35130  0.00810  Biso   1.000  N
  H101     1.0000 0.45270  0.34070  0.98980  Biso   1.000  H
  N42      1.0000 0.57160  0.42940  0.01170  Biso   1.000  N
  C161     1.0000 0.56650  0.16660  0.20170  Biso   1.000  C
  C162     1.0000 0.54750  0.21630  0.15250  Biso   1.000  C
  C163     1.0000 0.57970  0.27480  0.14810  Biso   1.000  C
  H102     1.0000 0.61430  0.28420  0.17750  Biso   1.000  H
  C164     1.0000 0.56210  0.32110  0.10050  Biso   1.000  C
  H103     1.0000 0.58520  0.36120  0.09730  Biso   1.000  H
  C165     1.0000 0.51100  0.30790  0.05850  Biso   1.000  C
  C166     1.0000 0.47890  0.24870  0.06440  Biso   1.000  C
  H104     1.0000 0.44380  0.23910  0.03560  Biso   1.000  H
  C167     1.0000 0.49610  0.20450  0.10950  Biso   1.000  C
  H105     1.0000 0.47280  0.16450  0.11220  Biso   1.000  H
  C168     1.0000 0.51770  0.40480  0.98400  Biso   1.000  C
  O43      1.0000 0.38220  0.68040  0.26470  Biso   1.000  O
  O44      1.0000 0.46580  0.61600  0.29140  Biso   1.000  O
  N43      1.0000 0.50990  0.85130  0.49190  Biso   1.000  N
  H106     1.0000 0.54730  0.84070  0.51020  Biso   1.000  H
  N44      1.0000 0.42840  0.92940  0.48830  Biso   1.000  N
  C169     1.0000 0.43350  0.66660  0.29830  Biso   1.000  C
  C170     1.0000 0.45250  0.71630  0.34750  Biso   1.000  C
  C171     1.0000 0.42030  0.77480  0.35190  Biso   1.000  C
  H107     1.0000 0.38570  0.78420  0.32250  Biso   1.000  H
  C172     1.0000 0.43790  0.82110  0.39950  Biso   1.000  C
  H108     1.0000 0.41480  0.86120  0.40270  Biso   1.000  H
  C173     1.0000 0.48900  0.80790  0.44150  Biso   1.000  C
  C174     1.0000 0.52110  0.74870  0.43560  Biso   1.000  C
  H109     1.0000 0.55620  0.73910  0.46440  Biso   1.000  H
  C175     1.0000 0.50390  0.70450  0.39050  Biso   1.000  C
  H110     1.0000 0.52720  0.66450  0.38780  Biso   1.000  H
  C176     1.0000 0.48230  0.90480  0.51600  Biso   1.000  C
  O45      1.0000 0.11780  0.31960  0.76470  Biso   1.000  O
  O46      1.0000 0.03420  0.38400  0.79140  Biso   1.000  O
  N45      1.0000 0.99010  0.14870  0.99190  Biso   1.000  N
  H111     1.0000 0.95270  0.15930  0.01020  Biso   1.000  H
  N46      1.0000 0.07160  0.07060  0.98830  Biso   1.000  N
  C177     1.0000 0.06650  0.33340  0.79830  Biso   1.000  C
  C178     1.0000 0.04750  0.28370  0.84750  Biso   1.000  C
  C179     1.0000 0.07970  0.22520  0.85190  Biso   1.000  C
  H112     1.0000 0.11430  0.21580  0.82250  Biso   1.000  H
  C180     1.0000 0.06210  0.17890  0.89950  Biso   1.000  C
  H113     1.0000 0.08520  0.13880  0.90270  Biso   1.000  H
  C181     1.0000 0.01100  0.19210  0.94150  Biso   1.000  C
  C182     1.0000 0.97890  0.25130  0.93560  Biso   1.000  C
  H114     1.0000 0.94380  0.26090  0.96440  Biso   1.000  H
  C183     1.0000 0.99610  0.29550  0.89050  Biso   1.000  C
  H115     1.0000 0.97280  0.33550  0.88780  Biso   1.000  H
  C184     1.0000 0.01770  0.09520  0.01600  Biso   1.000  C
  O47      1.0000 0.88220  0.81960  0.73530  Biso   1.000  O
  O48      1.0000 0.96580  0.88400  0.70860  Biso   1.000  O
  N47      1.0000 0.00990  0.64870  0.50810  Biso   1.000  N
  H116     1.0000 0.04730  0.65930  0.48980  Biso   1.000  H
  N48      1.0000 0.92840  0.57060  0.51170  Biso   1.000  N
  C185     1.0000 0.93350  0.83340  0.70170  Biso   1.000  C
  C186     1.0000 0.95250  0.78370  0.65250  Biso   1.000  C
  C187     1.0000 0.92030  0.72520  0.64810  Biso   1.000  C
  H117     1.0000 0.88570  0.71580  0.67750  Biso   1.000  H
  C188     1.0000 0.93790  0.67890  0.60050  Biso   1.000  C
  H118     1.0000 0.91480  0.63880  0.59730  Biso   1.000  H
  C189     1.0000 0.98900  0.69210  0.55850  Biso   1.000  C
  C190     1.0000 0.02110  0.75130  0.56440  Biso   1.000  C
  H119     1.0000 0.05620  0.76090  0.53560  Biso   1.000  H
  C191     1.0000 0.00390  0.79550  0.60950  Biso   1.000  C
  H120     1.0000 0.02720  0.83550  0.61220  Biso   1.000  H
  C192     1.0000 0.98230  0.59520  0.48400  Biso   1.000  C
  Eu5      1.0000 0.33390  0.66610  0.16610  Biso   1.000  Eu
  Eu6      1.0000 0.16610  0.33390  0.66610  Biso   1.000  Eu
  Eu7      1.0000 0.66610  0.16610  0.33390  Biso   1.000  Eu
  Eu8      1.0000 0.83390  0.83390  0.83390  Biso   1.000  Eu
