data_image0
_cell_length_a       20.425
_cell_length_b       20.425
_cell_length_c       20.425
_cell_angle_alpha    90
_cell_angle_beta     90
_cell_angle_gamma    90

_symmetry_space_group_name_H-M    "P 1"
_symmetry_int_tables_number       1

loop_
  _symmetry_equiv_pos_as_xyz
  'x, y, z'

loop_
  _atom_site_label
  _atom_site_occupancy
  _atom_site_fract_x
  _atom_site_fract_y
  _atom_site_fract_z
  _atom_site_thermal_displace_type
  _atom_site_B_iso_or_equiv
  _atom_site_type_symbol
  O1       1.0000 0.13320  0.80840  0.24500  Biso   1.000  O
  O2       1.0000 0.06250  0.88220  0.21440  Biso   1.000  O
  N1       1.0000 0.99920  0.65560  0.00920  Biso   1.000  N
  H1       1.0000 0.96330  0.67030  0.99070  Biso   1.000  H
  N2       1.0000 0.99150  0.57800  0.92940  Biso   1.000  N
  C1       1.0000 0.08760  0.82800  0.20900  Biso   1.000  C
  C2       1.0000 0.06610  0.78140  0.15610  Biso   1.000  C
  C3       1.0000 0.01730  0.79740  0.11400  Biso   1.000  C
  H2       1.0000 0.99780  0.83950  0.11710  Biso   1.000  H
  C4       1.0000 0.99530  0.75500  0.06750  Biso   1.000  C
  H3       1.0000 0.96060  0.76770  0.03930  Biso   1.000  H
  C5       1.0000 0.02380  0.69220  0.06070  Biso   1.000  C
  C6       1.0000 0.07430  0.67660  0.10370  Biso   1.000  C
  H4       1.0000 0.09520  0.63520  0.10030  Biso   1.000  H
  C7       1.0000 0.09390  0.71890  0.14990  Biso   1.000  C
  H5       1.0000 0.12760  0.70620  0.17940  Biso   1.000  H
  C8       1.0000 0.02520  0.59790  0.98350  Biso   1.000  C
  O3       1.0000 0.36680  0.19160  0.74500  Biso   1.000  O
  O4       1.0000 0.43750  0.11780  0.71440  Biso   1.000  O
  N3       1.0000 0.50080  0.34440  0.50920  Biso   1.000  N
  H6       1.0000 0.53670  0.32970  0.49070  Biso   1.000  H
  N4       1.0000 0.50850  0.42200  0.42940  Biso   1.000  N
  C9       1.0000 0.41240  0.17200  0.70900  Biso   1.000  C
  C10      1.0000 0.43390  0.21860  0.65610  Biso   1.000  C
  C11      1.0000 0.48270  0.20260  0.61400  Biso   1.000  C
  H7       1.0000 0.50220  0.16050  0.61710  Biso   1.000  H
  C12      1.0000 0.50470  0.24500  0.56750  Biso   1.000  C
  H8       1.0000 0.53940  0.23230  0.53930  Biso   1.000  H
  C13      1.0000 0.47620  0.30780  0.56070  Biso   1.000  C
  C14      1.0000 0.42570  0.32340  0.60370  Biso   1.000  C
  H9       1.0000 0.40480  0.36480  0.60030  Biso   1.000  H
  C15      1.0000 0.40610  0.28110  0.64990  Biso   1.000  C
  H10      1.0000 0.37240  0.29380  0.67940  Biso   1.000  H
  C16      1.0000 0.47480  0.40210  0.48350  Biso   1.000  C
  O5       1.0000 0.86680  0.30840  0.25500  Biso   1.000  O
  O6       1.0000 0.93750  0.38220  0.28560  Biso   1.000  O
  N5       1.0000 0.00080  0.15560  0.49080  Biso   1.000  N
  H11      1.0000 0.03670  0.17030  0.50930  Biso   1.000  H
  N6       1.0000 0.00850  0.07800  0.57060  Biso   1.000  N
  C17      1.0000 0.91240  0.32800  0.29100  Biso   1.000  C
  C18      1.0000 0.93390  0.28140  0.34390  Biso   1.000  C
  C19      1.0000 0.98270  0.29740  0.38600  Biso   1.000  C
  H12      1.0000 0.00220  0.33950  0.38290  Biso   1.000  H
  C20      1.0000 0.00470  0.25500  0.43250  Biso   1.000  C
  H13      1.0000 0.03940  0.26770  0.46070  Biso   1.000  H
  C21      1.0000 0.97620  0.19220  0.43930  Biso   1.000  C
  C22      1.0000 0.92570  0.17660  0.39630  Biso   1.000  C
  H14      1.0000 0.90480  0.13520  0.39970  Biso   1.000  H
  C23      1.0000 0.90610  0.21890  0.35010  Biso   1.000  C
  H15      1.0000 0.87240  0.20620  0.32060  Biso   1.000  H
  C24      1.0000 0.97480  0.09790  0.51650  Biso   1.000  C
  O7       1.0000 0.63320  0.69160  0.75500  Biso   1.000  O
  O8       1.0000 0.56250  0.61780  0.78560  Biso   1.000  O
  N7       1.0000 0.49920  0.84440  0.99080  Biso   1.000  N
  H16      1.0000 0.46330  0.82970  0.00930  Biso   1.000  H
  N8       1.0000 0.49150  0.92200  0.07060  Biso   1.000  N
  C25      1.0000 0.58760  0.67200  0.79100  Biso   1.000  C
  C26      1.0000 0.56610  0.71860  0.84390  Biso   1.000  C
  C27      1.0000 0.51730  0.70260  0.88600  Biso   1.000  C
  H17      1.0000 0.49780  0.66050  0.88290  Biso   1.000  H
  C28      1.0000 0.49530  0.74500  0.93250  Biso   1.000  C
  H18      1.0000 0.46060  0.73230  0.96070  Biso   1.000  H
  C29      1.0000 0.52380  0.80780  0.93930  Biso   1.000  C
  C30      1.0000 0.57430  0.82340  0.89630  Biso   1.000  C
  H19      1.0000 0.59520  0.86480  0.89970  Biso   1.000  H
  C31      1.0000 0.59390  0.78110  0.85010  Biso   1.000  C
  H20      1.0000 0.62760  0.79380  0.82060  Biso   1.000  H
  C32      1.0000 0.52520  0.90210  0.01650  Biso   1.000  C
  O9       1.0000 0.24500  0.13320  0.80840  Biso   1.000  O
  O10      1.0000 0.21440  0.06250  0.88220  Biso   1.000  O
  N9       1.0000 0.00920  0.99920  0.65560  Biso   1.000  N
  H21      1.0000 0.99070  0.96330  0.67030  Biso   1.000  H
  N10      1.0000 0.92940  0.99150  0.57800  Biso   1.000  N
  C33      1.0000 0.20900  0.08760  0.82800  Biso   1.000  C
  C34      1.0000 0.15610  0.06610  0.78140  Biso   1.000  C
  C35      1.0000 0.11400  0.01730  0.79740  Biso   1.000  C
  H22      1.0000 0.11710  0.99780  0.83950  Biso   1.000  H
  C36      1.0000 0.06750  0.99530  0.75500  Biso   1.000  C
  H23      1.0000 0.03930  0.96060  0.76770  Biso   1.000  H
  C37      1.0000 0.06070  0.02380  0.69220  Biso   1.000  C
  C38      1.0000 0.10370  0.07430  0.67660  Biso   1.000  C
  H24      1.0000 0.10030  0.09520  0.63520  Biso   1.000  H
  C39      1.0000 0.14990  0.09390  0.71890  Biso   1.000  C
  H25      1.0000 0.17940  0.12760  0.70620  Biso   1.000  H
  C40      1.0000 0.98350  0.02520  0.59790  Biso   1.000  C
  O11      1.0000 0.74500  0.36680  0.19160  Biso   1.000  O
  O12      1.0000 0.71440  0.43750  0.11780  Biso   1.000  O
  N11      1.0000 0.50920  0.50080  0.34440  Biso   1.000  N
  H26      1.0000 0.49070  0.53670  0.32970  Biso   1.000  H
  N12      1.0000 0.42940  0.50850  0.42200  Biso   1.000  N
  C41      1.0000 0.70900  0.41240  0.17200  Biso   1.000  C
  C42      1.0000 0.65610  0.43390  0.21860  Biso   1.000  C
  C43      1.0000 0.61400  0.48270  0.20260  Biso   1.000  C
  H27      1.0000 0.61710  0.50220  0.16050  Biso   1.000  H
  C44      1.0000 0.56750  0.50470  0.24500  Biso   1.000  C
  H28      1.0000 0.53930  0.53940  0.23230  Biso   1.000  H
  C45      1.0000 0.56070  0.47620  0.30780  Biso   1.000  C
  C46      1.0000 0.60370  0.42570  0.32340  Biso   1.000  C
  H29      1.0000 0.60030  0.40480  0.36480  Biso   1.000  H
  C47      1.0000 0.64990  0.40610  0.28110  Biso   1.000  C
  H30      1.0000 0.67940  0.37240  0.29380  Biso   1.000  H
  C48      1.0000 0.48350  0.47480  0.40210  Biso   1.000  C
  O13      1.0000 0.25500  0.86680  0.30840  Biso   1.000  O
  O14      1.0000 0.28560  0.93750  0.38220  Biso   1.000  O
  N13      1.0000 0.49080  0.00080  0.15560  Biso   1.000  N
  H31      1.0000 0.50930  0.03670  0.17030  Biso   1.000  H
  N14      1.0000 0.57060  0.00850  0.07800  Biso   1.000  N
  C49      1.0000 0.29100  0.91240  0.32800  Biso   1.000  C
  C50      1.0000 0.34390  0.93390  0.28140  Biso   1.000  C
  C51      1.0000 0.38600  0.98270  0.29740  Biso   1.000  C
  H32      1.0000 0.38290  0.00220  0.33950  Biso   1.000  H
  C52      1.0000 0.43250  0.00470  0.25500  Biso   1.000  C
  H33      1.0000 0.46070  0.03940  0.26770  Biso   1.000  H
  C53      1.0000 0.43930  0.97620  0.19220  Biso   1.000  C
  C54      1.0000 0.39630  0.92570  0.17660  Biso   1.000  C
  H34      1.0000 0.39970  0.90480  0.13520  Biso   1.000  H
  C55      1.0000 0.35010  0.90610  0.21890  Biso   1.000  C
  H35      1.0000 0.32060  0.87240  0.20620  Biso   1.000  H
  C56      1.0000 0.51650  0.97480  0.09790  Biso   1.000  C
  O15      1.0000 0.75500  0.63320  0.69160  Biso   1.000  O
  O16      1.0000 0.78560  0.56250  0.61780  Biso   1.000  O
  N15      1.0000 0.99080  0.49920  0.84440  Biso   1.000  N
  H36      1.0000 0.00930  0.46330  0.82970  Biso   1.000  H
  N16      1.0000 0.07060  0.49150  0.92200  Biso   1.000  N
  C57      1.0000 0.79100  0.58760  0.67200  Biso   1.000  C
  C58      1.0000 0.84390  0.56610  0.71860  Biso   1.000  C
  C59      1.0000 0.88600  0.51730  0.70260  Biso   1.000  C
  H37      1.0000 0.88290  0.49780  0.66050  Biso   1.000  H
  C60      1.0000 0.93250  0.49530  0.74500  Biso   1.000  C
  H38      1.0000 0.96070  0.46060  0.73230  Biso   1.000  H
  C61      1.0000 0.93930  0.52380  0.80780  Biso   1.000  C
  C62      1.0000 0.89630  0.57430  0.82340  Biso   1.000  C
  H39      1.0000 0.89970  0.59520  0.86480  Biso   1.000  H
  C63      1.0000 0.85010  0.59390  0.78110  Biso   1.000  C
  H40      1.0000 0.82060  0.62760  0.79380  Biso   1.000  H
  C64      1.0000 0.01650  0.52520  0.90210  Biso   1.000  C
  O17      1.0000 0.80840  0.24500  0.13320  Biso   1.000  O
  O18      1.0000 0.88220  0.21440  0.06250  Biso   1.000  O
  N17      1.0000 0.65560  0.00920  0.99920  Biso   1.000  N
  H41      1.0000 0.67030  0.99070  0.96330  Biso   1.000  H
  N18      1.0000 0.57800  0.92940  0.99150  Biso   1.000  N
  C65      1.0000 0.82800  0.20900  0.08760  Biso   1.000  C
  C66      1.0000 0.78140  0.15610  0.06610  Biso   1.000  C
  C67      1.0000 0.79740  0.11400  0.01730  Biso   1.000  C
  H42      1.0000 0.83950  0.11710  0.99780  Biso   1.000  H
  C68      1.0000 0.75500  0.06750  0.99530  Biso   1.000  C
  H43      1.0000 0.76770  0.03930  0.96060  Biso   1.000  H
  C69      1.0000 0.69220  0.06070  0.02380  Biso   1.000  C
  C70      1.0000 0.67660  0.10370  0.07430  Biso   1.000  C
  H44      1.0000 0.63520  0.10030  0.09520  Biso   1.000  H
  C71      1.0000 0.71890  0.14990  0.09390  Biso   1.000  C
  H45      1.0000 0.70620  0.17940  0.12760  Biso   1.000  H
  C72      1.0000 0.59790  0.98350  0.02520  Biso   1.000  C
  O19      1.0000 0.19160  0.74500  0.36680  Biso   1.000  O
  O20      1.0000 0.11780  0.71440  0.43750  Biso   1.000  O
  N19      1.0000 0.34440  0.50920  0.50080  Biso   1.000  N
  H46      1.0000 0.32970  0.49070  0.53670  Biso   1.000  H
  N20      1.0000 0.42200  0.42940  0.50850  Biso   1.000  N
  C73      1.0000 0.17200  0.70900  0.41240  Biso   1.000  C
  C74      1.0000 0.21860  0.65610  0.43390  Biso   1.000  C
  C75      1.0000 0.20260  0.61400  0.48270  Biso   1.000  C
  H47      1.0000 0.16050  0.61710  0.50220  Biso   1.000  H
  C76      1.0000 0.24500  0.56750  0.50470  Biso   1.000  C
  H48      1.0000 0.23230  0.53930  0.53940  Biso   1.000  H
  C77      1.0000 0.30780  0.56070  0.47620  Biso   1.000  C
  C78      1.0000 0.32340  0.60370  0.42570  Biso   1.000  C
  H49      1.0000 0.36480  0.60030  0.40480  Biso   1.000  H
  C79      1.0000 0.28110  0.64990  0.40610  Biso   1.000  C
  H50      1.0000 0.29380  0.67940  0.37240  Biso   1.000  H
  C80      1.0000 0.40210  0.48350  0.47480  Biso   1.000  C
  O21      1.0000 0.30840  0.25500  0.86680  Biso   1.000  O
  O22      1.0000 0.38220  0.28560  0.93750  Biso   1.000  O
  N21      1.0000 0.15560  0.49080  0.00080  Biso   1.000  N
  H51      1.0000 0.17030  0.50930  0.03670  Biso   1.000  H
  N22      1.0000 0.07800  0.57060  0.00850  Biso   1.000  N
  C81      1.0000 0.32800  0.29100  0.91240  Biso   1.000  C
  C82      1.0000 0.28140  0.34390  0.93390  Biso   1.000  C
  C83      1.0000 0.29740  0.38600  0.98270  Biso   1.000  C
  H52      1.0000 0.33950  0.38290  0.00220  Biso   1.000  H
  C84      1.0000 0.25500  0.43250  0.00470  Biso   1.000  C
  H53      1.0000 0.26770  0.46070  0.03940  Biso   1.000  H
  C85      1.0000 0.19220  0.43930  0.97620  Biso   1.000  C
  C86      1.0000 0.17660  0.39630  0.92570  Biso   1.000  C
  H54      1.0000 0.13520  0.39970  0.90480  Biso   1.000  H
  C87      1.0000 0.21890  0.35010  0.90610  Biso   1.000  C
  H55      1.0000 0.20620  0.32060  0.87240  Biso   1.000  H
  C88      1.0000 0.09790  0.51650  0.97480  Biso   1.000  C
  O23      1.0000 0.69160  0.75500  0.63320  Biso   1.000  O
  O24      1.0000 0.61780  0.78560  0.56250  Biso   1.000  O
  N23      1.0000 0.84440  0.99080  0.49920  Biso   1.000  N
  H56      1.0000 0.82970  0.00930  0.46330  Biso   1.000  H
  N24      1.0000 0.92200  0.07060  0.49150  Biso   1.000  N
  C89      1.0000 0.67200  0.79100  0.58760  Biso   1.000  C
  C90      1.0000 0.71860  0.84390  0.56610  Biso   1.000  C
  C91      1.0000 0.70260  0.88600  0.51730  Biso   1.000  C
  H57      1.0000 0.66050  0.88290  0.49780  Biso   1.000  H
  C92      1.0000 0.74500  0.93250  0.49530  Biso   1.000  C
  H58      1.0000 0.73230  0.96070  0.46060  Biso   1.000  H
  C93      1.0000 0.80780  0.93930  0.52380  Biso   1.000  C
  C94      1.0000 0.82340  0.89630  0.57430  Biso   1.000  C
  H59      1.0000 0.86480  0.89970  0.59520  Biso   1.000  H
  C95      1.0000 0.78110  0.85010  0.59390  Biso   1.000  C
  H60      1.0000 0.79380  0.82060  0.62760  Biso   1.000  H
  C96      1.0000 0.90210  0.01650  0.52520  Biso   1.000  C
  Gd1      1.0000 0.15252  0.84748  0.34748  Biso   1.000  Gd
  Gd2      1.0000 0.34748  0.15252  0.84748  Biso   1.000  Gd
  Gd3      1.0000 0.84748  0.34748  0.15252  Biso   1.000  Gd
  Gd4      1.0000 0.65252  0.65252  0.65252  Biso   1.000  Gd
  O25      1.0000 0.23550  0.61720  0.17880  Biso   1.000  O
  O26      1.0000 0.20990  0.53200  0.11560  Biso   1.000  O
  N25      1.0000 0.00620  0.49160  0.34850  Biso   1.000  N
  H61      1.0000 0.98690  0.45480  0.33710  Biso   1.000  H
  N26      1.0000 0.01040  0.57300  0.42770  Biso   1.000  N
  C97      1.0000 0.20310  0.56550  0.16660  Biso   1.000  C
  C98      1.0000 0.15250  0.54610  0.21510  Biso   1.000  C
  C99      1.0000 0.14660  0.57890  0.27340  Biso   1.000  C
  H62      1.0000 0.17580  0.61390  0.28270  Biso   1.000  H
  C100     1.0000 0.09970  0.56270  0.31890  Biso   1.000  C
  H63      1.0000 0.09640  0.58680  0.35850  Biso   1.000  H
  C101     1.0000 0.05720  0.51080  0.30660  Biso   1.000  C
  C102     1.0000 0.06240  0.47800  0.24680  Biso   1.000  C
  H64      1.0000 0.03300  0.44340  0.23670  Biso   1.000  H
  C103     1.0000 0.10970  0.49540  0.20300  Biso   1.000  C
  H65      1.0000 0.11320  0.47200  0.16300  Biso   1.000  H
  C104     1.0000 0.98200  0.51910  0.40250  Biso   1.000  C
  O27      1.0000 0.26450  0.38280  0.67880  Biso   1.000  O
  O28      1.0000 0.29010  0.46800  0.61560  Biso   1.000  O
  N27      1.0000 0.49380  0.50840  0.84850  Biso   1.000  N
  H66      1.0000 0.51310  0.54520  0.83710  Biso   1.000  H
  N28      1.0000 0.48960  0.42700  0.92770  Biso   1.000  N
  C105     1.0000 0.29690  0.43450  0.66660  Biso   1.000  C
  C106     1.0000 0.34750  0.45390  0.71510  Biso   1.000  C
  C107     1.0000 0.35340  0.42110  0.77340  Biso   1.000  C
  H67      1.0000 0.32420  0.38610  0.78270  Biso   1.000  H
  C108     1.0000 0.40030  0.43730  0.81890  Biso   1.000  C
  H68      1.0000 0.40360  0.41320  0.85850  Biso   1.000  H
  C109     1.0000 0.44280  0.48920  0.80660  Biso   1.000  C
  C110     1.0000 0.43760  0.52200  0.74680  Biso   1.000  C
  H69      1.0000 0.46700  0.55660  0.73670  Biso   1.000  H
  C111     1.0000 0.39030  0.50460  0.70300  Biso   1.000  C
  H70      1.0000 0.38680  0.52800  0.66300  Biso   1.000  H
  C112     1.0000 0.51800  0.48090  0.90250  Biso   1.000  C
  O29      1.0000 0.76450  0.11720  0.32120  Biso   1.000  O
  O30      1.0000 0.79010  0.03200  0.38440  Biso   1.000  O
  N29      1.0000 0.99380  0.99160  0.15150  Biso   1.000  N
  H71      1.0000 0.01310  0.95480  0.16290  Biso   1.000  H
  N30      1.0000 0.98960  0.07300  0.07230  Biso   1.000  N
  C113     1.0000 0.79690  0.06550  0.33340  Biso   1.000  C
  C114     1.0000 0.84750  0.04610  0.28490  Biso   1.000  C
  C115     1.0000 0.85340  0.07890  0.22660  Biso   1.000  C
  H72      1.0000 0.82420  0.11390  0.21730  Biso   1.000  H
  C116     1.0000 0.90030  0.06270  0.18110  Biso   1.000  C
  H73      1.0000 0.90360  0.08680  0.14150  Biso   1.000  H
  C117     1.0000 0.94280  0.01080  0.19340  Biso   1.000  C
  C118     1.0000 0.93760  0.97800  0.25320  Biso   1.000  C
  H74      1.0000 0.96700  0.94340  0.26330  Biso   1.000  H
  C119     1.0000 0.89030  0.99540  0.29700  Biso   1.000  C
  H75      1.0000 0.88680  0.97200  0.33700  Biso   1.000  H
  C120     1.0000 0.01800  0.01910  0.09750  Biso   1.000  C
  O31      1.0000 0.73550  0.88280  0.82120  Biso   1.000  O
  O32      1.0000 0.70990  0.96800  0.88440  Biso   1.000  O
  N31      1.0000 0.50620  0.00840  0.65150  Biso   1.000  N
  H76      1.0000 0.48690  0.04520  0.66290  Biso   1.000  H
  N32      1.0000 0.51040  0.92700  0.57230  Biso   1.000  N
  C121     1.0000 0.70310  0.93450  0.83340  Biso   1.000  C
  C122     1.0000 0.65250  0.95390  0.78490  Biso   1.000  C
  C123     1.0000 0.64660  0.92110  0.72660  Biso   1.000  C
  H77      1.0000 0.67580  0.88610  0.71730  Biso   1.000  H
  C124     1.0000 0.59970  0.93730  0.68110  Biso   1.000  C
  H78      1.0000 0.59640  0.91320  0.64150  Biso   1.000  H
  C125     1.0000 0.55720  0.98920  0.69340  Biso   1.000  C
  C126     1.0000 0.56240  0.02200  0.75320  Biso   1.000  C
  H79      1.0000 0.53300  0.05660  0.76330  Biso   1.000  H
  C127     1.0000 0.60970  0.00460  0.79700  Biso   1.000  C
  H80      1.0000 0.61320  0.02800  0.83700  Biso   1.000  H
  C128     1.0000 0.48200  0.98090  0.59750  Biso   1.000  C
  O33      1.0000 0.17880  0.23550  0.61720  Biso   1.000  O
  O34      1.0000 0.11560  0.20990  0.53200  Biso   1.000  O
  N33      1.0000 0.34850  0.00620  0.49160  Biso   1.000  N
  H81      1.0000 0.33710  0.98690  0.45480  Biso   1.000  H
  N34      1.0000 0.42770  0.01040  0.57300  Biso   1.000  N
  C129     1.0000 0.16660  0.20310  0.56550  Biso   1.000  C
  C130     1.0000 0.21510  0.15250  0.54610  Biso   1.000  C
  C131     1.0000 0.27340  0.14660  0.57890  Biso   1.000  C
  H82      1.0000 0.28270  0.17580  0.61390  Biso   1.000  H
  C132     1.0000 0.31890  0.09970  0.56270  Biso   1.000  C
  H83      1.0000 0.35850  0.09640  0.58680  Biso   1.000  H
  C133     1.0000 0.30660  0.05720  0.51080  Biso   1.000  C
  C134     1.0000 0.24680  0.06240  0.47800  Biso   1.000  C
  H84      1.0000 0.23670  0.03300  0.44340  Biso   1.000  H
  C135     1.0000 0.20300  0.10970  0.49540  Biso   1.000  C
  H85      1.0000 0.16300  0.11320  0.47200  Biso   1.000  H
  C136     1.0000 0.40250  0.98200  0.51910  Biso   1.000  C
  O35      1.0000 0.67880  0.26450  0.38280  Biso   1.000  O
  O36      1.0000 0.61560  0.29010  0.46800  Biso   1.000  O
  N35      1.0000 0.84850  0.49380  0.50840  Biso   1.000  N
  H86      1.0000 0.83710  0.51310  0.54520  Biso   1.000  H
  N36      1.0000 0.92770  0.48960  0.42700  Biso   1.000  N
  C137     1.0000 0.66660  0.29690  0.43450  Biso   1.000  C
  C138     1.0000 0.71510  0.34750  0.45390  Biso   1.000  C
  C139     1.0000 0.77340  0.35340  0.42110  Biso   1.000  C
  H87      1.0000 0.78270  0.32420  0.38610  Biso   1.000  H
  C140     1.0000 0.81890  0.40030  0.43730  Biso   1.000  C
  H88      1.0000 0.85850  0.40360  0.41320  Biso   1.000  H
  C141     1.0000 0.80660  0.44280  0.48920  Biso   1.000  C
  C142     1.0000 0.74680  0.43760  0.52200  Biso   1.000  C
  H89      1.0000 0.73670  0.46700  0.55660  Biso   1.000  H
  C143     1.0000 0.70300  0.39030  0.50460  Biso   1.000  C
  H90      1.0000 0.66300  0.38680  0.52800  Biso   1.000  H
  C144     1.0000 0.90250  0.51800  0.48090  Biso   1.000  C
  O37      1.0000 0.32120  0.76450  0.11720  Biso   1.000  O
  O38      1.0000 0.38440  0.79010  0.03200  Biso   1.000  O
  N37      1.0000 0.15150  0.99380  0.99160  Biso   1.000  N
  H91      1.0000 0.16290  0.01310  0.95480  Biso   1.000  H
  N38      1.0000 0.07230  0.98960  0.07300  Biso   1.000  N
  C145     1.0000 0.33340  0.79690  0.06550  Biso   1.000  C
  C146     1.0000 0.28490  0.84750  0.04610  Biso   1.000  C
  C147     1.0000 0.22660  0.85340  0.07890  Biso   1.000  C
  H92      1.0000 0.21730  0.82420  0.11390  Biso   1.000  H
  C148     1.0000 0.18110  0.90030  0.06270  Biso   1.000  C
  H93      1.0000 0.14150  0.90360  0.08680  Biso   1.000  H
  C149     1.0000 0.19340  0.94280  0.01080  Biso   1.000  C
  C150     1.0000 0.25320  0.93760  0.97800  Biso   1.000  C
  H94      1.0000 0.26330  0.96700  0.94340  Biso   1.000  H
  C151     1.0000 0.29700  0.89030  0.99540  Biso   1.000  C
  H95      1.0000 0.33700  0.88680  0.97200  Biso   1.000  H
  C152     1.0000 0.09750  0.01800  0.01910  Biso   1.000  C
  O39      1.0000 0.82120  0.73550  0.88280  Biso   1.000  O
  O40      1.0000 0.88440  0.70990  0.96800  Biso   1.000  O
  N39      1.0000 0.65150  0.50620  0.00840  Biso   1.000  N
  H96      1.0000 0.66290  0.48690  0.04520  Biso   1.000  H
  N40      1.0000 0.57230  0.51040  0.92700  Biso   1.000  N
  C153     1.0000 0.83340  0.70310  0.93450  Biso   1.000  C
  C154     1.0000 0.78490  0.65250  0.95390  Biso   1.000  C
  C155     1.0000 0.72660  0.64660  0.92110  Biso   1.000  C
  H97      1.0000 0.71730  0.67580  0.88610  Biso   1.000  H
  C156     1.0000 0.68110  0.59970  0.93730  Biso   1.000  C
  H98      1.0000 0.64150  0.59640  0.91320  Biso   1.000  H
  C157     1.0000 0.69340  0.55720  0.98920  Biso   1.000  C
  C158     1.0000 0.75320  0.56240  0.02200  Biso   1.000  C
  H99      1.0000 0.76330  0.53300  0.05660  Biso   1.000  H
  C159     1.0000 0.79700  0.60970  0.00460  Biso   1.000  C
  H100     1.0000 0.83700  0.61320  0.02800  Biso   1.000  H
  C160     1.0000 0.59750  0.48200  0.98090  Biso   1.000  C
  O41      1.0000 0.61720  0.17880  0.23550  Biso   1.000  O
  O42      1.0000 0.53200  0.11560  0.20990  Biso   1.000  O
  N41      1.0000 0.49160  0.34850  0.00620  Biso   1.000  N
  H101     1.0000 0.45480  0.33710  0.98690  Biso   1.000  H
  N42      1.0000 0.57300  0.42770  0.01040  Biso   1.000  N
  C161     1.0000 0.56550  0.16660  0.20310  Biso   1.000  C
  C162     1.0000 0.54610  0.21510  0.15250  Biso   1.000  C
  C163     1.0000 0.57890  0.27340  0.14660  Biso   1.000  C
  H102     1.0000 0.61390  0.28270  0.17580  Biso   1.000  H
  C164     1.0000 0.56270  0.31890  0.09970  Biso   1.000  C
  H103     1.0000 0.58680  0.35850  0.09640  Biso   1.000  H
  C165     1.0000 0.51080  0.30660  0.05720  Biso   1.000  C
  C166     1.0000 0.47800  0.24680  0.06240  Biso   1.000  C
  H104     1.0000 0.44340  0.23670  0.03300  Biso   1.000  H
  C167     1.0000 0.49540  0.20300  0.10970  Biso   1.000  C
  H105     1.0000 0.47200  0.16300  0.11320  Biso   1.000  H
  C168     1.0000 0.51910  0.40250  0.98200  Biso   1.000  C
  O43      1.0000 0.38280  0.67880  0.26450  Biso   1.000  O
  O44      1.0000 0.46800  0.61560  0.29010  Biso   1.000  O
  N43      1.0000 0.50840  0.84850  0.49380  Biso   1.000  N
  H106     1.0000 0.54520  0.83710  0.51310  Biso   1.000  H
  N44      1.0000 0.42700  0.92770  0.48960  Biso   1.000  N
  C169     1.0000 0.43450  0.66660  0.29690  Biso   1.000  C
  C170     1.0000 0.45390  0.71510  0.34750  Biso   1.000  C
  C171     1.0000 0.42110  0.77340  0.35340  Biso   1.000  C
  H107     1.0000 0.38610  0.78270  0.32420  Biso   1.000  H
  C172     1.0000 0.43730  0.81890  0.40030  Biso   1.000  C
  H108     1.0000 0.41320  0.85850  0.40360  Biso   1.000  H
  C173     1.0000 0.48920  0.80660  0.44280  Biso   1.000  C
  C174     1.0000 0.52200  0.74680  0.43760  Biso   1.000  C
  H109     1.0000 0.55660  0.73670  0.46700  Biso   1.000  H
  C175     1.0000 0.50460  0.70300  0.39030  Biso   1.000  C
  H110     1.0000 0.52800  0.66300  0.38680  Biso   1.000  H
  C176     1.0000 0.48090  0.90250  0.51800  Biso   1.000  C
  O45      1.0000 0.11720  0.32120  0.76450  Biso   1.000  O
  O46      1.0000 0.03200  0.38440  0.79010  Biso   1.000  O
  N45      1.0000 0.99160  0.15150  0.99380  Biso   1.000  N
  H111     1.0000 0.95480  0.16290  0.01310  Biso   1.000  H
  N46      1.0000 0.07300  0.07230  0.98960  Biso   1.000  N
  C177     1.0000 0.06550  0.33340  0.79690  Biso   1.000  C
  C178     1.0000 0.04610  0.28490  0.84750  Biso   1.000  C
  C179     1.0000 0.07890  0.22660  0.85340  Biso   1.000  C
  H112     1.0000 0.11390  0.21730  0.82420  Biso   1.000  H
  C180     1.0000 0.06270  0.18110  0.90030  Biso   1.000  C
  H113     1.0000 0.08680  0.14150  0.90360  Biso   1.000  H
  C181     1.0000 0.01080  0.19340  0.94280  Biso   1.000  C
  C182     1.0000 0.97800  0.25320  0.93760  Biso   1.000  C
  H114     1.0000 0.94340  0.26330  0.96700  Biso   1.000  H
  C183     1.0000 0.99540  0.29700  0.89030  Biso   1.000  C
  H115     1.0000 0.97200  0.33700  0.88680  Biso   1.000  H
  C184     1.0000 0.01910  0.09750  0.01800  Biso   1.000  C
  O47      1.0000 0.88280  0.82120  0.73550  Biso   1.000  O
  O48      1.0000 0.96800  0.88440  0.70990  Biso   1.000  O
  N47      1.0000 0.00840  0.65150  0.50620  Biso   1.000  N
  H116     1.0000 0.04520  0.66290  0.48690  Biso   1.000  H
  N48      1.0000 0.92700  0.57230  0.51040  Biso   1.000  N
  C185     1.0000 0.93450  0.83340  0.70310  Biso   1.000  C
  C186     1.0000 0.95390  0.78490  0.65250  Biso   1.000  C
  C187     1.0000 0.92110  0.72660  0.64660  Biso   1.000  C
  H117     1.0000 0.88610  0.71730  0.67580  Biso   1.000  H
  C188     1.0000 0.93730  0.68110  0.59970  Biso   1.000  C
  H118     1.0000 0.91320  0.64150  0.59640  Biso   1.000  H
  C189     1.0000 0.98920  0.69340  0.55720  Biso   1.000  C
  C190     1.0000 0.02200  0.75320  0.56240  Biso   1.000  C
  H119     1.0000 0.05660  0.76330  0.53300  Biso   1.000  H
  C191     1.0000 0.00460  0.79700  0.60970  Biso   1.000  C
  H120     1.0000 0.02800  0.83700  0.61320  Biso   1.000  H
  C192     1.0000 0.98090  0.59750  0.48200  Biso   1.000  C
  Gd5      1.0000 0.33384  0.66616  0.16616  Biso   1.000  Gd
  Gd6      1.0000 0.16616  0.33384  0.66616  Biso   1.000  Gd
  Gd7      1.0000 0.66616  0.16616  0.33384  Biso   1.000  Gd
  Gd8      1.0000 0.83384  0.83384  0.83384  Biso   1.000  Gd
