data_image0
_cell_length_a       20.3864
_cell_length_b       20.3864
_cell_length_c       20.3864
_cell_angle_alpha    90
_cell_angle_beta     90
_cell_angle_gamma    90

_symmetry_space_group_name_H-M    "P 1"
_symmetry_int_tables_number       1

loop_
  _symmetry_equiv_pos_as_xyz
  'x, y, z'

loop_
  _atom_site_label
  _atom_site_occupancy
  _atom_site_fract_x
  _atom_site_fract_y
  _atom_site_fract_z
  _atom_site_thermal_displace_type
  _atom_site_B_iso_or_equiv
  _atom_site_type_symbol
  O1       1.0000 0.13460  0.81230  0.24320  Biso   1.000  O
  O2       1.0000 0.05850  0.88390  0.21190  Biso   1.000  O
  N1       1.0000 0.99610  0.65090  0.01280  Biso   1.000  N
  H1       1.0000 0.95860  0.66350  0.99570  Biso   1.000  H
  N2       1.0000 0.98830  0.57460  0.93250  Biso   1.000  N
  C1       1.0000 0.08680  0.83000  0.20670  Biso   1.000  C
  C2       1.0000 0.06450  0.78180  0.15660  Biso   1.000  C
  C3       1.0000 0.01300  0.79680  0.11500  Biso   1.000  C
  H2       1.0000 0.99170  0.83810  0.11870  Biso   1.000  H
  C4       1.0000 0.99240  0.75310  0.06880  Biso   1.000  C
  H3       1.0000 0.95780  0.76500  0.04000  Biso   1.000  H
  C5       1.0000 0.02080  0.69170  0.06310  Biso   1.000  C
  C6       1.0000 0.07170  0.67540  0.10530  Biso   1.000  C
  H4       1.0000 0.09200  0.63360  0.10220  Biso   1.000  H
  C7       1.0000 0.09260  0.71970  0.15170  Biso   1.000  C
  H5       1.0000 0.12690  0.70780  0.18100  Biso   1.000  H
  C8       1.0000 0.02180  0.59490  0.98690  Biso   1.000  C
  O3       1.0000 0.36540  0.18770  0.74320  Biso   1.000  O
  O4       1.0000 0.44150  0.11610  0.71190  Biso   1.000  O
  N3       1.0000 0.50390  0.34910  0.51280  Biso   1.000  N
  H6       1.0000 0.54140  0.33650  0.49570  Biso   1.000  H
  N4       1.0000 0.51170  0.42540  0.43250  Biso   1.000  N
  C9       1.0000 0.41320  0.17000  0.70670  Biso   1.000  C
  C10      1.0000 0.43550  0.21820  0.65660  Biso   1.000  C
  C11      1.0000 0.48700  0.20320  0.61500  Biso   1.000  C
  H7       1.0000 0.50830  0.16190  0.61870  Biso   1.000  H
  C12      1.0000 0.50760  0.24690  0.56880  Biso   1.000  C
  H8       1.0000 0.54220  0.23500  0.54000  Biso   1.000  H
  C13      1.0000 0.47920  0.30830  0.56310  Biso   1.000  C
  C14      1.0000 0.42830  0.32460  0.60530  Biso   1.000  C
  H9       1.0000 0.40800  0.36640  0.60220  Biso   1.000  H
  C15      1.0000 0.40740  0.28030  0.65170  Biso   1.000  C
  H10      1.0000 0.37310  0.29220  0.68100  Biso   1.000  H
  C16      1.0000 0.47820  0.40510  0.48690  Biso   1.000  C
  O5       1.0000 0.86540  0.31230  0.25680  Biso   1.000  O
  O6       1.0000 0.94150  0.38390  0.28810  Biso   1.000  O
  N5       1.0000 0.00390  0.15090  0.48720  Biso   1.000  N
  H11      1.0000 0.04140  0.16350  0.50430  Biso   1.000  H
  N6       1.0000 0.01170  0.07460  0.56750  Biso   1.000  N
  C17      1.0000 0.91320  0.33000  0.29330  Biso   1.000  C
  C18      1.0000 0.93550  0.28180  0.34340  Biso   1.000  C
  C19      1.0000 0.98700  0.29680  0.38500  Biso   1.000  C
  H12      1.0000 0.00830  0.33810  0.38130  Biso   1.000  H
  C20      1.0000 0.00760  0.25310  0.43120  Biso   1.000  C
  H13      1.0000 0.04220  0.26500  0.46000  Biso   1.000  H
  C21      1.0000 0.97920  0.19170  0.43690  Biso   1.000  C
  C22      1.0000 0.92830  0.17540  0.39470  Biso   1.000  C
  H14      1.0000 0.90800  0.13360  0.39780  Biso   1.000  H
  C23      1.0000 0.90740  0.21970  0.34830  Biso   1.000  C
  H15      1.0000 0.87310  0.20780  0.31900  Biso   1.000  H
  C24      1.0000 0.97820  0.09490  0.51310  Biso   1.000  C
  O7       1.0000 0.63460  0.68770  0.75680  Biso   1.000  O
  O8       1.0000 0.55850  0.61610  0.78810  Biso   1.000  O
  N7       1.0000 0.49610  0.84910  0.98720  Biso   1.000  N
  H16      1.0000 0.45860  0.83650  0.00430  Biso   1.000  H
  N8       1.0000 0.48830  0.92540  0.06750  Biso   1.000  N
  C25      1.0000 0.58680  0.67000  0.79330  Biso   1.000  C
  C26      1.0000 0.56450  0.71820  0.84340  Biso   1.000  C
  C27      1.0000 0.51300  0.70320  0.88500  Biso   1.000  C
  H17      1.0000 0.49170  0.66190  0.88130  Biso   1.000  H
  C28      1.0000 0.49240  0.74690  0.93120  Biso   1.000  C
  H18      1.0000 0.45780  0.73500  0.96000  Biso   1.000  H
  C29      1.0000 0.52080  0.80830  0.93690  Biso   1.000  C
  C30      1.0000 0.57170  0.82460  0.89470  Biso   1.000  C
  H19      1.0000 0.59200  0.86640  0.89780  Biso   1.000  H
  C31      1.0000 0.59260  0.78030  0.84830  Biso   1.000  C
  H20      1.0000 0.62690  0.79220  0.81900  Biso   1.000  H
  C32      1.0000 0.52180  0.90510  0.01310  Biso   1.000  C
  O9       1.0000 0.24320  0.13460  0.81230  Biso   1.000  O
  O10      1.0000 0.21190  0.05850  0.88390  Biso   1.000  O
  N9       1.0000 0.01280  0.99610  0.65090  Biso   1.000  N
  H21      1.0000 0.99570  0.95860  0.66350  Biso   1.000  H
  N10      1.0000 0.93250  0.98830  0.57460  Biso   1.000  N
  C33      1.0000 0.20670  0.08680  0.83000  Biso   1.000  C
  C34      1.0000 0.15660  0.06450  0.78180  Biso   1.000  C
  C35      1.0000 0.11500  0.01300  0.79680  Biso   1.000  C
  H22      1.0000 0.11870  0.99170  0.83810  Biso   1.000  H
  C36      1.0000 0.06880  0.99240  0.75310  Biso   1.000  C
  H23      1.0000 0.04000  0.95780  0.76500  Biso   1.000  H
  C37      1.0000 0.06310  0.02080  0.69170  Biso   1.000  C
  C38      1.0000 0.10530  0.07170  0.67540  Biso   1.000  C
  H24      1.0000 0.10220  0.09200  0.63360  Biso   1.000  H
  C39      1.0000 0.15170  0.09260  0.71970  Biso   1.000  C
  H25      1.0000 0.18100  0.12690  0.70780  Biso   1.000  H
  C40      1.0000 0.98690  0.02180  0.59490  Biso   1.000  C
  O11      1.0000 0.74320  0.36540  0.18770  Biso   1.000  O
  O12      1.0000 0.71190  0.44150  0.11610  Biso   1.000  O
  N11      1.0000 0.51280  0.50390  0.34910  Biso   1.000  N
  H26      1.0000 0.49570  0.54140  0.33650  Biso   1.000  H
  N12      1.0000 0.43250  0.51170  0.42540  Biso   1.000  N
  C41      1.0000 0.70670  0.41320  0.17000  Biso   1.000  C
  C42      1.0000 0.65660  0.43550  0.21820  Biso   1.000  C
  C43      1.0000 0.61500  0.48700  0.20320  Biso   1.000  C
  H27      1.0000 0.61870  0.50830  0.16190  Biso   1.000  H
  C44      1.0000 0.56880  0.50760  0.24690  Biso   1.000  C
  H28      1.0000 0.54000  0.54220  0.23500  Biso   1.000  H
  C45      1.0000 0.56310  0.47920  0.30830  Biso   1.000  C
  C46      1.0000 0.60530  0.42830  0.32460  Biso   1.000  C
  H29      1.0000 0.60220  0.40800  0.36640  Biso   1.000  H
  C47      1.0000 0.65170  0.40740  0.28030  Biso   1.000  C
  H30      1.0000 0.68100  0.37310  0.29220  Biso   1.000  H
  C48      1.0000 0.48690  0.47820  0.40510  Biso   1.000  C
  O13      1.0000 0.25680  0.86540  0.31230  Biso   1.000  O
  O14      1.0000 0.28810  0.94150  0.38390  Biso   1.000  O
  N13      1.0000 0.48720  0.00390  0.15090  Biso   1.000  N
  H31      1.0000 0.50430  0.04140  0.16350  Biso   1.000  H
  N14      1.0000 0.56750  0.01170  0.07460  Biso   1.000  N
  C49      1.0000 0.29330  0.91320  0.33000  Biso   1.000  C
  C50      1.0000 0.34340  0.93550  0.28180  Biso   1.000  C
  C51      1.0000 0.38500  0.98700  0.29680  Biso   1.000  C
  H32      1.0000 0.38130  0.00830  0.33810  Biso   1.000  H
  C52      1.0000 0.43120  0.00760  0.25310  Biso   1.000  C
  H33      1.0000 0.46000  0.04220  0.26500  Biso   1.000  H
  C53      1.0000 0.43690  0.97920  0.19170  Biso   1.000  C
  C54      1.0000 0.39470  0.92830  0.17540  Biso   1.000  C
  H34      1.0000 0.39780  0.90800  0.13360  Biso   1.000  H
  C55      1.0000 0.34830  0.90740  0.21970  Biso   1.000  C
  H35      1.0000 0.31900  0.87310  0.20780  Biso   1.000  H
  C56      1.0000 0.51310  0.97820  0.09490  Biso   1.000  C
  O15      1.0000 0.75680  0.63460  0.68770  Biso   1.000  O
  O16      1.0000 0.78810  0.55850  0.61610  Biso   1.000  O
  N15      1.0000 0.98720  0.49610  0.84910  Biso   1.000  N
  H36      1.0000 0.00430  0.45860  0.83650  Biso   1.000  H
  N16      1.0000 0.06750  0.48830  0.92540  Biso   1.000  N
  C57      1.0000 0.79330  0.58680  0.67000  Biso   1.000  C
  C58      1.0000 0.84340  0.56450  0.71820  Biso   1.000  C
  C59      1.0000 0.88500  0.51300  0.70320  Biso   1.000  C
  H37      1.0000 0.88130  0.49170  0.66190  Biso   1.000  H
  C60      1.0000 0.93120  0.49240  0.74690  Biso   1.000  C
  H38      1.0000 0.96000  0.45780  0.73500  Biso   1.000  H
  C61      1.0000 0.93690  0.52080  0.80830  Biso   1.000  C
  C62      1.0000 0.89470  0.57170  0.82460  Biso   1.000  C
  H39      1.0000 0.89780  0.59200  0.86640  Biso   1.000  H
  C63      1.0000 0.84830  0.59260  0.78030  Biso   1.000  C
  H40      1.0000 0.81900  0.62690  0.79220  Biso   1.000  H
  C64      1.0000 0.01310  0.52180  0.90510  Biso   1.000  C
  O17      1.0000 0.81230  0.24320  0.13460  Biso   1.000  O
  O18      1.0000 0.88390  0.21190  0.05850  Biso   1.000  O
  N17      1.0000 0.65090  0.01280  0.99610  Biso   1.000  N
  H41      1.0000 0.66350  0.99570  0.95860  Biso   1.000  H
  N18      1.0000 0.57460  0.93250  0.98830  Biso   1.000  N
  C65      1.0000 0.83000  0.20670  0.08680  Biso   1.000  C
  C66      1.0000 0.78180  0.15660  0.06450  Biso   1.000  C
  C67      1.0000 0.79680  0.11500  0.01300  Biso   1.000  C
  H42      1.0000 0.83810  0.11870  0.99170  Biso   1.000  H
  C68      1.0000 0.75310  0.06880  0.99240  Biso   1.000  C
  H43      1.0000 0.76500  0.04000  0.95780  Biso   1.000  H
  C69      1.0000 0.69170  0.06310  0.02080  Biso   1.000  C
  C70      1.0000 0.67540  0.10530  0.07170  Biso   1.000  C
  H44      1.0000 0.63360  0.10220  0.09200  Biso   1.000  H
  C71      1.0000 0.71970  0.15170  0.09260  Biso   1.000  C
  H45      1.0000 0.70780  0.18100  0.12690  Biso   1.000  H
  C72      1.0000 0.59490  0.98690  0.02180  Biso   1.000  C
  O19      1.0000 0.18770  0.74320  0.36540  Biso   1.000  O
  O20      1.0000 0.11610  0.71190  0.44150  Biso   1.000  O
  N19      1.0000 0.34910  0.51280  0.50390  Biso   1.000  N
  H46      1.0000 0.33650  0.49570  0.54140  Biso   1.000  H
  N20      1.0000 0.42540  0.43250  0.51170  Biso   1.000  N
  C73      1.0000 0.17000  0.70670  0.41320  Biso   1.000  C
  C74      1.0000 0.21820  0.65660  0.43550  Biso   1.000  C
  C75      1.0000 0.20320  0.61500  0.48700  Biso   1.000  C
  H47      1.0000 0.16190  0.61870  0.50830  Biso   1.000  H
  C76      1.0000 0.24690  0.56880  0.50760  Biso   1.000  C
  H48      1.0000 0.23500  0.54000  0.54220  Biso   1.000  H
  C77      1.0000 0.30830  0.56310  0.47920  Biso   1.000  C
  C78      1.0000 0.32460  0.60530  0.42830  Biso   1.000  C
  H49      1.0000 0.36640  0.60220  0.40800  Biso   1.000  H
  C79      1.0000 0.28030  0.65170  0.40740  Biso   1.000  C
  H50      1.0000 0.29220  0.68100  0.37310  Biso   1.000  H
  C80      1.0000 0.40510  0.48690  0.47820  Biso   1.000  C
  O21      1.0000 0.31230  0.25680  0.86540  Biso   1.000  O
  O22      1.0000 0.38390  0.28810  0.94150  Biso   1.000  O
  N21      1.0000 0.15090  0.48720  0.00390  Biso   1.000  N
  H51      1.0000 0.16350  0.50430  0.04140  Biso   1.000  H
  N22      1.0000 0.07460  0.56750  0.01170  Biso   1.000  N
  C81      1.0000 0.33000  0.29330  0.91320  Biso   1.000  C
  C82      1.0000 0.28180  0.34340  0.93550  Biso   1.000  C
  C83      1.0000 0.29680  0.38500  0.98700  Biso   1.000  C
  H52      1.0000 0.33810  0.38130  0.00830  Biso   1.000  H
  C84      1.0000 0.25310  0.43120  0.00760  Biso   1.000  C
  H53      1.0000 0.26500  0.46000  0.04220  Biso   1.000  H
  C85      1.0000 0.19170  0.43690  0.97920  Biso   1.000  C
  C86      1.0000 0.17540  0.39470  0.92830  Biso   1.000  C
  H54      1.0000 0.13360  0.39780  0.90800  Biso   1.000  H
  C87      1.0000 0.21970  0.34830  0.90740  Biso   1.000  C
  H55      1.0000 0.20780  0.31900  0.87310  Biso   1.000  H
  C88      1.0000 0.09490  0.51310  0.97820  Biso   1.000  C
  O23      1.0000 0.68770  0.75680  0.63460  Biso   1.000  O
  O24      1.0000 0.61610  0.78810  0.55850  Biso   1.000  O
  N23      1.0000 0.84910  0.98720  0.49610  Biso   1.000  N
  H56      1.0000 0.83650  0.00430  0.45860  Biso   1.000  H
  N24      1.0000 0.92540  0.06750  0.48830  Biso   1.000  N
  C89      1.0000 0.67000  0.79330  0.58680  Biso   1.000  C
  C90      1.0000 0.71820  0.84340  0.56450  Biso   1.000  C
  C91      1.0000 0.70320  0.88500  0.51300  Biso   1.000  C
  H57      1.0000 0.66190  0.88130  0.49170  Biso   1.000  H
  C92      1.0000 0.74690  0.93120  0.49240  Biso   1.000  C
  H58      1.0000 0.73500  0.96000  0.45780  Biso   1.000  H
  C93      1.0000 0.80830  0.93690  0.52080  Biso   1.000  C
  C94      1.0000 0.82460  0.89470  0.57170  Biso   1.000  C
  H59      1.0000 0.86640  0.89780  0.59200  Biso   1.000  H
  C95      1.0000 0.78030  0.84830  0.59260  Biso   1.000  C
  H60      1.0000 0.79220  0.81900  0.62690  Biso   1.000  H
  C96      1.0000 0.90510  0.01310  0.52180  Biso   1.000  C
  Er1      1.0000 0.15499  0.84501  0.34501  Biso   1.000  Er
  Er2      1.0000 0.34501  0.15499  0.84501  Biso   1.000  Er
  Er3      1.0000 0.84501  0.34501  0.15499  Biso   1.000  Er
  Er4      1.0000 0.65499  0.65499  0.65499  Biso   1.000  Er
  O25      1.0000 0.23770  0.61900  0.18050  Biso   1.000  O
  O26      1.0000 0.21170  0.53560  0.11530  Biso   1.000  O
  N25      1.0000 0.00920  0.49000  0.35040  Biso   1.000  N
  H61      1.0000 0.99130  0.45220  0.33980  Biso   1.000  H
  N26      1.0000 0.01180  0.57110  0.43070  Biso   1.000  N
  C97      1.0000 0.20420  0.56830  0.16660  Biso   1.000  C
  C98      1.0000 0.15460  0.54860  0.21640  Biso   1.000  C
  C99      1.0000 0.14920  0.58030  0.27540  Biso   1.000  C
  H62      1.0000 0.17810  0.61560  0.28510  Biso   1.000  H
  C100     1.0000 0.10210  0.56210  0.32160  Biso   1.000  C
  H63      1.0000 0.09950  0.58470  0.36230  Biso   1.000  H
  C101     1.0000 0.05860  0.51050  0.30830  Biso   1.000  C
  C102     1.0000 0.06490  0.47890  0.24830  Biso   1.000  C
  H64      1.0000 0.03600  0.44370  0.23840  Biso   1.000  H
  C103     1.0000 0.11080  0.49650  0.20300  Biso   1.000  C
  H65      1.0000 0.11340  0.47380  0.16250  Biso   1.000  H
  C104     1.0000 0.98390  0.51780  0.40480  Biso   1.000  C
  O27      1.0000 0.26230  0.38100  0.68050  Biso   1.000  O
  O28      1.0000 0.28830  0.46440  0.61530  Biso   1.000  O
  N27      1.0000 0.49080  0.51000  0.85040  Biso   1.000  N
  H66      1.0000 0.50870  0.54780  0.83980  Biso   1.000  H
  N28      1.0000 0.48820  0.42890  0.93070  Biso   1.000  N
  C105     1.0000 0.29580  0.43170  0.66660  Biso   1.000  C
  C106     1.0000 0.34540  0.45140  0.71640  Biso   1.000  C
  C107     1.0000 0.35080  0.41970  0.77540  Biso   1.000  C
  H67      1.0000 0.32190  0.38440  0.78510  Biso   1.000  H
  C108     1.0000 0.39790  0.43790  0.82160  Biso   1.000  C
  H68      1.0000 0.40050  0.41530  0.86230  Biso   1.000  H
  C109     1.0000 0.44140  0.48950  0.80830  Biso   1.000  C
  C110     1.0000 0.43510  0.52110  0.74830  Biso   1.000  C
  H69      1.0000 0.46400  0.55630  0.73840  Biso   1.000  H
  C111     1.0000 0.38920  0.50350  0.70300  Biso   1.000  C
  H70      1.0000 0.38660  0.52620  0.66250  Biso   1.000  H
  C112     1.0000 0.51610  0.48220  0.90480  Biso   1.000  C
  O29      1.0000 0.76230  0.11900  0.31950  Biso   1.000  O
  O30      1.0000 0.78830  0.03560  0.38470  Biso   1.000  O
  N29      1.0000 0.99080  0.99000  0.14960  Biso   1.000  N
  H71      1.0000 0.00870  0.95220  0.16020  Biso   1.000  H
  N30      1.0000 0.98820  0.07110  0.06930  Biso   1.000  N
  C113     1.0000 0.79580  0.06830  0.33340  Biso   1.000  C
  C114     1.0000 0.84540  0.04860  0.28360  Biso   1.000  C
  C115     1.0000 0.85080  0.08030  0.22460  Biso   1.000  C
  H72      1.0000 0.82190  0.11560  0.21490  Biso   1.000  H
  C116     1.0000 0.89790  0.06210  0.17840  Biso   1.000  C
  H73      1.0000 0.90050  0.08470  0.13770  Biso   1.000  H
  C117     1.0000 0.94140  0.01050  0.19170  Biso   1.000  C
  C118     1.0000 0.93510  0.97890  0.25170  Biso   1.000  C
  H74      1.0000 0.96400  0.94370  0.26160  Biso   1.000  H
  C119     1.0000 0.88920  0.99650  0.29700  Biso   1.000  C
  H75      1.0000 0.88660  0.97380  0.33750  Biso   1.000  H
  C120     1.0000 0.01610  0.01780  0.09520  Biso   1.000  C
  O31      1.0000 0.73770  0.88100  0.81950  Biso   1.000  O
  O32      1.0000 0.71170  0.96440  0.88470  Biso   1.000  O
  N31      1.0000 0.50920  0.01000  0.64960  Biso   1.000  N
  H76      1.0000 0.49130  0.04780  0.66020  Biso   1.000  H
  N32      1.0000 0.51180  0.92890  0.56930  Biso   1.000  N
  C121     1.0000 0.70420  0.93170  0.83340  Biso   1.000  C
  C122     1.0000 0.65460  0.95140  0.78360  Biso   1.000  C
  C123     1.0000 0.64920  0.91970  0.72460  Biso   1.000  C
  H77      1.0000 0.67810  0.88440  0.71490  Biso   1.000  H
  C124     1.0000 0.60210  0.93790  0.67840  Biso   1.000  C
  H78      1.0000 0.59950  0.91530  0.63770  Biso   1.000  H
  C125     1.0000 0.55860  0.98950  0.69170  Biso   1.000  C
  C126     1.0000 0.56490  0.02110  0.75170  Biso   1.000  C
  H79      1.0000 0.53600  0.05630  0.76160  Biso   1.000  H
  C127     1.0000 0.61080  0.00350  0.79700  Biso   1.000  C
  H80      1.0000 0.61340  0.02620  0.83750  Biso   1.000  H
  C128     1.0000 0.48390  0.98220  0.59520  Biso   1.000  C
  O33      1.0000 0.18050  0.23770  0.61900  Biso   1.000  O
  O34      1.0000 0.11530  0.21170  0.53560  Biso   1.000  O
  N33      1.0000 0.35040  0.00920  0.49000  Biso   1.000  N
  H81      1.0000 0.33980  0.99130  0.45220  Biso   1.000  H
  N34      1.0000 0.43070  0.01180  0.57110  Biso   1.000  N
  C129     1.0000 0.16660  0.20420  0.56830  Biso   1.000  C
  C130     1.0000 0.21640  0.15460  0.54860  Biso   1.000  C
  C131     1.0000 0.27540  0.14920  0.58030  Biso   1.000  C
  H82      1.0000 0.28510  0.17810  0.61560  Biso   1.000  H
  C132     1.0000 0.32160  0.10210  0.56210  Biso   1.000  C
  H83      1.0000 0.36230  0.09950  0.58470  Biso   1.000  H
  C133     1.0000 0.30830  0.05860  0.51050  Biso   1.000  C
  C134     1.0000 0.24830  0.06490  0.47890  Biso   1.000  C
  H84      1.0000 0.23840  0.03600  0.44370  Biso   1.000  H
  C135     1.0000 0.20300  0.11080  0.49650  Biso   1.000  C
  H85      1.0000 0.16250  0.11340  0.47380  Biso   1.000  H
  C136     1.0000 0.40480  0.98390  0.51780  Biso   1.000  C
  O35      1.0000 0.68050  0.26230  0.38100  Biso   1.000  O
  O36      1.0000 0.61530  0.28830  0.46440  Biso   1.000  O
  N35      1.0000 0.85040  0.49080  0.51000  Biso   1.000  N
  H86      1.0000 0.83980  0.50870  0.54780  Biso   1.000  H
  N36      1.0000 0.93070  0.48820  0.42890  Biso   1.000  N
  C137     1.0000 0.66660  0.29580  0.43170  Biso   1.000  C
  C138     1.0000 0.71640  0.34540  0.45140  Biso   1.000  C
  C139     1.0000 0.77540  0.35080  0.41970  Biso   1.000  C
  H87      1.0000 0.78510  0.32190  0.38440  Biso   1.000  H
  C140     1.0000 0.82160  0.39790  0.43790  Biso   1.000  C
  H88      1.0000 0.86230  0.40050  0.41530  Biso   1.000  H
  C141     1.0000 0.80830  0.44140  0.48950  Biso   1.000  C
  C142     1.0000 0.74830  0.43510  0.52110  Biso   1.000  C
  H89      1.0000 0.73840  0.46400  0.55630  Biso   1.000  H
  C143     1.0000 0.70300  0.38920  0.50350  Biso   1.000  C
  H90      1.0000 0.66250  0.38660  0.52620  Biso   1.000  H
  C144     1.0000 0.90480  0.51610  0.48220  Biso   1.000  C
  O37      1.0000 0.31950  0.76230  0.11900  Biso   1.000  O
  O38      1.0000 0.38470  0.78830  0.03560  Biso   1.000  O
  N37      1.0000 0.14960  0.99080  0.99000  Biso   1.000  N
  H91      1.0000 0.16020  0.00870  0.95220  Biso   1.000  H
  N38      1.0000 0.06930  0.98820  0.07110  Biso   1.000  N
  C145     1.0000 0.33340  0.79580  0.06830  Biso   1.000  C
  C146     1.0000 0.28360  0.84540  0.04860  Biso   1.000  C
  C147     1.0000 0.22460  0.85080  0.08030  Biso   1.000  C
  H92      1.0000 0.21490  0.82190  0.11560  Biso   1.000  H
  C148     1.0000 0.17840  0.89790  0.06210  Biso   1.000  C
  H93      1.0000 0.13770  0.90050  0.08470  Biso   1.000  H
  C149     1.0000 0.19170  0.94140  0.01050  Biso   1.000  C
  C150     1.0000 0.25170  0.93510  0.97890  Biso   1.000  C
  H94      1.0000 0.26160  0.96400  0.94370  Biso   1.000  H
  C151     1.0000 0.29700  0.88920  0.99650  Biso   1.000  C
  H95      1.0000 0.33750  0.88660  0.97380  Biso   1.000  H
  C152     1.0000 0.09520  0.01610  0.01780  Biso   1.000  C
  O39      1.0000 0.81950  0.73770  0.88100  Biso   1.000  O
  O40      1.0000 0.88470  0.71170  0.96440  Biso   1.000  O
  N39      1.0000 0.64960  0.50920  0.01000  Biso   1.000  N
  H96      1.0000 0.66020  0.49130  0.04780  Biso   1.000  H
  N40      1.0000 0.56930  0.51180  0.92890  Biso   1.000  N
  C153     1.0000 0.83340  0.70420  0.93170  Biso   1.000  C
  C154     1.0000 0.78360  0.65460  0.95140  Biso   1.000  C
  C155     1.0000 0.72460  0.64920  0.91970  Biso   1.000  C
  H97      1.0000 0.71490  0.67810  0.88440  Biso   1.000  H
  C156     1.0000 0.67840  0.60210  0.93790  Biso   1.000  C
  H98      1.0000 0.63770  0.59950  0.91530  Biso   1.000  H
  C157     1.0000 0.69170  0.55860  0.98950  Biso   1.000  C
  C158     1.0000 0.75170  0.56490  0.02110  Biso   1.000  C
  H99      1.0000 0.76160  0.53600  0.05630  Biso   1.000  H
  C159     1.0000 0.79700  0.61080  0.00350  Biso   1.000  C
  H100     1.0000 0.83750  0.61340  0.02620  Biso   1.000  H
  C160     1.0000 0.59520  0.48390  0.98220  Biso   1.000  C
  O41      1.0000 0.61900  0.18050  0.23770  Biso   1.000  O
  O42      1.0000 0.53560  0.11530  0.21170  Biso   1.000  O
  N41      1.0000 0.49000  0.35040  0.00920  Biso   1.000  N
  H101     1.0000 0.45220  0.33980  0.99130  Biso   1.000  H
  N42      1.0000 0.57110  0.43070  0.01180  Biso   1.000  N
  C161     1.0000 0.56830  0.16660  0.20420  Biso   1.000  C
  C162     1.0000 0.54860  0.21640  0.15460  Biso   1.000  C
  C163     1.0000 0.58030  0.27540  0.14920  Biso   1.000  C
  H102     1.0000 0.61560  0.28510  0.17810  Biso   1.000  H
  C164     1.0000 0.56210  0.32160  0.10210  Biso   1.000  C
  H103     1.0000 0.58470  0.36230  0.09950  Biso   1.000  H
  C165     1.0000 0.51050  0.30830  0.05860  Biso   1.000  C
  C166     1.0000 0.47890  0.24830  0.06490  Biso   1.000  C
  H104     1.0000 0.44370  0.23840  0.03600  Biso   1.000  H
  C167     1.0000 0.49650  0.20300  0.11080  Biso   1.000  C
  H105     1.0000 0.47380  0.16250  0.11340  Biso   1.000  H
  C168     1.0000 0.51780  0.40480  0.98390  Biso   1.000  C
  O43      1.0000 0.38100  0.68050  0.26230  Biso   1.000  O
  O44      1.0000 0.46440  0.61530  0.28830  Biso   1.000  O
  N43      1.0000 0.51000  0.85040  0.49080  Biso   1.000  N
  H106     1.0000 0.54780  0.83980  0.50870  Biso   1.000  H
  N44      1.0000 0.42890  0.93070  0.48820  Biso   1.000  N
  C169     1.0000 0.43170  0.66660  0.29580  Biso   1.000  C
  C170     1.0000 0.45140  0.71640  0.34540  Biso   1.000  C
  C171     1.0000 0.41970  0.77540  0.35080  Biso   1.000  C
  H107     1.0000 0.38440  0.78510  0.32190  Biso   1.000  H
  C172     1.0000 0.43790  0.82160  0.39790  Biso   1.000  C
  H108     1.0000 0.41530  0.86230  0.40050  Biso   1.000  H
  C173     1.0000 0.48950  0.80830  0.44140  Biso   1.000  C
  C174     1.0000 0.52110  0.74830  0.43510  Biso   1.000  C
  H109     1.0000 0.55630  0.73840  0.46400  Biso   1.000  H
  C175     1.0000 0.50350  0.70300  0.38920  Biso   1.000  C
  H110     1.0000 0.52620  0.66250  0.38660  Biso   1.000  H
  C176     1.0000 0.48220  0.90480  0.51610  Biso   1.000  C
  O45      1.0000 0.11900  0.31950  0.76230  Biso   1.000  O
  O46      1.0000 0.03560  0.38470  0.78830  Biso   1.000  O
  N45      1.0000 0.99000  0.14960  0.99080  Biso   1.000  N
  H111     1.0000 0.95220  0.16020  0.00870  Biso   1.000  H
  N46      1.0000 0.07110  0.06930  0.98820  Biso   1.000  N
  C177     1.0000 0.06830  0.33340  0.79580  Biso   1.000  C
  C178     1.0000 0.04860  0.28360  0.84540  Biso   1.000  C
  C179     1.0000 0.08030  0.22460  0.85080  Biso   1.000  C
  H112     1.0000 0.11560  0.21490  0.82190  Biso   1.000  H
  C180     1.0000 0.06210  0.17840  0.89790  Biso   1.000  C
  H113     1.0000 0.08470  0.13770  0.90050  Biso   1.000  H
  C181     1.0000 0.01050  0.19170  0.94140  Biso   1.000  C
  C182     1.0000 0.97890  0.25170  0.93510  Biso   1.000  C
  H114     1.0000 0.94370  0.26160  0.96400  Biso   1.000  H
  C183     1.0000 0.99650  0.29700  0.88920  Biso   1.000  C
  H115     1.0000 0.97380  0.33750  0.88660  Biso   1.000  H
  C184     1.0000 0.01780  0.09520  0.01610  Biso   1.000  C
  O47      1.0000 0.88100  0.81950  0.73770  Biso   1.000  O
  O48      1.0000 0.96440  0.88470  0.71170  Biso   1.000  O
  N47      1.0000 0.01000  0.64960  0.50920  Biso   1.000  N
  H116     1.0000 0.04780  0.66020  0.49130  Biso   1.000  H
  N48      1.0000 0.92890  0.56930  0.51180  Biso   1.000  N
  C185     1.0000 0.93170  0.83340  0.70420  Biso   1.000  C
  C186     1.0000 0.95140  0.78360  0.65460  Biso   1.000  C
  C187     1.0000 0.91970  0.72460  0.64920  Biso   1.000  C
  H117     1.0000 0.88440  0.71490  0.67810  Biso   1.000  H
  C188     1.0000 0.93790  0.67840  0.60210  Biso   1.000  C
  H118     1.0000 0.91530  0.63770  0.59950  Biso   1.000  H
  C189     1.0000 0.98950  0.69170  0.55860  Biso   1.000  C
  C190     1.0000 0.02110  0.75170  0.56490  Biso   1.000  C
  H119     1.0000 0.05630  0.76160  0.53600  Biso   1.000  H
  C191     1.0000 0.00350  0.79700  0.61080  Biso   1.000  C
  H120     1.0000 0.02620  0.83750  0.61340  Biso   1.000  H
  C192     1.0000 0.98220  0.59520  0.48390  Biso   1.000  C
  Er5      1.0000 0.33326  0.66674  0.16674  Biso   1.000  Er
  Er6      1.0000 0.16674  0.33326  0.66674  Biso   1.000  Er
  Er7      1.0000 0.66674  0.16674  0.33326  Biso   1.000  Er
  Er8      1.0000 0.83326  0.83326  0.83326  Biso   1.000  Er
