data_image0
_cell_length_a       20.4032
_cell_length_b       20.4032
_cell_length_c       20.4032
_cell_angle_alpha    90
_cell_angle_beta     90
_cell_angle_gamma    90

_symmetry_space_group_name_H-M    "P 1"
_symmetry_int_tables_number       1

loop_
  _symmetry_equiv_pos_as_xyz
  'x, y, z'

loop_
  _atom_site_label
  _atom_site_occupancy
  _atom_site_fract_x
  _atom_site_fract_y
  _atom_site_fract_z
  _atom_site_thermal_displace_type
  _atom_site_B_iso_or_equiv
  _atom_site_type_symbol
  O1       1.0000 0.13440  0.81100  0.24393  Biso   1.000  O
  O2       1.0000 0.05940  0.88358  0.21200  Biso   1.000  O
  N1       1.0000 0.99790  0.65230  0.01160  Biso   1.000  N
  H1       1.0000 0.96070  0.66550  0.99410  Biso   1.000  H
  N2       1.0000 0.98960  0.57600  0.93120  Biso   1.000  N
  C1       1.0000 0.08720  0.82930  0.20680  Biso   1.000  C
  C2       1.0000 0.06510  0.78150  0.15620  Biso   1.000  C
  C3       1.0000 0.01390  0.79660  0.11470  Biso   1.000  C
  H2       1.0000 0.99270  0.83780  0.11870  Biso   1.000  H
  C4       1.0000 0.99350  0.75360  0.06830  Biso   1.000  C
  H3       1.0000 0.95910  0.76580  0.03940  Biso   1.000  H
  C5       1.0000 0.02180  0.69190  0.06220  Biso   1.000  C
  C6       1.0000 0.07310  0.67610  0.10450  Biso   1.000  C
  H4       1.0000 0.09410  0.63470  0.10090  Biso   1.000  H
  C7       1.0000 0.09350  0.71990  0.15100  Biso   1.000  C
  H5       1.0000 0.12760  0.70790  0.18030  Biso   1.000  H
  C8       1.0000 0.02320  0.59650  0.98530  Biso   1.000  C
  O3       1.0000 0.36560  0.18900  0.74393  Biso   1.000  O
  O4       1.0000 0.44060  0.11642  0.71200  Biso   1.000  O
  N3       1.0000 0.50210  0.34770  0.51160  Biso   1.000  N
  H6       1.0000 0.53930  0.33450  0.49410  Biso   1.000  H
  N4       1.0000 0.51040  0.42400  0.43120  Biso   1.000  N
  C9       1.0000 0.41280  0.17070  0.70680  Biso   1.000  C
  C10      1.0000 0.43490  0.21850  0.65620  Biso   1.000  C
  C11      1.0000 0.48610  0.20340  0.61470  Biso   1.000  C
  H7       1.0000 0.50730  0.16220  0.61870  Biso   1.000  H
  C12      1.0000 0.50650  0.24640  0.56830  Biso   1.000  C
  H8       1.0000 0.54090  0.23420  0.53940  Biso   1.000  H
  C13      1.0000 0.47820  0.30810  0.56220  Biso   1.000  C
  C14      1.0000 0.42690  0.32390  0.60450  Biso   1.000  C
  H9       1.0000 0.40590  0.36530  0.60090  Biso   1.000  H
  C15      1.0000 0.40650  0.28010  0.65100  Biso   1.000  C
  H10      1.0000 0.37240  0.29210  0.68030  Biso   1.000  H
  C16      1.0000 0.47680  0.40350  0.48530  Biso   1.000  C
  O5       1.0000 0.86560  0.31100  0.25607  Biso   1.000  O
  O6       1.0000 0.94060  0.38358  0.28800  Biso   1.000  O
  N5       1.0000 0.00210  0.15230  0.48840  Biso   1.000  N
  H11      1.0000 0.03930  0.16550  0.50590  Biso   1.000  H
  N6       1.0000 0.01040  0.07600  0.56880  Biso   1.000  N
  C17      1.0000 0.91280  0.32930  0.29320  Biso   1.000  C
  C18      1.0000 0.93490  0.28150  0.34380  Biso   1.000  C
  C19      1.0000 0.98610  0.29660  0.38530  Biso   1.000  C
  H12      1.0000 0.00730  0.33780  0.38130  Biso   1.000  H
  C20      1.0000 0.00650  0.25360  0.43170  Biso   1.000  C
  H13      1.0000 0.04090  0.26580  0.46060  Biso   1.000  H
  C21      1.0000 0.97820  0.19190  0.43780  Biso   1.000  C
  C22      1.0000 0.92690  0.17610  0.39550  Biso   1.000  C
  H14      1.0000 0.90590  0.13470  0.39910  Biso   1.000  H
  C23      1.0000 0.90650  0.21990  0.34900  Biso   1.000  C
  H15      1.0000 0.87240  0.20790  0.31970  Biso   1.000  H
  C24      1.0000 0.97680  0.09650  0.51470  Biso   1.000  C
  O7       1.0000 0.63440  0.68900  0.75607  Biso   1.000  O
  O8       1.0000 0.55940  0.61642  0.78800  Biso   1.000  O
  N7       1.0000 0.49790  0.84770  0.98840  Biso   1.000  N
  H16      1.0000 0.46070  0.83450  0.00590  Biso   1.000  H
  N8       1.0000 0.48960  0.92400  0.06880  Biso   1.000  N
  C25      1.0000 0.58720  0.67070  0.79320  Biso   1.000  C
  C26      1.0000 0.56510  0.71850  0.84380  Biso   1.000  C
  C27      1.0000 0.51390  0.70340  0.88530  Biso   1.000  C
  H17      1.0000 0.49270  0.66220  0.88130  Biso   1.000  H
  C28      1.0000 0.49350  0.74640  0.93170  Biso   1.000  C
  H18      1.0000 0.45910  0.73420  0.96060  Biso   1.000  H
  C29      1.0000 0.52180  0.80810  0.93780  Biso   1.000  C
  C30      1.0000 0.57310  0.82390  0.89550  Biso   1.000  C
  H19      1.0000 0.59410  0.86530  0.89910  Biso   1.000  H
  C31      1.0000 0.59350  0.78010  0.84900  Biso   1.000  C
  H20      1.0000 0.62760  0.79210  0.81970  Biso   1.000  H
  C32      1.0000 0.52320  0.90350  0.01470  Biso   1.000  C
  O9       1.0000 0.24393  0.13440  0.81100  Biso   1.000  O
  O10      1.0000 0.21200  0.05940  0.88358  Biso   1.000  O
  N9       1.0000 0.01160  0.99790  0.65230  Biso   1.000  N
  H21      1.0000 0.99410  0.96070  0.66550  Biso   1.000  H
  N10      1.0000 0.93120  0.98960  0.57600  Biso   1.000  N
  C33      1.0000 0.20680  0.08720  0.82930  Biso   1.000  C
  C34      1.0000 0.15620  0.06510  0.78150  Biso   1.000  C
  C35      1.0000 0.11470  0.01390  0.79660  Biso   1.000  C
  H22      1.0000 0.11870  0.99270  0.83780  Biso   1.000  H
  C36      1.0000 0.06830  0.99350  0.75360  Biso   1.000  C
  H23      1.0000 0.03940  0.95910  0.76580  Biso   1.000  H
  C37      1.0000 0.06220  0.02180  0.69190  Biso   1.000  C
  C38      1.0000 0.10450  0.07310  0.67610  Biso   1.000  C
  H24      1.0000 0.10090  0.09410  0.63470  Biso   1.000  H
  C39      1.0000 0.15100  0.09350  0.71990  Biso   1.000  C
  H25      1.0000 0.18030  0.12760  0.70790  Biso   1.000  H
  C40      1.0000 0.98530  0.02320  0.59650  Biso   1.000  C
  O11      1.0000 0.74393  0.36560  0.18900  Biso   1.000  O
  O12      1.0000 0.71200  0.44060  0.11642  Biso   1.000  O
  N11      1.0000 0.51160  0.50210  0.34770  Biso   1.000  N
  H26      1.0000 0.49410  0.53930  0.33450  Biso   1.000  H
  N12      1.0000 0.43120  0.51040  0.42400  Biso   1.000  N
  C41      1.0000 0.70680  0.41280  0.17070  Biso   1.000  C
  C42      1.0000 0.65620  0.43490  0.21850  Biso   1.000  C
  C43      1.0000 0.61470  0.48610  0.20340  Biso   1.000  C
  H27      1.0000 0.61870  0.50730  0.16220  Biso   1.000  H
  C44      1.0000 0.56830  0.50650  0.24640  Biso   1.000  C
  H28      1.0000 0.53940  0.54090  0.23420  Biso   1.000  H
  C45      1.0000 0.56220  0.47820  0.30810  Biso   1.000  C
  C46      1.0000 0.60450  0.42690  0.32390  Biso   1.000  C
  H29      1.0000 0.60090  0.40590  0.36530  Biso   1.000  H
  C47      1.0000 0.65100  0.40650  0.28010  Biso   1.000  C
  H30      1.0000 0.68030  0.37240  0.29210  Biso   1.000  H
  C48      1.0000 0.48530  0.47680  0.40350  Biso   1.000  C
  O13      1.0000 0.25607  0.86560  0.31100  Biso   1.000  O
  O14      1.0000 0.28800  0.94060  0.38358  Biso   1.000  O
  N13      1.0000 0.48840  0.00210  0.15230  Biso   1.000  N
  H31      1.0000 0.50590  0.03930  0.16550  Biso   1.000  H
  N14      1.0000 0.56880  0.01040  0.07600  Biso   1.000  N
  C49      1.0000 0.29320  0.91280  0.32930  Biso   1.000  C
  C50      1.0000 0.34380  0.93490  0.28150  Biso   1.000  C
  C51      1.0000 0.38530  0.98610  0.29660  Biso   1.000  C
  H32      1.0000 0.38130  0.00730  0.33780  Biso   1.000  H
  C52      1.0000 0.43170  0.00650  0.25360  Biso   1.000  C
  H33      1.0000 0.46060  0.04090  0.26580  Biso   1.000  H
  C53      1.0000 0.43780  0.97820  0.19190  Biso   1.000  C
  C54      1.0000 0.39550  0.92690  0.17610  Biso   1.000  C
  H34      1.0000 0.39910  0.90590  0.13470  Biso   1.000  H
  C55      1.0000 0.34900  0.90650  0.21990  Biso   1.000  C
  H35      1.0000 0.31970  0.87240  0.20790  Biso   1.000  H
  C56      1.0000 0.51470  0.97680  0.09650  Biso   1.000  C
  O15      1.0000 0.75607  0.63440  0.68900  Biso   1.000  O
  O16      1.0000 0.78800  0.55940  0.61642  Biso   1.000  O
  N15      1.0000 0.98840  0.49790  0.84770  Biso   1.000  N
  H36      1.0000 0.00590  0.46070  0.83450  Biso   1.000  H
  N16      1.0000 0.06880  0.48960  0.92400  Biso   1.000  N
  C57      1.0000 0.79320  0.58720  0.67070  Biso   1.000  C
  C58      1.0000 0.84380  0.56510  0.71850  Biso   1.000  C
  C59      1.0000 0.88530  0.51390  0.70340  Biso   1.000  C
  H37      1.0000 0.88130  0.49270  0.66220  Biso   1.000  H
  C60      1.0000 0.93170  0.49350  0.74640  Biso   1.000  C
  H38      1.0000 0.96060  0.45910  0.73420  Biso   1.000  H
  C61      1.0000 0.93780  0.52180  0.80810  Biso   1.000  C
  C62      1.0000 0.89550  0.57310  0.82390  Biso   1.000  C
  H39      1.0000 0.89910  0.59410  0.86530  Biso   1.000  H
  C63      1.0000 0.84900  0.59350  0.78010  Biso   1.000  C
  H40      1.0000 0.81970  0.62760  0.79210  Biso   1.000  H
  C64      1.0000 0.01470  0.52320  0.90350  Biso   1.000  C
  O17      1.0000 0.81100  0.24393  0.13440  Biso   1.000  O
  O18      1.0000 0.88358  0.21200  0.05940  Biso   1.000  O
  N17      1.0000 0.65230  0.01160  0.99790  Biso   1.000  N
  H41      1.0000 0.66550  0.99410  0.96070  Biso   1.000  H
  N18      1.0000 0.57600  0.93120  0.98960  Biso   1.000  N
  C65      1.0000 0.82930  0.20680  0.08720  Biso   1.000  C
  C66      1.0000 0.78150  0.15620  0.06510  Biso   1.000  C
  C67      1.0000 0.79660  0.11470  0.01390  Biso   1.000  C
  H42      1.0000 0.83780  0.11870  0.99270  Biso   1.000  H
  C68      1.0000 0.75360  0.06830  0.99350  Biso   1.000  C
  H43      1.0000 0.76580  0.03940  0.95910  Biso   1.000  H
  C69      1.0000 0.69190  0.06220  0.02180  Biso   1.000  C
  C70      1.0000 0.67610  0.10450  0.07310  Biso   1.000  C
  H44      1.0000 0.63470  0.10090  0.09410  Biso   1.000  H
  C71      1.0000 0.71990  0.15100  0.09350  Biso   1.000  C
  H45      1.0000 0.70790  0.18030  0.12760  Biso   1.000  H
  C72      1.0000 0.59650  0.98530  0.02320  Biso   1.000  C
  O19      1.0000 0.18900  0.74393  0.36560  Biso   1.000  O
  O20      1.0000 0.11642  0.71200  0.44060  Biso   1.000  O
  N19      1.0000 0.34770  0.51160  0.50210  Biso   1.000  N
  H46      1.0000 0.33450  0.49410  0.53930  Biso   1.000  H
  N20      1.0000 0.42400  0.43120  0.51040  Biso   1.000  N
  C73      1.0000 0.17070  0.70680  0.41280  Biso   1.000  C
  C74      1.0000 0.21850  0.65620  0.43490  Biso   1.000  C
  C75      1.0000 0.20340  0.61470  0.48610  Biso   1.000  C
  H47      1.0000 0.16220  0.61870  0.50730  Biso   1.000  H
  C76      1.0000 0.24640  0.56830  0.50650  Biso   1.000  C
  H48      1.0000 0.23420  0.53940  0.54090  Biso   1.000  H
  C77      1.0000 0.30810  0.56220  0.47820  Biso   1.000  C
  C78      1.0000 0.32390  0.60450  0.42690  Biso   1.000  C
  H49      1.0000 0.36530  0.60090  0.40590  Biso   1.000  H
  C79      1.0000 0.28010  0.65100  0.40650  Biso   1.000  C
  H50      1.0000 0.29210  0.68030  0.37240  Biso   1.000  H
  C80      1.0000 0.40350  0.48530  0.47680  Biso   1.000  C
  O21      1.0000 0.31100  0.25607  0.86560  Biso   1.000  O
  O22      1.0000 0.38358  0.28800  0.94060  Biso   1.000  O
  N21      1.0000 0.15230  0.48840  0.00210  Biso   1.000  N
  H51      1.0000 0.16550  0.50590  0.03930  Biso   1.000  H
  N22      1.0000 0.07600  0.56880  0.01040  Biso   1.000  N
  C81      1.0000 0.32930  0.29320  0.91280  Biso   1.000  C
  C82      1.0000 0.28150  0.34380  0.93490  Biso   1.000  C
  C83      1.0000 0.29660  0.38530  0.98610  Biso   1.000  C
  H52      1.0000 0.33780  0.38130  0.00730  Biso   1.000  H
  C84      1.0000 0.25360  0.43170  0.00650  Biso   1.000  C
  H53      1.0000 0.26580  0.46060  0.04090  Biso   1.000  H
  C85      1.0000 0.19190  0.43780  0.97820  Biso   1.000  C
  C86      1.0000 0.17610  0.39550  0.92690  Biso   1.000  C
  H54      1.0000 0.13470  0.39910  0.90590  Biso   1.000  H
  C87      1.0000 0.21990  0.34900  0.90650  Biso   1.000  C
  H55      1.0000 0.20790  0.31970  0.87240  Biso   1.000  H
  C88      1.0000 0.09650  0.51470  0.97680  Biso   1.000  C
  O23      1.0000 0.68900  0.75607  0.63440  Biso   1.000  O
  O24      1.0000 0.61642  0.78800  0.55940  Biso   1.000  O
  N23      1.0000 0.84770  0.98840  0.49790  Biso   1.000  N
  H56      1.0000 0.83450  0.00590  0.46070  Biso   1.000  H
  N24      1.0000 0.92400  0.06880  0.48960  Biso   1.000  N
  C89      1.0000 0.67070  0.79320  0.58720  Biso   1.000  C
  C90      1.0000 0.71850  0.84380  0.56510  Biso   1.000  C
  C91      1.0000 0.70340  0.88530  0.51390  Biso   1.000  C
  H57      1.0000 0.66220  0.88130  0.49270  Biso   1.000  H
  C92      1.0000 0.74640  0.93170  0.49350  Biso   1.000  C
  H58      1.0000 0.73420  0.96060  0.45910  Biso   1.000  H
  C93      1.0000 0.80810  0.93780  0.52180  Biso   1.000  C
  C94      1.0000 0.82390  0.89550  0.57310  Biso   1.000  C
  H59      1.0000 0.86530  0.89910  0.59410  Biso   1.000  H
  C95      1.0000 0.78010  0.84900  0.59350  Biso   1.000  C
  H60      1.0000 0.79210  0.81970  0.62760  Biso   1.000  H
  C96      1.0000 0.90350  0.01470  0.52320  Biso   1.000  C
  Dy1      1.0000 0.15417  0.84583  0.34583  Biso   1.000  Dy
  Dy2      1.0000 0.34583  0.15417  0.84583  Biso   1.000  Dy
  Dy3      1.0000 0.84583  0.34583  0.15417  Biso   1.000  Dy
  Dy4      1.0000 0.65417  0.65417  0.65417  Biso   1.000  Dy
  O25      1.0000 0.23692  0.61815  0.18025  Biso   1.000  O
  O26      1.0000 0.21108  0.53430  0.11563  Biso   1.000  O
  N25      1.0000 0.00800  0.49040  0.34950  Biso   1.000  N
  H61      1.0000 0.98930  0.45320  0.33830  Biso   1.000  H
  N26      1.0000 0.01130  0.57200  0.42940  Biso   1.000  N
  C97      1.0000 0.20360  0.56760  0.16630  Biso   1.000  C
  C98      1.0000 0.15390  0.54760  0.21630  Biso   1.000  C
  C99      1.0000 0.14830  0.58030  0.27460  Biso   1.000  C
  H62      1.0000 0.17720  0.61550  0.28400  Biso   1.000  H
  C100     1.0000 0.10060  0.56250  0.32070  Biso   1.000  C
  H63      1.0000 0.09710  0.58600  0.36080  Biso   1.000  H
  C101     1.0000 0.05820  0.51060  0.30790  Biso   1.000  C
  C102     1.0000 0.06350  0.47810  0.24800  Biso   1.000  C
  H64      1.0000 0.03400  0.44350  0.23790  Biso   1.000  H
  C103     1.0000 0.11090  0.49560  0.20360  Biso   1.000  C
  H65      1.0000 0.11460  0.47200  0.16370  Biso   1.000  H
  C104     1.0000 0.98340  0.51860  0.40400  Biso   1.000  C
  O27      1.0000 0.26308  0.38185  0.68025  Biso   1.000  O
  O28      1.0000 0.28892  0.46570  0.61563  Biso   1.000  O
  N27      1.0000 0.49200  0.50960  0.84950  Biso   1.000  N
  H66      1.0000 0.51070  0.54680  0.83830  Biso   1.000  H
  N28      1.0000 0.48870  0.42800  0.92940  Biso   1.000  N
  C105     1.0000 0.29640  0.43240  0.66630  Biso   1.000  C
  C106     1.0000 0.34610  0.45240  0.71630  Biso   1.000  C
  C107     1.0000 0.35170  0.41970  0.77460  Biso   1.000  C
  H67      1.0000 0.32280  0.38450  0.78400  Biso   1.000  H
  C108     1.0000 0.39940  0.43750  0.82070  Biso   1.000  C
  H68      1.0000 0.40290  0.41400  0.86080  Biso   1.000  H
  C109     1.0000 0.44180  0.48940  0.80790  Biso   1.000  C
  C110     1.0000 0.43650  0.52190  0.74800  Biso   1.000  C
  H69      1.0000 0.46600  0.55650  0.73790  Biso   1.000  H
  C111     1.0000 0.38910  0.50440  0.70360  Biso   1.000  C
  H70      1.0000 0.38540  0.52800  0.66370  Biso   1.000  H
  C112     1.0000 0.51660  0.48140  0.90400  Biso   1.000  C
  O29      1.0000 0.76308  0.11815  0.31975  Biso   1.000  O
  O30      1.0000 0.78892  0.03430  0.38437  Biso   1.000  O
  N29      1.0000 0.99200  0.99040  0.15050  Biso   1.000  N
  H71      1.0000 0.01070  0.95320  0.16170  Biso   1.000  H
  N30      1.0000 0.98870  0.07200  0.07060  Biso   1.000  N
  C113     1.0000 0.79640  0.06760  0.33370  Biso   1.000  C
  C114     1.0000 0.84610  0.04760  0.28370  Biso   1.000  C
  C115     1.0000 0.85170  0.08030  0.22540  Biso   1.000  C
  H72      1.0000 0.82280  0.11550  0.21600  Biso   1.000  H
  C116     1.0000 0.89940  0.06250  0.17930  Biso   1.000  C
  H73      1.0000 0.90290  0.08600  0.13920  Biso   1.000  H
  C117     1.0000 0.94180  0.01060  0.19210  Biso   1.000  C
  C118     1.0000 0.93650  0.97810  0.25200  Biso   1.000  C
  H74      1.0000 0.96600  0.94350  0.26210  Biso   1.000  H
  C119     1.0000 0.88910  0.99560  0.29640  Biso   1.000  C
  H75      1.0000 0.88540  0.97200  0.33630  Biso   1.000  H
  C120     1.0000 0.01660  0.01860  0.09600  Biso   1.000  C
  O31      1.0000 0.73692  0.88185  0.81975  Biso   1.000  O
  O32      1.0000 0.71108  0.96570  0.88437  Biso   1.000  O
  N31      1.0000 0.50800  0.00960  0.65050  Biso   1.000  N
  H76      1.0000 0.48930  0.04680  0.66170  Biso   1.000  H
  N32      1.0000 0.51130  0.92800  0.57060  Biso   1.000  N
  C121     1.0000 0.70360  0.93240  0.83370  Biso   1.000  C
  C122     1.0000 0.65390  0.95240  0.78370  Biso   1.000  C
  C123     1.0000 0.64830  0.91970  0.72540  Biso   1.000  C
  H77      1.0000 0.67720  0.88450  0.71600  Biso   1.000  H
  C124     1.0000 0.60060  0.93750  0.67930  Biso   1.000  C
  H78      1.0000 0.59710  0.91400  0.63920  Biso   1.000  H
  C125     1.0000 0.55820  0.98940  0.69210  Biso   1.000  C
  C126     1.0000 0.56350  0.02190  0.75200  Biso   1.000  C
  H79      1.0000 0.53400  0.05650  0.76210  Biso   1.000  H
  C127     1.0000 0.61090  0.00440  0.79640  Biso   1.000  C
  H80      1.0000 0.61460  0.02800  0.83630  Biso   1.000  H
  C128     1.0000 0.48340  0.98140  0.59600  Biso   1.000  C
  O33      1.0000 0.18025  0.23692  0.61815  Biso   1.000  O
  O34      1.0000 0.11563  0.21108  0.53430  Biso   1.000  O
  N33      1.0000 0.34950  0.00800  0.49040  Biso   1.000  N
  H81      1.0000 0.33830  0.98930  0.45320  Biso   1.000  H
  N34      1.0000 0.42940  0.01130  0.57200  Biso   1.000  N
  C129     1.0000 0.16630  0.20360  0.56760  Biso   1.000  C
  C130     1.0000 0.21630  0.15390  0.54760  Biso   1.000  C
  C131     1.0000 0.27460  0.14830  0.58030  Biso   1.000  C
  H82      1.0000 0.28400  0.17720  0.61550  Biso   1.000  H
  C132     1.0000 0.32070  0.10060  0.56250  Biso   1.000  C
  H83      1.0000 0.36080  0.09710  0.58600  Biso   1.000  H
  C133     1.0000 0.30790  0.05820  0.51060  Biso   1.000  C
  C134     1.0000 0.24800  0.06350  0.47810  Biso   1.000  C
  H84      1.0000 0.23790  0.03400  0.44350  Biso   1.000  H
  C135     1.0000 0.20360  0.11090  0.49560  Biso   1.000  C
  H85      1.0000 0.16370  0.11460  0.47200  Biso   1.000  H
  C136     1.0000 0.40400  0.98340  0.51860  Biso   1.000  C
  O35      1.0000 0.68025  0.26308  0.38185  Biso   1.000  O
  O36      1.0000 0.61563  0.28892  0.46570  Biso   1.000  O
  N35      1.0000 0.84950  0.49200  0.50960  Biso   1.000  N
  H86      1.0000 0.83830  0.51070  0.54680  Biso   1.000  H
  N36      1.0000 0.92940  0.48870  0.42800  Biso   1.000  N
  C137     1.0000 0.66630  0.29640  0.43240  Biso   1.000  C
  C138     1.0000 0.71630  0.34610  0.45240  Biso   1.000  C
  C139     1.0000 0.77460  0.35170  0.41970  Biso   1.000  C
  H87      1.0000 0.78400  0.32280  0.38450  Biso   1.000  H
  C140     1.0000 0.82070  0.39940  0.43750  Biso   1.000  C
  H88      1.0000 0.86080  0.40290  0.41400  Biso   1.000  H
  C141     1.0000 0.80790  0.44180  0.48940  Biso   1.000  C
  C142     1.0000 0.74800  0.43650  0.52190  Biso   1.000  C
  H89      1.0000 0.73790  0.46600  0.55650  Biso   1.000  H
  C143     1.0000 0.70360  0.38910  0.50440  Biso   1.000  C
  H90      1.0000 0.66370  0.38540  0.52800  Biso   1.000  H
  C144     1.0000 0.90400  0.51660  0.48140  Biso   1.000  C
  O37      1.0000 0.31975  0.76308  0.11815  Biso   1.000  O
  O38      1.0000 0.38437  0.78892  0.03430  Biso   1.000  O
  N37      1.0000 0.15050  0.99200  0.99040  Biso   1.000  N
  H91      1.0000 0.16170  0.01070  0.95320  Biso   1.000  H
  N38      1.0000 0.07060  0.98870  0.07200  Biso   1.000  N
  C145     1.0000 0.33370  0.79640  0.06760  Biso   1.000  C
  C146     1.0000 0.28370  0.84610  0.04760  Biso   1.000  C
  C147     1.0000 0.22540  0.85170  0.08030  Biso   1.000  C
  H92      1.0000 0.21600  0.82280  0.11550  Biso   1.000  H
  C148     1.0000 0.17930  0.89940  0.06250  Biso   1.000  C
  H93      1.0000 0.13920  0.90290  0.08600  Biso   1.000  H
  C149     1.0000 0.19210  0.94180  0.01060  Biso   1.000  C
  C150     1.0000 0.25200  0.93650  0.97810  Biso   1.000  C
  H94      1.0000 0.26210  0.96600  0.94350  Biso   1.000  H
  C151     1.0000 0.29640  0.88910  0.99560  Biso   1.000  C
  H95      1.0000 0.33630  0.88540  0.97200  Biso   1.000  H
  C152     1.0000 0.09600  0.01660  0.01860  Biso   1.000  C
  O39      1.0000 0.81975  0.73692  0.88185  Biso   1.000  O
  O40      1.0000 0.88437  0.71108  0.96570  Biso   1.000  O
  N39      1.0000 0.65050  0.50800  0.00960  Biso   1.000  N
  H96      1.0000 0.66170  0.48930  0.04680  Biso   1.000  H
  N40      1.0000 0.57060  0.51130  0.92800  Biso   1.000  N
  C153     1.0000 0.83370  0.70360  0.93240  Biso   1.000  C
  C154     1.0000 0.78370  0.65390  0.95240  Biso   1.000  C
  C155     1.0000 0.72540  0.64830  0.91970  Biso   1.000  C
  H97      1.0000 0.71600  0.67720  0.88450  Biso   1.000  H
  C156     1.0000 0.67930  0.60060  0.93750  Biso   1.000  C
  H98      1.0000 0.63920  0.59710  0.91400  Biso   1.000  H
  C157     1.0000 0.69210  0.55820  0.98940  Biso   1.000  C
  C158     1.0000 0.75200  0.56350  0.02190  Biso   1.000  C
  H99      1.0000 0.76210  0.53400  0.05650  Biso   1.000  H
  C159     1.0000 0.79640  0.61090  0.00440  Biso   1.000  C
  H100     1.0000 0.83630  0.61460  0.02800  Biso   1.000  H
  C160     1.0000 0.59600  0.48340  0.98140  Biso   1.000  C
  O41      1.0000 0.61815  0.18025  0.23692  Biso   1.000  O
  O42      1.0000 0.53430  0.11563  0.21108  Biso   1.000  O
  N41      1.0000 0.49040  0.34950  0.00800  Biso   1.000  N
  H101     1.0000 0.45320  0.33830  0.98930  Biso   1.000  H
  N42      1.0000 0.57200  0.42940  0.01130  Biso   1.000  N
  C161     1.0000 0.56760  0.16630  0.20360  Biso   1.000  C
  C162     1.0000 0.54760  0.21630  0.15390  Biso   1.000  C
  C163     1.0000 0.58030  0.27460  0.14830  Biso   1.000  C
  H102     1.0000 0.61550  0.28400  0.17720  Biso   1.000  H
  C164     1.0000 0.56250  0.32070  0.10060  Biso   1.000  C
  H103     1.0000 0.58600  0.36080  0.09710  Biso   1.000  H
  C165     1.0000 0.51060  0.30790  0.05820  Biso   1.000  C
  C166     1.0000 0.47810  0.24800  0.06350  Biso   1.000  C
  H104     1.0000 0.44350  0.23790  0.03400  Biso   1.000  H
  C167     1.0000 0.49560  0.20360  0.11090  Biso   1.000  C
  H105     1.0000 0.47200  0.16370  0.11460  Biso   1.000  H
  C168     1.0000 0.51860  0.40400  0.98340  Biso   1.000  C
  O43      1.0000 0.38185  0.68025  0.26308  Biso   1.000  O
  O44      1.0000 0.46570  0.61563  0.28892  Biso   1.000  O
  N43      1.0000 0.50960  0.84950  0.49200  Biso   1.000  N
  H106     1.0000 0.54680  0.83830  0.51070  Biso   1.000  H
  N44      1.0000 0.42800  0.92940  0.48870  Biso   1.000  N
  C169     1.0000 0.43240  0.66630  0.29640  Biso   1.000  C
  C170     1.0000 0.45240  0.71630  0.34610  Biso   1.000  C
  C171     1.0000 0.41970  0.77460  0.35170  Biso   1.000  C
  H107     1.0000 0.38450  0.78400  0.32280  Biso   1.000  H
  C172     1.0000 0.43750  0.82070  0.39940  Biso   1.000  C
  H108     1.0000 0.41400  0.86080  0.40290  Biso   1.000  H
  C173     1.0000 0.48940  0.80790  0.44180  Biso   1.000  C
  C174     1.0000 0.52190  0.74800  0.43650  Biso   1.000  C
  H109     1.0000 0.55650  0.73790  0.46600  Biso   1.000  H
  C175     1.0000 0.50440  0.70360  0.38910  Biso   1.000  C
  H110     1.0000 0.52800  0.66370  0.38540  Biso   1.000  H
  C176     1.0000 0.48140  0.90400  0.51660  Biso   1.000  C
  O45      1.0000 0.11815  0.31975  0.76308  Biso   1.000  O
  O46      1.0000 0.03430  0.38437  0.78892  Biso   1.000  O
  N45      1.0000 0.99040  0.15050  0.99200  Biso   1.000  N
  H111     1.0000 0.95320  0.16170  0.01070  Biso   1.000  H
  N46      1.0000 0.07200  0.07060  0.98870  Biso   1.000  N
  C177     1.0000 0.06760  0.33370  0.79640  Biso   1.000  C
  C178     1.0000 0.04760  0.28370  0.84610  Biso   1.000  C
  C179     1.0000 0.08030  0.22540  0.85170  Biso   1.000  C
  H112     1.0000 0.11550  0.21600  0.82280  Biso   1.000  H
  C180     1.0000 0.06250  0.17930  0.89940  Biso   1.000  C
  H113     1.0000 0.08600  0.13920  0.90290  Biso   1.000  H
  C181     1.0000 0.01060  0.19210  0.94180  Biso   1.000  C
  C182     1.0000 0.97810  0.25200  0.93650  Biso   1.000  C
  H114     1.0000 0.94350  0.26210  0.96600  Biso   1.000  H
  C183     1.0000 0.99560  0.29640  0.88910  Biso   1.000  C
  H115     1.0000 0.97200  0.33630  0.88540  Biso   1.000  H
  C184     1.0000 0.01860  0.09600  0.01660  Biso   1.000  C
  O47      1.0000 0.88185  0.81975  0.73692  Biso   1.000  O
  O48      1.0000 0.96570  0.88437  0.71108  Biso   1.000  O
  N47      1.0000 0.00960  0.65050  0.50800  Biso   1.000  N
  H116     1.0000 0.04680  0.66170  0.48930  Biso   1.000  H
  N48      1.0000 0.92800  0.57060  0.51130  Biso   1.000  N
  C185     1.0000 0.93240  0.83370  0.70360  Biso   1.000  C
  C186     1.0000 0.95240  0.78370  0.65390  Biso   1.000  C
  C187     1.0000 0.91970  0.72540  0.64830  Biso   1.000  C
  H117     1.0000 0.88450  0.71600  0.67720  Biso   1.000  H
  C188     1.0000 0.93750  0.67930  0.60060  Biso   1.000  C
  H118     1.0000 0.91400  0.63920  0.59710  Biso   1.000  H
  C189     1.0000 0.98940  0.69210  0.55820  Biso   1.000  C
  C190     1.0000 0.02190  0.75200  0.56350  Biso   1.000  C
  H119     1.0000 0.05650  0.76210  0.53400  Biso   1.000  H
  C191     1.0000 0.00440  0.79640  0.61090  Biso   1.000  C
  H120     1.0000 0.02800  0.83630  0.61460  Biso   1.000  H
  C192     1.0000 0.98140  0.59600  0.48340  Biso   1.000  C
  Dy5      1.0000 0.33333  0.66667  0.16667  Biso   1.000  Dy
  Dy6      1.0000 0.16667  0.33333  0.66667  Biso   1.000  Dy
  Dy7      1.0000 0.66667  0.16667  0.33333  Biso   1.000  Dy
  Dy8      1.0000 0.83333  0.83333  0.83333  Biso   1.000  Dy
