data_image0
_cell_length_a       20.4391
_cell_length_b       20.4391
_cell_length_c       20.4391
_cell_angle_alpha    90
_cell_angle_beta     90
_cell_angle_gamma    90

_symmetry_space_group_name_H-M    "P 1"
_symmetry_int_tables_number       1

loop_
  _symmetry_equiv_pos_as_xyz
  'x, y, z'

loop_
  _atom_site_label
  _atom_site_occupancy
  _atom_site_fract_x
  _atom_site_fract_y
  _atom_site_fract_z
  _atom_site_thermal_displace_type
  _atom_site_B_iso_or_equiv
  _atom_site_type_symbol
  O1       1.0000 0.13420  0.81110  0.24240  Biso   1.000  O
  O2       1.0000 0.05860  0.88325  0.21160  Biso   1.000  O
  N1       1.0000 0.99570  0.65000  0.01330  Biso   1.000  N
  H1       1.0000 0.95800  0.66230  0.99650  Biso   1.000  H
  N2       1.0000 0.98770  0.57410  0.93280  Biso   1.000  N
  C1       1.0000 0.08630  0.82890  0.20630  Biso   1.000  C
  C2       1.0000 0.06380  0.78100  0.15650  Biso   1.000  C
  C3       1.0000 0.01320  0.79570  0.11490  Biso   1.000  C
  H2       1.0000 0.99290  0.83740  0.11790  Biso   1.000  H
  C4       1.0000 0.99090  0.75190  0.06910  Biso   1.000  C
  H3       1.0000 0.95540  0.76350  0.04140  Biso   1.000  H
  C5       1.0000 0.02010  0.69060  0.06300  Biso   1.000  C
  C6       1.0000 0.07190  0.67480  0.10520  Biso   1.000  C
  H4       1.0000 0.09290  0.63350  0.10210  Biso   1.000  H
  C7       1.0000 0.09210  0.71920  0.15090  Biso   1.000  C
  H5       1.0000 0.12660  0.70760  0.17990  Biso   1.000  H
  C8       1.0000 0.02150  0.59450  0.98730  Biso   1.000  C
  O3       1.0000 0.36580  0.18890  0.74240  Biso   1.000  O
  O4       1.0000 0.44140  0.11675  0.71160  Biso   1.000  O
  N3       1.0000 0.50430  0.35000  0.51330  Biso   1.000  N
  H6       1.0000 0.54200  0.33770  0.49650  Biso   1.000  H
  N4       1.0000 0.51230  0.42590  0.43280  Biso   1.000  N
  C9       1.0000 0.41370  0.17110  0.70630  Biso   1.000  C
  C10      1.0000 0.43620  0.21900  0.65650  Biso   1.000  C
  C11      1.0000 0.48680  0.20430  0.61490  Biso   1.000  C
  H7       1.0000 0.50710  0.16260  0.61790  Biso   1.000  H
  C12      1.0000 0.50910  0.24810  0.56910  Biso   1.000  C
  H8       1.0000 0.54460  0.23650  0.54140  Biso   1.000  H
  C13      1.0000 0.47990  0.30940  0.56300  Biso   1.000  C
  C14      1.0000 0.42810  0.32520  0.60520  Biso   1.000  C
  H9       1.0000 0.40710  0.36650  0.60210  Biso   1.000  H
  C15      1.0000 0.40790  0.28080  0.65090  Biso   1.000  C
  H10      1.0000 0.37340  0.29240  0.67990  Biso   1.000  H
  C16      1.0000 0.47850  0.40550  0.48730  Biso   1.000  C
  O5       1.0000 0.86580  0.31110  0.25760  Biso   1.000  O
  O6       1.0000 0.94140  0.38325  0.28840  Biso   1.000  O
  N5       1.0000 0.00430  0.15000  0.48670  Biso   1.000  N
  H11      1.0000 0.04200  0.16230  0.50350  Biso   1.000  H
  N6       1.0000 0.01230  0.07410  0.56720  Biso   1.000  N
  C17      1.0000 0.91370  0.32890  0.29370  Biso   1.000  C
  C18      1.0000 0.93620  0.28100  0.34350  Biso   1.000  C
  C19      1.0000 0.98680  0.29570  0.38510  Biso   1.000  C
  H12      1.0000 0.00710  0.33740  0.38210  Biso   1.000  H
  C20      1.0000 0.00910  0.25190  0.43090  Biso   1.000  C
  H13      1.0000 0.04460  0.26350  0.45860  Biso   1.000  H
  C21      1.0000 0.97990  0.19060  0.43700  Biso   1.000  C
  C22      1.0000 0.92810  0.17480  0.39480  Biso   1.000  C
  H14      1.0000 0.90710  0.13350  0.39790  Biso   1.000  H
  C23      1.0000 0.90790  0.21920  0.34910  Biso   1.000  C
  H15      1.0000 0.87340  0.20760  0.32010  Biso   1.000  H
  C24      1.0000 0.97850  0.09450  0.51270  Biso   1.000  C
  O7       1.0000 0.63420  0.68890  0.75760  Biso   1.000  O
  O8       1.0000 0.55860  0.61675  0.78840  Biso   1.000  O
  N7       1.0000 0.49570  0.85000  0.98670  Biso   1.000  N
  H16      1.0000 0.45800  0.83770  0.00350  Biso   1.000  H
  N8       1.0000 0.48770  0.92590  0.06720  Biso   1.000  N
  C25      1.0000 0.58630  0.67110  0.79370  Biso   1.000  C
  C26      1.0000 0.56380  0.71900  0.84350  Biso   1.000  C
  C27      1.0000 0.51320  0.70430  0.88510  Biso   1.000  C
  H17      1.0000 0.49290  0.66260  0.88210  Biso   1.000  H
  C28      1.0000 0.49090  0.74810  0.93090  Biso   1.000  C
  H18      1.0000 0.45540  0.73650  0.95860  Biso   1.000  H
  C29      1.0000 0.52010  0.80940  0.93700  Biso   1.000  C
  C30      1.0000 0.57190  0.82520  0.89480  Biso   1.000  C
  H19      1.0000 0.59290  0.86650  0.89790  Biso   1.000  H
  C31      1.0000 0.59210  0.78080  0.84910  Biso   1.000  C
  H20      1.0000 0.62660  0.79240  0.82010  Biso   1.000  H
  C32      1.0000 0.52150  0.90550  0.01270  Biso   1.000  C
  O9       1.0000 0.24240  0.13420  0.81110  Biso   1.000  O
  O10      1.0000 0.21160  0.05860  0.88325  Biso   1.000  O
  N9       1.0000 0.01330  0.99570  0.65000  Biso   1.000  N
  H21      1.0000 0.99650  0.95800  0.66230  Biso   1.000  H
  N10      1.0000 0.93280  0.98770  0.57410  Biso   1.000  N
  C33      1.0000 0.20630  0.08630  0.82890  Biso   1.000  C
  C34      1.0000 0.15650  0.06380  0.78100  Biso   1.000  C
  C35      1.0000 0.11490  0.01320  0.79570  Biso   1.000  C
  H22      1.0000 0.11790  0.99290  0.83740  Biso   1.000  H
  C36      1.0000 0.06910  0.99090  0.75190  Biso   1.000  C
  H23      1.0000 0.04140  0.95540  0.76350  Biso   1.000  H
  C37      1.0000 0.06300  0.02010  0.69060  Biso   1.000  C
  C38      1.0000 0.10520  0.07190  0.67480  Biso   1.000  C
  H24      1.0000 0.10210  0.09290  0.63350  Biso   1.000  H
  C39      1.0000 0.15090  0.09210  0.71920  Biso   1.000  C
  H25      1.0000 0.17990  0.12660  0.70760  Biso   1.000  H
  C40      1.0000 0.98730  0.02150  0.59450  Biso   1.000  C
  O11      1.0000 0.74240  0.36580  0.18890  Biso   1.000  O
  O12      1.0000 0.71160  0.44140  0.11675  Biso   1.000  O
  N11      1.0000 0.51330  0.50430  0.35000  Biso   1.000  N
  H26      1.0000 0.49650  0.54200  0.33770  Biso   1.000  H
  N12      1.0000 0.43280  0.51230  0.42590  Biso   1.000  N
  C41      1.0000 0.70630  0.41370  0.17110  Biso   1.000  C
  C42      1.0000 0.65650  0.43620  0.21900  Biso   1.000  C
  C43      1.0000 0.61490  0.48680  0.20430  Biso   1.000  C
  H27      1.0000 0.61790  0.50710  0.16260  Biso   1.000  H
  C44      1.0000 0.56910  0.50910  0.24810  Biso   1.000  C
  H28      1.0000 0.54140  0.54460  0.23650  Biso   1.000  H
  C45      1.0000 0.56300  0.47990  0.30940  Biso   1.000  C
  C46      1.0000 0.60520  0.42810  0.32520  Biso   1.000  C
  H29      1.0000 0.60210  0.40710  0.36650  Biso   1.000  H
  C47      1.0000 0.65090  0.40790  0.28080  Biso   1.000  C
  H30      1.0000 0.67990  0.37340  0.29240  Biso   1.000  H
  C48      1.0000 0.48730  0.47850  0.40550  Biso   1.000  C
  O13      1.0000 0.25760  0.86580  0.31110  Biso   1.000  O
  O14      1.0000 0.28840  0.94140  0.38325  Biso   1.000  O
  N13      1.0000 0.48670  0.00430  0.15000  Biso   1.000  N
  H31      1.0000 0.50350  0.04200  0.16230  Biso   1.000  H
  N14      1.0000 0.56720  0.01230  0.07410  Biso   1.000  N
  C49      1.0000 0.29370  0.91370  0.32890  Biso   1.000  C
  C50      1.0000 0.34350  0.93620  0.28100  Biso   1.000  C
  C51      1.0000 0.38510  0.98680  0.29570  Biso   1.000  C
  H32      1.0000 0.38210  0.00710  0.33740  Biso   1.000  H
  C52      1.0000 0.43090  0.00910  0.25190  Biso   1.000  C
  H33      1.0000 0.45860  0.04460  0.26350  Biso   1.000  H
  C53      1.0000 0.43700  0.97990  0.19060  Biso   1.000  C
  C54      1.0000 0.39480  0.92810  0.17480  Biso   1.000  C
  H34      1.0000 0.39790  0.90710  0.13350  Biso   1.000  H
  C55      1.0000 0.34910  0.90790  0.21920  Biso   1.000  C
  H35      1.0000 0.32010  0.87340  0.20760  Biso   1.000  H
  C56      1.0000 0.51270  0.97850  0.09450  Biso   1.000  C
  O15      1.0000 0.75760  0.63420  0.68890  Biso   1.000  O
  O16      1.0000 0.78840  0.55860  0.61675  Biso   1.000  O
  N15      1.0000 0.98670  0.49570  0.85000  Biso   1.000  N
  H36      1.0000 0.00350  0.45800  0.83770  Biso   1.000  H
  N16      1.0000 0.06720  0.48770  0.92590  Biso   1.000  N
  C57      1.0000 0.79370  0.58630  0.67110  Biso   1.000  C
  C58      1.0000 0.84350  0.56380  0.71900  Biso   1.000  C
  C59      1.0000 0.88510  0.51320  0.70430  Biso   1.000  C
  H37      1.0000 0.88210  0.49290  0.66260  Biso   1.000  H
  C60      1.0000 0.93090  0.49090  0.74810  Biso   1.000  C
  H38      1.0000 0.95860  0.45540  0.73650  Biso   1.000  H
  C61      1.0000 0.93700  0.52010  0.80940  Biso   1.000  C
  C62      1.0000 0.89480  0.57190  0.82520  Biso   1.000  C
  H39      1.0000 0.89790  0.59290  0.86650  Biso   1.000  H
  C63      1.0000 0.84910  0.59210  0.78080  Biso   1.000  C
  H40      1.0000 0.82010  0.62660  0.79240  Biso   1.000  H
  C64      1.0000 0.01270  0.52150  0.90550  Biso   1.000  C
  O17      1.0000 0.81110  0.24240  0.13420  Biso   1.000  O
  O18      1.0000 0.88325  0.21160  0.05860  Biso   1.000  O
  N17      1.0000 0.65000  0.01330  0.99570  Biso   1.000  N
  H41      1.0000 0.66230  0.99650  0.95800  Biso   1.000  H
  N18      1.0000 0.57410  0.93280  0.98770  Biso   1.000  N
  C65      1.0000 0.82890  0.20630  0.08630  Biso   1.000  C
  C66      1.0000 0.78100  0.15650  0.06380  Biso   1.000  C
  C67      1.0000 0.79570  0.11490  0.01320  Biso   1.000  C
  H42      1.0000 0.83740  0.11790  0.99290  Biso   1.000  H
  C68      1.0000 0.75190  0.06910  0.99090  Biso   1.000  C
  H43      1.0000 0.76350  0.04140  0.95540  Biso   1.000  H
  C69      1.0000 0.69060  0.06300  0.02010  Biso   1.000  C
  C70      1.0000 0.67480  0.10520  0.07190  Biso   1.000  C
  H44      1.0000 0.63350  0.10210  0.09290  Biso   1.000  H
  C71      1.0000 0.71920  0.15090  0.09210  Biso   1.000  C
  H45      1.0000 0.70760  0.17990  0.12660  Biso   1.000  H
  C72      1.0000 0.59450  0.98730  0.02150  Biso   1.000  C
  O19      1.0000 0.18890  0.74240  0.36580  Biso   1.000  O
  O20      1.0000 0.11675  0.71160  0.44140  Biso   1.000  O
  N19      1.0000 0.35000  0.51330  0.50430  Biso   1.000  N
  H46      1.0000 0.33770  0.49650  0.54200  Biso   1.000  H
  N20      1.0000 0.42590  0.43280  0.51230  Biso   1.000  N
  C73      1.0000 0.17110  0.70630  0.41370  Biso   1.000  C
  C74      1.0000 0.21900  0.65650  0.43620  Biso   1.000  C
  C75      1.0000 0.20430  0.61490  0.48680  Biso   1.000  C
  H47      1.0000 0.16260  0.61790  0.50710  Biso   1.000  H
  C76      1.0000 0.24810  0.56910  0.50910  Biso   1.000  C
  H48      1.0000 0.23650  0.54140  0.54460  Biso   1.000  H
  C77      1.0000 0.30940  0.56300  0.47990  Biso   1.000  C
  C78      1.0000 0.32520  0.60520  0.42810  Biso   1.000  C
  H49      1.0000 0.36650  0.60210  0.40710  Biso   1.000  H
  C79      1.0000 0.28080  0.65090  0.40790  Biso   1.000  C
  H50      1.0000 0.29240  0.67990  0.37340  Biso   1.000  H
  C80      1.0000 0.40550  0.48730  0.47850  Biso   1.000  C
  O21      1.0000 0.31110  0.25760  0.86580  Biso   1.000  O
  O22      1.0000 0.38325  0.28840  0.94140  Biso   1.000  O
  N21      1.0000 0.15000  0.48670  0.00430  Biso   1.000  N
  H51      1.0000 0.16230  0.50350  0.04200  Biso   1.000  H
  N22      1.0000 0.07410  0.56720  0.01230  Biso   1.000  N
  C81      1.0000 0.32890  0.29370  0.91370  Biso   1.000  C
  C82      1.0000 0.28100  0.34350  0.93620  Biso   1.000  C
  C83      1.0000 0.29570  0.38510  0.98680  Biso   1.000  C
  H52      1.0000 0.33740  0.38210  0.00710  Biso   1.000  H
  C84      1.0000 0.25190  0.43090  0.00910  Biso   1.000  C
  H53      1.0000 0.26350  0.45860  0.04460  Biso   1.000  H
  C85      1.0000 0.19060  0.43700  0.97990  Biso   1.000  C
  C86      1.0000 0.17480  0.39480  0.92810  Biso   1.000  C
  H54      1.0000 0.13350  0.39790  0.90710  Biso   1.000  H
  C87      1.0000 0.21920  0.34910  0.90790  Biso   1.000  C
  H55      1.0000 0.20760  0.32010  0.87340  Biso   1.000  H
  C88      1.0000 0.09450  0.51270  0.97850  Biso   1.000  C
  O23      1.0000 0.68890  0.75760  0.63420  Biso   1.000  O
  O24      1.0000 0.61675  0.78840  0.55860  Biso   1.000  O
  N23      1.0000 0.85000  0.98670  0.49570  Biso   1.000  N
  H56      1.0000 0.83770  0.00350  0.45800  Biso   1.000  H
  N24      1.0000 0.92590  0.06720  0.48770  Biso   1.000  N
  C89      1.0000 0.67110  0.79370  0.58630  Biso   1.000  C
  C90      1.0000 0.71900  0.84350  0.56380  Biso   1.000  C
  C91      1.0000 0.70430  0.88510  0.51320  Biso   1.000  C
  H57      1.0000 0.66260  0.88210  0.49290  Biso   1.000  H
  C92      1.0000 0.74810  0.93090  0.49090  Biso   1.000  C
  H58      1.0000 0.73650  0.95860  0.45540  Biso   1.000  H
  C93      1.0000 0.80940  0.93700  0.52010  Biso   1.000  C
  C94      1.0000 0.82520  0.89480  0.57190  Biso   1.000  C
  H59      1.0000 0.86650  0.89790  0.59290  Biso   1.000  H
  C95      1.0000 0.78080  0.84910  0.59210  Biso   1.000  C
  H60      1.0000 0.79240  0.82010  0.62660  Biso   1.000  H
  C96      1.0000 0.90550  0.01270  0.52150  Biso   1.000  C
  Tb1      1.0000 0.15466  0.84534  0.34534  Biso   1.000  Tb
  Tb2      1.0000 0.34534  0.15466  0.84534  Biso   1.000  Tb
  Tb3      1.0000 0.84534  0.34534  0.15466  Biso   1.000  Tb
  Tb4      1.0000 0.65466  0.65466  0.65466  Biso   1.000  Tb
  O25      1.0000 0.23605  0.61931  0.18038  Biso   1.000  O
  O26      1.0000 0.20984  0.53500  0.11568  Biso   1.000  O
  N25      1.0000 0.00920  0.48960  0.35070  Biso   1.000  N
  H61      1.0000 0.99100  0.45210  0.33980  Biso   1.000  H
  N26      1.0000 0.01260  0.57090  0.43060  Biso   1.000  N
  C97      1.0000 0.20270  0.56780  0.16670  Biso   1.000  C
  C98      1.0000 0.15360  0.54790  0.21660  Biso   1.000  C
  C99      1.0000 0.14860  0.57960  0.27550  Biso   1.000  C
  H62      1.0000 0.17790  0.61450  0.28500  Biso   1.000  H
  C100     1.0000 0.10150  0.56190  0.32200  Biso   1.000  C
  H63      1.0000 0.09870  0.58460  0.36240  Biso   1.000  H
  C101     1.0000 0.05900  0.51070  0.30820  Biso   1.000  C
  C102     1.0000 0.06440  0.47780  0.24900  Biso   1.000  C
  H64      1.0000 0.03580  0.44240  0.23960  Biso   1.000  H
  C103     1.0000 0.11080  0.49600  0.20370  Biso   1.000  C
  H65      1.0000 0.11390  0.47310  0.16330  Biso   1.000  H
  C104     1.0000 0.98480  0.51720  0.40560  Biso   1.000  C
  O27      1.0000 0.26395  0.38069  0.68038  Biso   1.000  O
  O28      1.0000 0.29016  0.46500  0.61568  Biso   1.000  O
  N27      1.0000 0.49080  0.51040  0.85070  Biso   1.000  N
  H66      1.0000 0.50900  0.54790  0.83980  Biso   1.000  H
  N28      1.0000 0.48740  0.42910  0.93060  Biso   1.000  N
  C105     1.0000 0.29730  0.43220  0.66670  Biso   1.000  C
  C106     1.0000 0.34640  0.45210  0.71660  Biso   1.000  C
  C107     1.0000 0.35140  0.42040  0.77550  Biso   1.000  C
  H67      1.0000 0.32210  0.38550  0.78500  Biso   1.000  H
  C108     1.0000 0.39850  0.43810  0.82200  Biso   1.000  C
  H68      1.0000 0.40130  0.41540  0.86240  Biso   1.000  H
  C109     1.0000 0.44100  0.48930  0.80820  Biso   1.000  C
  C110     1.0000 0.43560  0.52220  0.74900  Biso   1.000  C
  H69      1.0000 0.46420  0.55760  0.73960  Biso   1.000  H
  C111     1.0000 0.38920  0.50400  0.70370  Biso   1.000  C
  H70      1.0000 0.38610  0.52690  0.66330  Biso   1.000  H
  C112     1.0000 0.51520  0.48280  0.90560  Biso   1.000  C
  O29      1.0000 0.76395  0.11931  0.31962  Biso   1.000  O
  O30      1.0000 0.79016  0.03500  0.38432  Biso   1.000  O
  N29      1.0000 0.99080  0.98960  0.14930  Biso   1.000  N
  H71      1.0000 0.00900  0.95210  0.16020  Biso   1.000  H
  N30      1.0000 0.98740  0.07090  0.06940  Biso   1.000  N
  C113     1.0000 0.79730  0.06780  0.33330  Biso   1.000  C
  C114     1.0000 0.84640  0.04790  0.28340  Biso   1.000  C
  C115     1.0000 0.85140  0.07960  0.22450  Biso   1.000  C
  H72      1.0000 0.82210  0.11450  0.21500  Biso   1.000  H
  C116     1.0000 0.89850  0.06190  0.17800  Biso   1.000  C
  H73      1.0000 0.90130  0.08460  0.13760  Biso   1.000  H
  C117     1.0000 0.94100  0.01070  0.19180  Biso   1.000  C
  C118     1.0000 0.93560  0.97780  0.25100  Biso   1.000  C
  H74      1.0000 0.96420  0.94240  0.26040  Biso   1.000  H
  C119     1.0000 0.88920  0.99600  0.29630  Biso   1.000  C
  H75      1.0000 0.88610  0.97310  0.33670  Biso   1.000  H
  C120     1.0000 0.01520  0.01720  0.09440  Biso   1.000  C
  O31      1.0000 0.73605  0.88069  0.81962  Biso   1.000  O
  O32      1.0000 0.70984  0.96500  0.88432  Biso   1.000  O
  N31      1.0000 0.50920  0.01040  0.64930  Biso   1.000  N
  H76      1.0000 0.49100  0.04790  0.66020  Biso   1.000  H
  N32      1.0000 0.51260  0.92910  0.56940  Biso   1.000  N
  C121     1.0000 0.70270  0.93220  0.83330  Biso   1.000  C
  C122     1.0000 0.65360  0.95210  0.78340  Biso   1.000  C
  C123     1.0000 0.64860  0.92040  0.72450  Biso   1.000  C
  H77      1.0000 0.67790  0.88550  0.71500  Biso   1.000  H
  C124     1.0000 0.60150  0.93810  0.67800  Biso   1.000  C
  H78      1.0000 0.59870  0.91540  0.63760  Biso   1.000  H
  C125     1.0000 0.55900  0.98930  0.69180  Biso   1.000  C
  C126     1.0000 0.56440  0.02220  0.75100  Biso   1.000  C
  H79      1.0000 0.53580  0.05760  0.76040  Biso   1.000  H
  C127     1.0000 0.61080  0.00400  0.79630  Biso   1.000  C
  H80      1.0000 0.61390  0.02690  0.83670  Biso   1.000  H
  C128     1.0000 0.48480  0.98280  0.59440  Biso   1.000  C
  O33      1.0000 0.18038  0.23605  0.61931  Biso   1.000  O
  O34      1.0000 0.11568  0.20984  0.53500  Biso   1.000  O
  N33      1.0000 0.35070  0.00920  0.48960  Biso   1.000  N
  H81      1.0000 0.33980  0.99100  0.45210  Biso   1.000  H
  N34      1.0000 0.43060  0.01260  0.57090  Biso   1.000  N
  C129     1.0000 0.16670  0.20270  0.56780  Biso   1.000  C
  C130     1.0000 0.21660  0.15360  0.54790  Biso   1.000  C
  C131     1.0000 0.27550  0.14860  0.57960  Biso   1.000  C
  H82      1.0000 0.28500  0.17790  0.61450  Biso   1.000  H
  C132     1.0000 0.32200  0.10150  0.56190  Biso   1.000  C
  H83      1.0000 0.36240  0.09870  0.58460  Biso   1.000  H
  C133     1.0000 0.30820  0.05900  0.51070  Biso   1.000  C
  C134     1.0000 0.24900  0.06440  0.47780  Biso   1.000  C
  H84      1.0000 0.23960  0.03580  0.44240  Biso   1.000  H
  C135     1.0000 0.20370  0.11080  0.49600  Biso   1.000  C
  H85      1.0000 0.16330  0.11390  0.47310  Biso   1.000  H
  C136     1.0000 0.40560  0.98480  0.51720  Biso   1.000  C
  O35      1.0000 0.68038  0.26395  0.38069  Biso   1.000  O
  O36      1.0000 0.61568  0.29016  0.46500  Biso   1.000  O
  N35      1.0000 0.85070  0.49080  0.51040  Biso   1.000  N
  H86      1.0000 0.83980  0.50900  0.54790  Biso   1.000  H
  N36      1.0000 0.93060  0.48740  0.42910  Biso   1.000  N
  C137     1.0000 0.66670  0.29730  0.43220  Biso   1.000  C
  C138     1.0000 0.71660  0.34640  0.45210  Biso   1.000  C
  C139     1.0000 0.77550  0.35140  0.42040  Biso   1.000  C
  H87      1.0000 0.78500  0.32210  0.38550  Biso   1.000  H
  C140     1.0000 0.82200  0.39850  0.43810  Biso   1.000  C
  H88      1.0000 0.86240  0.40130  0.41540  Biso   1.000  H
  C141     1.0000 0.80820  0.44100  0.48930  Biso   1.000  C
  C142     1.0000 0.74900  0.43560  0.52220  Biso   1.000  C
  H89      1.0000 0.73960  0.46420  0.55760  Biso   1.000  H
  C143     1.0000 0.70370  0.38920  0.50400  Biso   1.000  C
  H90      1.0000 0.66330  0.38610  0.52690  Biso   1.000  H
  C144     1.0000 0.90560  0.51520  0.48280  Biso   1.000  C
  O37      1.0000 0.31962  0.76395  0.11931  Biso   1.000  O
  O38      1.0000 0.38432  0.79016  0.03500  Biso   1.000  O
  N37      1.0000 0.14930  0.99080  0.98960  Biso   1.000  N
  H91      1.0000 0.16020  0.00900  0.95210  Biso   1.000  H
  N38      1.0000 0.06940  0.98740  0.07090  Biso   1.000  N
  C145     1.0000 0.33330  0.79730  0.06780  Biso   1.000  C
  C146     1.0000 0.28340  0.84640  0.04790  Biso   1.000  C
  C147     1.0000 0.22450  0.85140  0.07960  Biso   1.000  C
  H92      1.0000 0.21500  0.82210  0.11450  Biso   1.000  H
  C148     1.0000 0.17800  0.89850  0.06190  Biso   1.000  C
  H93      1.0000 0.13760  0.90130  0.08460  Biso   1.000  H
  C149     1.0000 0.19180  0.94100  0.01070  Biso   1.000  C
  C150     1.0000 0.25100  0.93560  0.97780  Biso   1.000  C
  H94      1.0000 0.26040  0.96420  0.94240  Biso   1.000  H
  C151     1.0000 0.29630  0.88920  0.99600  Biso   1.000  C
  H95      1.0000 0.33670  0.88610  0.97310  Biso   1.000  H
  C152     1.0000 0.09440  0.01520  0.01720  Biso   1.000  C
  O39      1.0000 0.81962  0.73605  0.88069  Biso   1.000  O
  O40      1.0000 0.88432  0.70984  0.96500  Biso   1.000  O
  N39      1.0000 0.64930  0.50920  0.01040  Biso   1.000  N
  H96      1.0000 0.66020  0.49100  0.04790  Biso   1.000  H
  N40      1.0000 0.56940  0.51260  0.92910  Biso   1.000  N
  C153     1.0000 0.83330  0.70270  0.93220  Biso   1.000  C
  C154     1.0000 0.78340  0.65360  0.95210  Biso   1.000  C
  C155     1.0000 0.72450  0.64860  0.92040  Biso   1.000  C
  H97      1.0000 0.71500  0.67790  0.88550  Biso   1.000  H
  C156     1.0000 0.67800  0.60150  0.93810  Biso   1.000  C
  H98      1.0000 0.63760  0.59870  0.91540  Biso   1.000  H
  C157     1.0000 0.69180  0.55900  0.98930  Biso   1.000  C
  C158     1.0000 0.75100  0.56440  0.02220  Biso   1.000  C
  H99      1.0000 0.76040  0.53580  0.05760  Biso   1.000  H
  C159     1.0000 0.79630  0.61080  0.00400  Biso   1.000  C
  H100     1.0000 0.83670  0.61390  0.02690  Biso   1.000  H
  C160     1.0000 0.59440  0.48480  0.98280  Biso   1.000  C
  O41      1.0000 0.61931  0.18038  0.23605  Biso   1.000  O
  O42      1.0000 0.53500  0.11568  0.20984  Biso   1.000  O
  N41      1.0000 0.48960  0.35070  0.00920  Biso   1.000  N
  H101     1.0000 0.45210  0.33980  0.99100  Biso   1.000  H
  N42      1.0000 0.57090  0.43060  0.01260  Biso   1.000  N
  C161     1.0000 0.56780  0.16670  0.20270  Biso   1.000  C
  C162     1.0000 0.54790  0.21660  0.15360  Biso   1.000  C
  C163     1.0000 0.57960  0.27550  0.14860  Biso   1.000  C
  H102     1.0000 0.61450  0.28500  0.17790  Biso   1.000  H
  C164     1.0000 0.56190  0.32200  0.10150  Biso   1.000  C
  H103     1.0000 0.58460  0.36240  0.09870  Biso   1.000  H
  C165     1.0000 0.51070  0.30820  0.05900  Biso   1.000  C
  C166     1.0000 0.47780  0.24900  0.06440  Biso   1.000  C
  H104     1.0000 0.44240  0.23960  0.03580  Biso   1.000  H
  C167     1.0000 0.49600  0.20370  0.11080  Biso   1.000  C
  H105     1.0000 0.47310  0.16330  0.11390  Biso   1.000  H
  C168     1.0000 0.51720  0.40560  0.98480  Biso   1.000  C
  O43      1.0000 0.38069  0.68038  0.26395  Biso   1.000  O
  O44      1.0000 0.46500  0.61568  0.29016  Biso   1.000  O
  N43      1.0000 0.51040  0.85070  0.49080  Biso   1.000  N
  H106     1.0000 0.54790  0.83980  0.50900  Biso   1.000  H
  N44      1.0000 0.42910  0.93060  0.48740  Biso   1.000  N
  C169     1.0000 0.43220  0.66670  0.29730  Biso   1.000  C
  C170     1.0000 0.45210  0.71660  0.34640  Biso   1.000  C
  C171     1.0000 0.42040  0.77550  0.35140  Biso   1.000  C
  H107     1.0000 0.38550  0.78500  0.32210  Biso   1.000  H
  C172     1.0000 0.43810  0.82200  0.39850  Biso   1.000  C
  H108     1.0000 0.41540  0.86240  0.40130  Biso   1.000  H
  C173     1.0000 0.48930  0.80820  0.44100  Biso   1.000  C
  C174     1.0000 0.52220  0.74900  0.43560  Biso   1.000  C
  H109     1.0000 0.55760  0.73960  0.46420  Biso   1.000  H
  C175     1.0000 0.50400  0.70370  0.38920  Biso   1.000  C
  H110     1.0000 0.52690  0.66330  0.38610  Biso   1.000  H
  C176     1.0000 0.48280  0.90560  0.51520  Biso   1.000  C
  O45      1.0000 0.11931  0.31962  0.76395  Biso   1.000  O
  O46      1.0000 0.03500  0.38432  0.79016  Biso   1.000  O
  N45      1.0000 0.98960  0.14930  0.99080  Biso   1.000  N
  H111     1.0000 0.95210  0.16020  0.00900  Biso   1.000  H
  N46      1.0000 0.07090  0.06940  0.98740  Biso   1.000  N
  C177     1.0000 0.06780  0.33330  0.79730  Biso   1.000  C
  C178     1.0000 0.04790  0.28340  0.84640  Biso   1.000  C
  C179     1.0000 0.07960  0.22450  0.85140  Biso   1.000  C
  H112     1.0000 0.11450  0.21500  0.82210  Biso   1.000  H
  C180     1.0000 0.06190  0.17800  0.89850  Biso   1.000  C
  H113     1.0000 0.08460  0.13760  0.90130  Biso   1.000  H
  C181     1.0000 0.01070  0.19180  0.94100  Biso   1.000  C
  C182     1.0000 0.97780  0.25100  0.93560  Biso   1.000  C
  H114     1.0000 0.94240  0.26040  0.96420  Biso   1.000  H
  C183     1.0000 0.99600  0.29630  0.88920  Biso   1.000  C
  H115     1.0000 0.97310  0.33670  0.88610  Biso   1.000  H
  C184     1.0000 0.01720  0.09440  0.01520  Biso   1.000  C
  O47      1.0000 0.88069  0.81962  0.73605  Biso   1.000  O
  O48      1.0000 0.96500  0.88432  0.70984  Biso   1.000  O
  N47      1.0000 0.01040  0.64930  0.50920  Biso   1.000  N
  H116     1.0000 0.04790  0.66020  0.49100  Biso   1.000  H
  N48      1.0000 0.92910  0.56940  0.51260  Biso   1.000  N
  C185     1.0000 0.93220  0.83330  0.70270  Biso   1.000  C
  C186     1.0000 0.95210  0.78340  0.65360  Biso   1.000  C
  C187     1.0000 0.92040  0.72450  0.64860  Biso   1.000  C
  H117     1.0000 0.88550  0.71500  0.67790  Biso   1.000  H
  C188     1.0000 0.93810  0.67800  0.60150  Biso   1.000  C
  H118     1.0000 0.91540  0.63760  0.59870  Biso   1.000  H
  C189     1.0000 0.98930  0.69180  0.55900  Biso   1.000  C
  C190     1.0000 0.02220  0.75100  0.56440  Biso   1.000  C
  H119     1.0000 0.05760  0.76040  0.53580  Biso   1.000  H
  C191     1.0000 0.00400  0.79630  0.61080  Biso   1.000  C
  H120     1.0000 0.02690  0.83670  0.61390  Biso   1.000  H
  C192     1.0000 0.98280  0.59440  0.48480  Biso   1.000  C
  Tb5      1.0000 0.33322  0.66678  0.16678  Biso   1.000  Tb
  Tb6      1.0000 0.16678  0.33322  0.66678  Biso   1.000  Tb
  Tb7      1.0000 0.66678  0.16678  0.33322  Biso   1.000  Tb
  Tb8      1.0000 0.83322  0.83322  0.83322  Biso   1.000  Tb
