data_image0
_cell_length_a       12.7832
_cell_length_b       12.7832
_cell_length_c       32.5345
_cell_angle_alpha    90
_cell_angle_beta     90
_cell_angle_gamma    90

_symmetry_space_group_name_H-M    "P 1"
_symmetry_int_tables_number       1

loop_
  _symmetry_equiv_pos_as_xyz
  'x, y, z'

loop_
  _atom_site_label
  _atom_site_occupancy
  _atom_site_fract_x
  _atom_site_fract_y
  _atom_site_fract_z
  _atom_site_thermal_displace_type
  _atom_site_B_iso_or_equiv
  _atom_site_type_symbol
  C1       1.0000 0.56970  0.67500  0.79100  Biso   1.000  C
  C2       1.0000 0.95810  0.25390  0.95121  Biso   1.000  C
  C3       1.0000 0.94420  0.14720  0.93080  Biso   1.000  C
  C4       1.0000 0.96050  0.14800  0.88690  Biso   1.000  C
  H1       1.0000 0.97310  0.07800  0.87750  Biso   1.000  H
  H2       1.0000 0.01980  0.19110  0.88050  Biso   1.000  H
  H3       1.0000 0.89950  0.17560  0.87350  Biso   1.000  H
  C5       1.0000 0.04080  0.08350  0.94530  Biso   1.000  C
  H4       1.0000 0.02200  0.04160  0.96870  Biso   1.000  H
  H5       1.0000 0.09600  0.13070  0.95280  Biso   1.000  H
  H6       1.0000 0.06420  0.03890  0.92340  Biso   1.000  H
  C6       1.0000 0.85870  0.08740  0.94640  Biso   1.000  C
  H7       1.0000 0.79410  0.11780  0.93730  Biso   1.000  H
  H8       1.0000 0.86100  0.08730  0.97590  Biso   1.000  H
  H9       1.0000 0.86370  0.01680  0.93650  Biso   1.000  H
  C7       1.0000 0.48350  0.64990  0.82062  Biso   1.000  C
  C8       1.0000 0.40140  0.58450  0.80989  Biso   1.000  C
  H10      1.0000 0.39830  0.55560  0.78370  Biso   1.000  H
  C9       1.0000 0.32410  0.56260  0.83854  Biso   1.000  C
  H11      1.0000 0.26960  0.51800  0.83140  Biso   1.000  H
  C10      1.0000 0.32620  0.60440  0.87645  Biso   1.000  C
  C11      1.0000 0.40900  0.66780  0.88759  Biso   1.000  C
  H12      1.0000 0.41280  0.69580  0.91390  Biso   1.000  H
  C12      1.0000 0.48600  0.68880  0.85901  Biso   1.000  C
  H13      1.0000 0.54170  0.73140  0.86660  Biso   1.000  H
  C13      1.0000 0.24420  0.57890  0.90672  Biso   1.000  C
  C14      1.0000 0.14080  0.58900  0.95985  Biso   1.000  C
  C15      1.0000 0.12310  0.49610  0.93972  Biso   1.000  C
  C16      1.0000 0.04770  0.42230  0.95430  Biso   1.000  C
  C17      1.0000 0.03060  0.32610  0.93538  Biso   1.000  C
  H14      1.0000 0.06800  0.30920  0.91180  Biso   1.000  H
  C18      1.0000 0.90040  0.28400  0.98532  Biso   1.000  C
  H15      1.0000 0.84950  0.23880  0.99540  Biso   1.000  H
  C19      1.0000 0.91590  0.37890  0.00487  Biso   1.000  C
  C20      1.0000 0.99130  0.45050  0.98981  Biso   1.000  C
  N1       1.0000 0.22020  0.64070  0.93874  Biso   1.000  N
  H16      1.0000 0.24810  0.69980  0.94490  Biso   1.000  H
  N2       1.0000 0.18890  0.49040  0.90642  Biso   1.000  N
  O1       1.0000 0.63820  0.73130  0.80116  Biso   1.000  O
  O2       1.0000 0.56790  0.63760  0.75644  Biso   1.000  O
  H17      1.0000 0.19350  0.44010  0.88900  Biso   1.000  H
  C21      1.0000 0.93030  0.82500  0.79100  Biso   1.000  C
  C22      1.0000 0.54190  0.24610  0.95121  Biso   1.000  C
  C23      1.0000 0.55580  0.35280  0.93080  Biso   1.000  C
  C24      1.0000 0.53950  0.35200  0.88690  Biso   1.000  C
  H18      1.0000 0.52690  0.42200  0.87750  Biso   1.000  H
  H19      1.0000 0.48020  0.30890  0.88050  Biso   1.000  H
  H20      1.0000 0.60050  0.32440  0.87350  Biso   1.000  H
  C25      1.0000 0.45920  0.41650  0.94530  Biso   1.000  C
  H21      1.0000 0.47800  0.45840  0.96870  Biso   1.000  H
  H22      1.0000 0.40400  0.36930  0.95280  Biso   1.000  H
  H23      1.0000 0.43580  0.46110  0.92340  Biso   1.000  H
  C26      1.0000 0.64130  0.41260  0.94640  Biso   1.000  C
  H24      1.0000 0.70590  0.38220  0.93730  Biso   1.000  H
  H25      1.0000 0.63900  0.41270  0.97590  Biso   1.000  H
  H26      1.0000 0.63630  0.48320  0.93650  Biso   1.000  H
  C27      1.0000 0.01650  0.85010  0.82062  Biso   1.000  C
  C28      1.0000 0.09860  0.91550  0.80989  Biso   1.000  C
  H27      1.0000 0.10170  0.94440  0.78370  Biso   1.000  H
  C29      1.0000 0.17590  0.93740  0.83854  Biso   1.000  C
  H28      1.0000 0.23040  0.98200  0.83140  Biso   1.000  H
  C30      1.0000 0.17380  0.89560  0.87645  Biso   1.000  C
  C31      1.0000 0.09100  0.83220  0.88759  Biso   1.000  C
  H29      1.0000 0.08720  0.80420  0.91390  Biso   1.000  H
  C32      1.0000 0.01400  0.81120  0.85901  Biso   1.000  C
  H30      1.0000 0.95830  0.76860  0.86660  Biso   1.000  H
  C33      1.0000 0.25580  0.92110  0.90672  Biso   1.000  C
  C34      1.0000 0.35920  0.91100  0.95985  Biso   1.000  C
  C35      1.0000 0.37690  0.00390  0.93972  Biso   1.000  C
  C36      1.0000 0.45230  0.07770  0.95430  Biso   1.000  C
  C37      1.0000 0.46940  0.17390  0.93538  Biso   1.000  C
  H31      1.0000 0.43200  0.19080  0.91180  Biso   1.000  H
  C38      1.0000 0.59960  0.21600  0.98532  Biso   1.000  C
  H32      1.0000 0.65050  0.26120  0.99540  Biso   1.000  H
  C39      1.0000 0.58410  0.12110  0.00487  Biso   1.000  C
  C40      1.0000 0.50870  0.04950  0.98981  Biso   1.000  C
  N3       1.0000 0.27980  0.85930  0.93874  Biso   1.000  N
  H33      1.0000 0.25190  0.80020  0.94490  Biso   1.000  H
  N4       1.0000 0.31110  0.00960  0.90642  Biso   1.000  N
  O3       1.0000 0.86180  0.76870  0.80116  Biso   1.000  O
  O4       1.0000 0.93210  0.86240  0.75644  Biso   1.000  O
  H34      1.0000 0.30650  0.05990  0.88900  Biso   1.000  H
  C41      1.0000 0.32500  0.06970  0.29100  Biso   1.000  C
  C42      1.0000 0.74610  0.45810  0.45121  Biso   1.000  C
  C43      1.0000 0.85280  0.44420  0.43080  Biso   1.000  C
  C44      1.0000 0.85200  0.46050  0.38690  Biso   1.000  C
  H35      1.0000 0.92200  0.47310  0.37750  Biso   1.000  H
  H36      1.0000 0.80890  0.51980  0.38050  Biso   1.000  H
  H37      1.0000 0.82440  0.39950  0.37350  Biso   1.000  H
  C45      1.0000 0.91650  0.54080  0.44530  Biso   1.000  C
  H38      1.0000 0.95840  0.52200  0.46870  Biso   1.000  H
  H39      1.0000 0.86930  0.59600  0.45280  Biso   1.000  H
  H40      1.0000 0.96110  0.56420  0.42340  Biso   1.000  H
  C46      1.0000 0.91260  0.35870  0.44640  Biso   1.000  C
  H41      1.0000 0.88220  0.29410  0.43730  Biso   1.000  H
  H42      1.0000 0.91270  0.36100  0.47590  Biso   1.000  H
  H43      1.0000 0.98320  0.36370  0.43650  Biso   1.000  H
  C47      1.0000 0.35010  0.98350  0.32062  Biso   1.000  C
  C48      1.0000 0.41550  0.90140  0.30989  Biso   1.000  C
  H44      1.0000 0.44440  0.89830  0.28370  Biso   1.000  H
  C49      1.0000 0.43740  0.82410  0.33854  Biso   1.000  C
  H45      1.0000 0.48200  0.76960  0.33140  Biso   1.000  H
  C50      1.0000 0.39560  0.82620  0.37645  Biso   1.000  C
  C51      1.0000 0.33220  0.90900  0.38759  Biso   1.000  C
  H46      1.0000 0.30420  0.91280  0.41390  Biso   1.000  H
  C52      1.0000 0.31120  0.98600  0.35901  Biso   1.000  C
  H47      1.0000 0.26860  0.04170  0.36660  Biso   1.000  H
  C53      1.0000 0.42110  0.74420  0.40672  Biso   1.000  C
  C54      1.0000 0.41100  0.64080  0.45985  Biso   1.000  C
  C55      1.0000 0.50390  0.62310  0.43972  Biso   1.000  C
  C56      1.0000 0.57770  0.54770  0.45430  Biso   1.000  C
  C57      1.0000 0.67390  0.53060  0.43538  Biso   1.000  C
  H48      1.0000 0.69080  0.56800  0.41180  Biso   1.000  H
  C58      1.0000 0.71600  0.40040  0.48532  Biso   1.000  C
  H49      1.0000 0.76120  0.34950  0.49540  Biso   1.000  H
  C59      1.0000 0.62110  0.41590  0.50487  Biso   1.000  C
  C60      1.0000 0.54950  0.49130  0.48981  Biso   1.000  C
  N5       1.0000 0.35930  0.72020  0.43874  Biso   1.000  N
  H50      1.0000 0.30020  0.74810  0.44490  Biso   1.000  H
  N6       1.0000 0.50960  0.68890  0.40642  Biso   1.000  N
  O5       1.0000 0.26870  0.13820  0.30116  Biso   1.000  O
  O6       1.0000 0.36240  0.06790  0.25644  Biso   1.000  O
  H51      1.0000 0.55990  0.69350  0.38900  Biso   1.000  H
  C61      1.0000 0.17500  0.43030  0.29100  Biso   1.000  C
  C62      1.0000 0.75390  0.04190  0.45121  Biso   1.000  C
  C63      1.0000 0.64720  0.05580  0.43080  Biso   1.000  C
  C64      1.0000 0.64800  0.03950  0.38690  Biso   1.000  C
  H52      1.0000 0.57800  0.02690  0.37750  Biso   1.000  H
  H53      1.0000 0.69110  0.98020  0.38050  Biso   1.000  H
  H54      1.0000 0.67560  0.10050  0.37350  Biso   1.000  H
  C65      1.0000 0.58350  0.95920  0.44530  Biso   1.000  C
  H55      1.0000 0.54160  0.97800  0.46870  Biso   1.000  H
  H56      1.0000 0.63070  0.90400  0.45280  Biso   1.000  H
  H57      1.0000 0.53890  0.93580  0.42340  Biso   1.000  H
  C66      1.0000 0.58740  0.14130  0.44640  Biso   1.000  C
  H58      1.0000 0.61780  0.20590  0.43730  Biso   1.000  H
  H59      1.0000 0.58730  0.13900  0.47590  Biso   1.000  H
  H60      1.0000 0.51680  0.13630  0.43650  Biso   1.000  H
  C67      1.0000 0.14990  0.51650  0.32062  Biso   1.000  C
  C68      1.0000 0.08450  0.59860  0.30989  Biso   1.000  C
  H61      1.0000 0.05560  0.60170  0.28370  Biso   1.000  H
  C69      1.0000 0.06260  0.67590  0.33854  Biso   1.000  C
  H62      1.0000 0.01800  0.73040  0.33140  Biso   1.000  H
  C70      1.0000 0.10440  0.67380  0.37645  Biso   1.000  C
  C71      1.0000 0.16780  0.59100  0.38759  Biso   1.000  C
  H63      1.0000 0.19580  0.58720  0.41390  Biso   1.000  H
  C72      1.0000 0.18880  0.51400  0.35901  Biso   1.000  C
  H64      1.0000 0.23140  0.45830  0.36660  Biso   1.000  H
  C73      1.0000 0.07890  0.75580  0.40672  Biso   1.000  C
  C74      1.0000 0.08900  0.85920  0.45985  Biso   1.000  C
  C75      1.0000 0.99610  0.87690  0.43972  Biso   1.000  C
  C76      1.0000 0.92230  0.95230  0.45430  Biso   1.000  C
  C77      1.0000 0.82610  0.96940  0.43538  Biso   1.000  C
  H65      1.0000 0.80920  0.93200  0.41180  Biso   1.000  H
  C78      1.0000 0.78400  0.09960  0.48532  Biso   1.000  C
  H66      1.0000 0.73880  0.15050  0.49540  Biso   1.000  H
  C79      1.0000 0.87890  0.08410  0.50487  Biso   1.000  C
  C80      1.0000 0.95050  0.00870  0.48981  Biso   1.000  C
  N7       1.0000 0.14070  0.77980  0.43874  Biso   1.000  N
  H67      1.0000 0.19980  0.75190  0.44490  Biso   1.000  H
  N8       1.0000 0.99040  0.81110  0.40642  Biso   1.000  N
  O7       1.0000 0.23130  0.36180  0.30116  Biso   1.000  O
  O8       1.0000 0.13760  0.43210  0.25644  Biso   1.000  O
  H68      1.0000 0.94010  0.80650  0.38900  Biso   1.000  H
  C81      1.0000 0.43030  0.32500  0.20900  Biso   1.000  C
  C82      1.0000 0.04190  0.74610  0.04879  Biso   1.000  C
  C83      1.0000 0.05580  0.85280  0.06920  Biso   1.000  C
  C84      1.0000 0.03950  0.85200  0.11310  Biso   1.000  C
  H69      1.0000 0.02690  0.92200  0.12250  Biso   1.000  H
  H70      1.0000 0.98020  0.80890  0.11950  Biso   1.000  H
  H71      1.0000 0.10050  0.82440  0.12650  Biso   1.000  H
  C85      1.0000 0.95920  0.91650  0.05470  Biso   1.000  C
  H72      1.0000 0.97800  0.95840  0.03130  Biso   1.000  H
  H73      1.0000 0.90400  0.86930  0.04720  Biso   1.000  H
  H74      1.0000 0.93580  0.96110  0.07660  Biso   1.000  H
  C86      1.0000 0.14130  0.91260  0.05360  Biso   1.000  C
  H75      1.0000 0.20590  0.88220  0.06270  Biso   1.000  H
  H76      1.0000 0.13900  0.91270  0.02410  Biso   1.000  H
  H77      1.0000 0.13630  0.98320  0.06350  Biso   1.000  H
  C87      1.0000 0.51650  0.35010  0.17938  Biso   1.000  C
  C88      1.0000 0.59860  0.41550  0.19011  Biso   1.000  C
  H78      1.0000 0.60170  0.44440  0.21630  Biso   1.000  H
  C89      1.0000 0.67590  0.43740  0.16146  Biso   1.000  C
  H79      1.0000 0.73040  0.48200  0.16860  Biso   1.000  H
  C90      1.0000 0.67380  0.39560  0.12355  Biso   1.000  C
  C91      1.0000 0.59100  0.33220  0.11241  Biso   1.000  C
  H80      1.0000 0.58720  0.30420  0.08610  Biso   1.000  H
  C92      1.0000 0.51400  0.31120  0.14099  Biso   1.000  C
  H81      1.0000 0.45830  0.26860  0.13340  Biso   1.000  H
  C93      1.0000 0.75580  0.42110  0.09328  Biso   1.000  C
  C94      1.0000 0.85920  0.41100  0.04015  Biso   1.000  C
  C95      1.0000 0.87690  0.50390  0.06028  Biso   1.000  C
  C96      1.0000 0.95230  0.57770  0.04570  Biso   1.000  C
  C97      1.0000 0.96940  0.67390  0.06462  Biso   1.000  C
  H82      1.0000 0.93200  0.69080  0.08820  Biso   1.000  H
  C98      1.0000 0.09960  0.71600  0.01468  Biso   1.000  C
  H83      1.0000 0.15050  0.76120  0.00460  Biso   1.000  H
  C99      1.0000 0.08410  0.62110  0.99513  Biso   1.000  C
  C100     1.0000 0.00870  0.54950  0.01019  Biso   1.000  C
  N9       1.0000 0.77980  0.35930  0.06126  Biso   1.000  N
  H84      1.0000 0.75190  0.30020  0.05510  Biso   1.000  H
  N10      1.0000 0.81110  0.50960  0.09358  Biso   1.000  N
  O9       1.0000 0.36180  0.26870  0.19884  Biso   1.000  O
  O10      1.0000 0.43210  0.36240  0.24356  Biso   1.000  O
  H85      1.0000 0.80650  0.55990  0.11100  Biso   1.000  H
  C101     1.0000 0.06970  0.17500  0.20900  Biso   1.000  C
  C102     1.0000 0.45810  0.75390  0.04879  Biso   1.000  C
  C103     1.0000 0.44420  0.64720  0.06920  Biso   1.000  C
  C104     1.0000 0.46050  0.64800  0.11310  Biso   1.000  C
  H86      1.0000 0.47310  0.57800  0.12250  Biso   1.000  H
  H87      1.0000 0.51980  0.69110  0.11950  Biso   1.000  H
  H88      1.0000 0.39950  0.67560  0.12650  Biso   1.000  H
  C105     1.0000 0.54080  0.58350  0.05470  Biso   1.000  C
  H89      1.0000 0.52200  0.54160  0.03130  Biso   1.000  H
  H90      1.0000 0.59600  0.63070  0.04720  Biso   1.000  H
  H91      1.0000 0.56420  0.53890  0.07660  Biso   1.000  H
  C106     1.0000 0.35870  0.58740  0.05360  Biso   1.000  C
  H92      1.0000 0.29410  0.61780  0.06270  Biso   1.000  H
  H93      1.0000 0.36100  0.58730  0.02410  Biso   1.000  H
  H94      1.0000 0.36370  0.51680  0.06350  Biso   1.000  H
  C107     1.0000 0.98350  0.14990  0.17938  Biso   1.000  C
  C108     1.0000 0.90140  0.08450  0.19011  Biso   1.000  C
  H95      1.0000 0.89830  0.05560  0.21630  Biso   1.000  H
  C109     1.0000 0.82410  0.06260  0.16146  Biso   1.000  C
  H96      1.0000 0.76960  0.01800  0.16860  Biso   1.000  H
  C110     1.0000 0.82620  0.10440  0.12355  Biso   1.000  C
  C111     1.0000 0.90900  0.16780  0.11241  Biso   1.000  C
  H97      1.0000 0.91280  0.19580  0.08610  Biso   1.000  H
  C112     1.0000 0.98600  0.18880  0.14099  Biso   1.000  C
  H98      1.0000 0.04170  0.23140  0.13340  Biso   1.000  H
  C113     1.0000 0.74420  0.07890  0.09328  Biso   1.000  C
  C114     1.0000 0.64080  0.08900  0.04015  Biso   1.000  C
  C115     1.0000 0.62310  0.99610  0.06028  Biso   1.000  C
  C116     1.0000 0.54770  0.92230  0.04570  Biso   1.000  C
  C117     1.0000 0.53060  0.82610  0.06462  Biso   1.000  C
  H99      1.0000 0.56800  0.80920  0.08820  Biso   1.000  H
  C118     1.0000 0.40040  0.78400  0.01468  Biso   1.000  C
  H100     1.0000 0.34950  0.73880  0.00460  Biso   1.000  H
  C119     1.0000 0.41590  0.87890  0.99513  Biso   1.000  C
  C120     1.0000 0.49130  0.95050  0.01019  Biso   1.000  C
  N11      1.0000 0.72020  0.14070  0.06126  Biso   1.000  N
  H101     1.0000 0.74810  0.19980  0.05510  Biso   1.000  H
  N12      1.0000 0.68890  0.99040  0.09358  Biso   1.000  N
  O11      1.0000 0.13820  0.23130  0.19884  Biso   1.000  O
  O12      1.0000 0.06790  0.13760  0.24356  Biso   1.000  O
  H102     1.0000 0.69350  0.94010  0.11100  Biso   1.000  H
  C121     1.0000 0.67500  0.93030  0.70900  Biso   1.000  C
  C122     1.0000 0.25390  0.54190  0.54879  Biso   1.000  C
  C123     1.0000 0.14720  0.55580  0.56920  Biso   1.000  C
  C124     1.0000 0.14800  0.53950  0.61310  Biso   1.000  C
  H103     1.0000 0.07800  0.52690  0.62250  Biso   1.000  H
  H104     1.0000 0.19110  0.48020  0.61950  Biso   1.000  H
  H105     1.0000 0.17560  0.60050  0.62650  Biso   1.000  H
  C125     1.0000 0.08350  0.45920  0.55470  Biso   1.000  C
  H106     1.0000 0.04160  0.47800  0.53130  Biso   1.000  H
  H107     1.0000 0.13070  0.40400  0.54720  Biso   1.000  H
  H108     1.0000 0.03890  0.43580  0.57660  Biso   1.000  H
  C126     1.0000 0.08740  0.64130  0.55360  Biso   1.000  C
  H109     1.0000 0.11780  0.70590  0.56270  Biso   1.000  H
  H110     1.0000 0.08730  0.63900  0.52410  Biso   1.000  H
  H111     1.0000 0.01680  0.63630  0.56350  Biso   1.000  H
  C127     1.0000 0.64990  0.01650  0.67938  Biso   1.000  C
  C128     1.0000 0.58450  0.09860  0.69011  Biso   1.000  C
  H112     1.0000 0.55560  0.10170  0.71630  Biso   1.000  H
  C129     1.0000 0.56260  0.17590  0.66146  Biso   1.000  C
  H113     1.0000 0.51800  0.23040  0.66860  Biso   1.000  H
  C130     1.0000 0.60440  0.17380  0.62355  Biso   1.000  C
  C131     1.0000 0.66780  0.09100  0.61241  Biso   1.000  C
  H114     1.0000 0.69580  0.08720  0.58610  Biso   1.000  H
  C132     1.0000 0.68880  0.01400  0.64099  Biso   1.000  C
  H115     1.0000 0.73140  0.95830  0.63340  Biso   1.000  H
  C133     1.0000 0.57890  0.25580  0.59328  Biso   1.000  C
  C134     1.0000 0.58900  0.35920  0.54015  Biso   1.000  C
  C135     1.0000 0.49610  0.37690  0.56028  Biso   1.000  C
  C136     1.0000 0.42230  0.45230  0.54570  Biso   1.000  C
  C137     1.0000 0.32610  0.46940  0.56462  Biso   1.000  C
  H116     1.0000 0.30920  0.43200  0.58820  Biso   1.000  H
  C138     1.0000 0.28400  0.59960  0.51468  Biso   1.000  C
  H117     1.0000 0.23880  0.65050  0.50460  Biso   1.000  H
  C139     1.0000 0.37890  0.58410  0.49513  Biso   1.000  C
  C140     1.0000 0.45050  0.50870  0.51019  Biso   1.000  C
  N13      1.0000 0.64070  0.27980  0.56126  Biso   1.000  N
  H118     1.0000 0.69980  0.25190  0.55510  Biso   1.000  H
  N14      1.0000 0.49040  0.31110  0.59358  Biso   1.000  N
  O13      1.0000 0.73130  0.86180  0.69884  Biso   1.000  O
  O14      1.0000 0.63760  0.93210  0.74356  Biso   1.000  O
  H119     1.0000 0.44010  0.30650  0.61100  Biso   1.000  H
  C141     1.0000 0.82500  0.56970  0.70900  Biso   1.000  C
  C142     1.0000 0.24610  0.95810  0.54879  Biso   1.000  C
  C143     1.0000 0.35280  0.94420  0.56920  Biso   1.000  C
  C144     1.0000 0.35200  0.96050  0.61310  Biso   1.000  C
  H120     1.0000 0.42200  0.97310  0.62250  Biso   1.000  H
  H121     1.0000 0.30890  0.01980  0.61950  Biso   1.000  H
  H122     1.0000 0.32440  0.89950  0.62650  Biso   1.000  H
  C145     1.0000 0.41650  0.04080  0.55470  Biso   1.000  C
  H123     1.0000 0.45840  0.02200  0.53130  Biso   1.000  H
  H124     1.0000 0.36930  0.09600  0.54720  Biso   1.000  H
  H125     1.0000 0.46110  0.06420  0.57660  Biso   1.000  H
  C146     1.0000 0.41260  0.85870  0.55360  Biso   1.000  C
  H126     1.0000 0.38220  0.79410  0.56270  Biso   1.000  H
  H127     1.0000 0.41270  0.86100  0.52410  Biso   1.000  H
  H128     1.0000 0.48320  0.86370  0.56350  Biso   1.000  H
  C147     1.0000 0.85010  0.48350  0.67938  Biso   1.000  C
  C148     1.0000 0.91550  0.40140  0.69011  Biso   1.000  C
  H129     1.0000 0.94440  0.39830  0.71630  Biso   1.000  H
  C149     1.0000 0.93740  0.32410  0.66146  Biso   1.000  C
  H130     1.0000 0.98200  0.26960  0.66860  Biso   1.000  H
  C150     1.0000 0.89560  0.32620  0.62355  Biso   1.000  C
  C151     1.0000 0.83220  0.40900  0.61241  Biso   1.000  C
  H131     1.0000 0.80420  0.41280  0.58610  Biso   1.000  H
  C152     1.0000 0.81120  0.48600  0.64099  Biso   1.000  C
  H132     1.0000 0.76860  0.54170  0.63340  Biso   1.000  H
  C153     1.0000 0.92110  0.24420  0.59328  Biso   1.000  C
  C154     1.0000 0.91100  0.14080  0.54015  Biso   1.000  C
  C155     1.0000 0.00390  0.12310  0.56028  Biso   1.000  C
  C156     1.0000 0.07770  0.04770  0.54570  Biso   1.000  C
  C157     1.0000 0.17390  0.03060  0.56462  Biso   1.000  C
  H133     1.0000 0.19080  0.06800  0.58820  Biso   1.000  H
  C158     1.0000 0.21600  0.90040  0.51468  Biso   1.000  C
  H134     1.0000 0.26120  0.84950  0.50460  Biso   1.000  H
  C159     1.0000 0.12110  0.91590  0.49513  Biso   1.000  C
  C160     1.0000 0.04950  0.99130  0.51019  Biso   1.000  C
  N15      1.0000 0.85930  0.22020  0.56126  Biso   1.000  N
  H135     1.0000 0.80020  0.24810  0.55510  Biso   1.000  H
  N16      1.0000 0.00960  0.18890  0.59358  Biso   1.000  N
  O15      1.0000 0.76870  0.63820  0.69884  Biso   1.000  O
  O16      1.0000 0.86240  0.56790  0.74356  Biso   1.000  O
  H136     1.0000 0.05990  0.19350  0.61100  Biso   1.000  H
  Cd1      1.0000 0.75000  0.75000  0.75000  Biso   1.000  Cd
  Cd2      1.0000 0.25000  0.25000  0.25000  Biso   1.000  Cd
