data_image0
_cell_length_a       29.007
_cell_length_b       29.007
_cell_length_c       16.175
_cell_angle_alpha    90
_cell_angle_beta     90
_cell_angle_gamma    120

_symmetry_space_group_name_H-M    "P 1"
_symmetry_int_tables_number       1

loop_
  _symmetry_equiv_pos_as_xyz
  'x, y, z'

loop_
  _atom_site_label
  _atom_site_occupancy
  _atom_site_fract_x
  _atom_site_fract_y
  _atom_site_fract_z
  _atom_site_thermal_displace_type
  _atom_site_B_iso_or_equiv
  _atom_site_type_symbol
  C1       1.0000 0.96418  0.25099  0.08990  Biso   1.000  C
  C2       1.0000 0.79566  0.08822  0.06750  Biso   1.000  C
  C3       1.0000 0.84626  0.12430  0.10990  Biso   1.000  C
  C4       1.0000 0.86750  0.12319  0.18470  Biso   1.000  C
  H1       1.0000 0.85240  0.09620  0.22400  Biso   1.000  H
  C5       1.0000 0.91643  0.17060  0.19060  Biso   1.000  C
  H2       1.0000 0.94010  0.18100  0.23470  Biso   1.000  H
  C6       1.0000 0.92295  0.19853  0.12020  Biso   1.000  C
  O1       1.0000 0.00466  0.27581  0.13881  Biso   1.000  O
  O2       1.0000 0.95907  0.26754  0.02236  Biso   1.000  O
  O3       1.0000 0.79271  0.10228  0.99322  Biso   1.000  O
  O4       1.0000 0.76119  0.04867  0.10397  Biso   1.000  O
  O5       1.0000 0.87985  0.17064  0.06943  Biso   1.000  O
  C7       1.0000 0.63085  0.58432  0.42323  Biso   1.000  C
  C8       1.0000 0.46233  0.42155  0.40083  Biso   1.000  C
  C9       1.0000 0.51293  0.45763  0.44323  Biso   1.000  C
  C10      1.0000 0.53417  0.45652  0.51803  Biso   1.000  C
  H3       1.0000 0.51907  0.42953  0.55733  Biso   1.000  H
  C11      1.0000 0.58310  0.50393  0.52393  Biso   1.000  C
  H4       1.0000 0.60677  0.51433  0.56803  Biso   1.000  H
  C12      1.0000 0.58962  0.53186  0.45353  Biso   1.000  C
  O6       1.0000 0.67133  0.60914  0.47214  Biso   1.000  O
  O7       1.0000 0.62574  0.60087  0.35569  Biso   1.000  O
  O8       1.0000 0.45938  0.43561  0.32655  Biso   1.000  O
  O9       1.0000 0.42786  0.38200  0.43730  Biso   1.000  O
  O10      1.0000 0.54652  0.50397  0.40276  Biso   1.000  O
  C13      1.0000 0.29751  0.91766  0.75657  Biso   1.000  C
  C14      1.0000 0.12899  0.75489  0.73417  Biso   1.000  C
  C15      1.0000 0.17959  0.79097  0.77657  Biso   1.000  C
  C16      1.0000 0.20083  0.78986  0.85137  Biso   1.000  C
  H5       1.0000 0.18573  0.76287  0.89067  Biso   1.000  H
  C17      1.0000 0.24976  0.83727  0.85727  Biso   1.000  C
  H6       1.0000 0.27343  0.84767  0.90137  Biso   1.000  H
  C18      1.0000 0.25628  0.86520  0.78687  Biso   1.000  C
  O11      1.0000 0.33799  0.94248  0.80548  Biso   1.000  O
  O12      1.0000 0.29240  0.93421  0.68903  Biso   1.000  O
  O13      1.0000 0.12604  0.76895  0.65989  Biso   1.000  O
  O14      1.0000 0.09452  0.71534  0.77064  Biso   1.000  O
  O15      1.0000 0.21318  0.83731  0.73610  Biso   1.000  O
  C19      1.0000 0.74901  0.71319  0.08990  Biso   1.000  C
  C20      1.0000 0.91178  0.70744  0.06750  Biso   1.000  C
  C21      1.0000 0.87570  0.72196  0.10990  Biso   1.000  C
  C22      1.0000 0.87681  0.74431  0.18470  Biso   1.000  C
  H7       1.0000 0.90380  0.75620  0.22400  Biso   1.000  H
  C23      1.0000 0.82940  0.74583  0.19060  Biso   1.000  C
  H8       1.0000 0.81900  0.75910  0.23470  Biso   1.000  H
  C24      1.0000 0.80147  0.72442  0.12020  Biso   1.000  C
  O16      1.0000 0.72419  0.72885  0.13881  Biso   1.000  O
  O17      1.0000 0.73246  0.69153  0.02236  Biso   1.000  O
  O18      1.0000 0.89772  0.69043  0.99322  Biso   1.000  O
  O19      1.0000 0.95133  0.71252  0.10397  Biso   1.000  O
  O20      1.0000 0.82936  0.70921  0.06943  Biso   1.000  O
  C25      1.0000 0.41568  0.04652  0.42323  Biso   1.000  C
  C26      1.0000 0.57845  0.04077  0.40083  Biso   1.000  C
  C27      1.0000 0.54237  0.05529  0.44323  Biso   1.000  C
  C28      1.0000 0.54348  0.07764  0.51803  Biso   1.000  C
  H9       1.0000 0.57047  0.08953  0.55733  Biso   1.000  H
  C29      1.0000 0.49607  0.07916  0.52393  Biso   1.000  C
  H10      1.0000 0.48567  0.09243  0.56803  Biso   1.000  H
  C30      1.0000 0.46814  0.05775  0.45353  Biso   1.000  C
  O21      1.0000 0.39086  0.06218  0.47214  Biso   1.000  O
  O22      1.0000 0.39913  0.02486  0.35569  Biso   1.000  O
  O23      1.0000 0.56439  0.02376  0.32655  Biso   1.000  O
  O24      1.0000 0.61800  0.04585  0.43730  Biso   1.000  O
  O25      1.0000 0.49603  0.04254  0.40276  Biso   1.000  O
  C31      1.0000 0.08234  0.37986  0.75657  Biso   1.000  C
  C32      1.0000 0.24511  0.37411  0.73417  Biso   1.000  C
  C33      1.0000 0.20903  0.38863  0.77657  Biso   1.000  C
  C34      1.0000 0.21014  0.41098  0.85137  Biso   1.000  C
  H11      1.0000 0.23713  0.42287  0.89067  Biso   1.000  H
  C35      1.0000 0.16273  0.41250  0.85727  Biso   1.000  C
  H12      1.0000 0.15233  0.42577  0.90137  Biso   1.000  H
  C36      1.0000 0.13480  0.39109  0.78687  Biso   1.000  C
  O26      1.0000 0.05752  0.39552  0.80548  Biso   1.000  O
  O27      1.0000 0.06579  0.35820  0.68903  Biso   1.000  O
  O28      1.0000 0.23105  0.35710  0.65989  Biso   1.000  O
  O29      1.0000 0.28466  0.37919  0.77064  Biso   1.000  O
  O30      1.0000 0.16269  0.37588  0.73610  Biso   1.000  O
  C37      1.0000 0.28681  0.03582  0.08990  Biso   1.000  C
  C38      1.0000 0.29256  0.20434  0.06750  Biso   1.000  C
  C39      1.0000 0.27804  0.15374  0.10990  Biso   1.000  C
  C40      1.0000 0.25569  0.13250  0.18470  Biso   1.000  C
  H13      1.0000 0.24380  0.14760  0.22400  Biso   1.000  H
  C41      1.0000 0.25417  0.08357  0.19060  Biso   1.000  C
  H14      1.0000 0.24090  0.05990  0.23470  Biso   1.000  H
  C42      1.0000 0.27558  0.07705  0.12020  Biso   1.000  C
  O31      1.0000 0.27115  0.99534  0.13881  Biso   1.000  O
  O32      1.0000 0.30847  0.04093  0.02236  Biso   1.000  O
  O33      1.0000 0.30957  0.20729  0.99322  Biso   1.000  O
  O34      1.0000 0.28748  0.23881  0.10397  Biso   1.000  O
  O35      1.0000 0.29079  0.12015  0.06943  Biso   1.000  O
  C43      1.0000 0.95348  0.36915  0.42323  Biso   1.000  C
  C44      1.0000 0.95923  0.53767  0.40083  Biso   1.000  C
  C45      1.0000 0.94471  0.48707  0.44323  Biso   1.000  C
  C46      1.0000 0.92236  0.46583  0.51803  Biso   1.000  C
  H15      1.0000 0.91047  0.48093  0.55733  Biso   1.000  H
  C47      1.0000 0.92084  0.41690  0.52393  Biso   1.000  C
  H16      1.0000 0.90757  0.39323  0.56803  Biso   1.000  H
  C48      1.0000 0.94225  0.41038  0.45353  Biso   1.000  C
  O36      1.0000 0.93782  0.32867  0.47214  Biso   1.000  O
  O37      1.0000 0.97514  0.37426  0.35569  Biso   1.000  O
  O38      1.0000 0.97624  0.54062  0.32655  Biso   1.000  O
  O39      1.0000 0.95415  0.57214  0.43730  Biso   1.000  O
  O40      1.0000 0.95746  0.45348  0.40276  Biso   1.000  O
  C49      1.0000 0.62014  0.70249  0.75657  Biso   1.000  C
  C50      1.0000 0.62589  0.87101  0.73417  Biso   1.000  C
  C51      1.0000 0.61137  0.82041  0.77657  Biso   1.000  C
  C52      1.0000 0.58902  0.79917  0.85137  Biso   1.000  C
  H17      1.0000 0.57713  0.81427  0.89067  Biso   1.000  H
  C53      1.0000 0.58750  0.75024  0.85727  Biso   1.000  C
  H18      1.0000 0.57423  0.72657  0.90137  Biso   1.000  H
  C54      1.0000 0.60891  0.74372  0.78687  Biso   1.000  C
  O41      1.0000 0.60448  0.66201  0.80548  Biso   1.000  O
  O42      1.0000 0.64180  0.70760  0.68903  Biso   1.000  O
  O43      1.0000 0.64290  0.87396  0.65989  Biso   1.000  O
  O44      1.0000 0.62081  0.90548  0.77064  Biso   1.000  O
  O45      1.0000 0.62412  0.78682  0.73610  Biso   1.000  O
  C55      1.0000 0.25099  0.96418  0.41010  Biso   1.000  C
  C56      1.0000 0.08822  0.79566  0.43250  Biso   1.000  C
  C57      1.0000 0.12430  0.84626  0.39010  Biso   1.000  C
  C58      1.0000 0.12319  0.86750  0.31530  Biso   1.000  C
  H19      1.0000 0.09620  0.85240  0.27600  Biso   1.000  H
  C59      1.0000 0.17060  0.91643  0.30940  Biso   1.000  C
  H20      1.0000 0.18100  0.94010  0.26530  Biso   1.000  H
  C60      1.0000 0.19853  0.92295  0.37980  Biso   1.000  C
  O46      1.0000 0.27581  0.00466  0.36119  Biso   1.000  O
  O47      1.0000 0.26754  0.95907  0.47764  Biso   1.000  O
  O48      1.0000 0.10228  0.79271  0.50678  Biso   1.000  O
  O49      1.0000 0.04867  0.76119  0.39603  Biso   1.000  O
  O50      1.0000 0.17064  0.87985  0.43057  Biso   1.000  O
  C61      1.0000 0.91766  0.29751  0.74343  Biso   1.000  C
  C62      1.0000 0.75489  0.12899  0.76583  Biso   1.000  C
  C63      1.0000 0.79097  0.17959  0.72343  Biso   1.000  C
  C64      1.0000 0.78986  0.20083  0.64863  Biso   1.000  C
  H21      1.0000 0.76287  0.18573  0.60933  Biso   1.000  H
  C65      1.0000 0.83727  0.24976  0.64273  Biso   1.000  C
  H22      1.0000 0.84767  0.27343  0.59863  Biso   1.000  H
  C66      1.0000 0.86520  0.25628  0.71313  Biso   1.000  C
  O51      1.0000 0.94248  0.33799  0.69452  Biso   1.000  O
  O52      1.0000 0.93421  0.29240  0.81097  Biso   1.000  O
  O53      1.0000 0.76895  0.12604  0.84011  Biso   1.000  O
  O54      1.0000 0.71534  0.09452  0.72936  Biso   1.000  O
  O55      1.0000 0.83731  0.21318  0.76390  Biso   1.000  O
  C67      1.0000 0.58432  0.63085  0.07677  Biso   1.000  C
  C68      1.0000 0.42155  0.46233  0.09917  Biso   1.000  C
  C69      1.0000 0.45763  0.51293  0.05677  Biso   1.000  C
  C70      1.0000 0.45652  0.53417  0.98197  Biso   1.000  C
  H23      1.0000 0.42953  0.51907  0.94267  Biso   1.000  H
  C71      1.0000 0.50393  0.58310  0.97607  Biso   1.000  C
  H24      1.0000 0.51433  0.60677  0.93197  Biso   1.000  H
  C72      1.0000 0.53186  0.58962  0.04647  Biso   1.000  C
  O56      1.0000 0.60914  0.67133  0.02786  Biso   1.000  O
  O57      1.0000 0.60087  0.62574  0.14431  Biso   1.000  O
  O58      1.0000 0.43561  0.45938  0.17345  Biso   1.000  O
  O59      1.0000 0.38200  0.42786  0.06270  Biso   1.000  O
  O60      1.0000 0.50397  0.54652  0.09724  Biso   1.000  O
  C73      1.0000 0.71319  0.74901  0.41010  Biso   1.000  C
  C74      1.0000 0.70744  0.91178  0.43250  Biso   1.000  C
  C75      1.0000 0.72196  0.87570  0.39010  Biso   1.000  C
  C76      1.0000 0.74431  0.87681  0.31530  Biso   1.000  C
  H25      1.0000 0.75620  0.90380  0.27600  Biso   1.000  H
  C77      1.0000 0.74583  0.82940  0.30940  Biso   1.000  C
  H26      1.0000 0.75910  0.81900  0.26530  Biso   1.000  H
  C78      1.0000 0.72442  0.80147  0.37980  Biso   1.000  C
  O61      1.0000 0.72885  0.72419  0.36119  Biso   1.000  O
  O62      1.0000 0.69153  0.73246  0.47764  Biso   1.000  O
  O63      1.0000 0.69043  0.89772  0.50678  Biso   1.000  O
  O64      1.0000 0.71252  0.95133  0.39603  Biso   1.000  O
  O65      1.0000 0.70921  0.82936  0.43057  Biso   1.000  O
  C79      1.0000 0.37986  0.08234  0.74343  Biso   1.000  C
  C80      1.0000 0.37411  0.24511  0.76583  Biso   1.000  C
  C81      1.0000 0.38863  0.20903  0.72343  Biso   1.000  C
  C82      1.0000 0.41098  0.21014  0.64863  Biso   1.000  C
  H27      1.0000 0.42287  0.23713  0.60933  Biso   1.000  H
  C83      1.0000 0.41250  0.16273  0.64273  Biso   1.000  C
  H28      1.0000 0.42577  0.15233  0.59863  Biso   1.000  H
  C84      1.0000 0.39109  0.13480  0.71313  Biso   1.000  C
  O66      1.0000 0.39552  0.05752  0.69452  Biso   1.000  O
  O67      1.0000 0.35820  0.06579  0.81097  Biso   1.000  O
  O68      1.0000 0.35710  0.23105  0.84011  Biso   1.000  O
  O69      1.0000 0.37919  0.28466  0.72936  Biso   1.000  O
  O70      1.0000 0.37588  0.16269  0.76390  Biso   1.000  O
  C85      1.0000 0.04652  0.41568  0.07677  Biso   1.000  C
  C86      1.0000 0.04077  0.57845  0.09917  Biso   1.000  C
  C87      1.0000 0.05529  0.54237  0.05677  Biso   1.000  C
  C88      1.0000 0.07764  0.54348  0.98197  Biso   1.000  C
  H29      1.0000 0.08953  0.57047  0.94267  Biso   1.000  H
  C89      1.0000 0.07916  0.49607  0.97607  Biso   1.000  C
  H30      1.0000 0.09243  0.48567  0.93197  Biso   1.000  H
  C90      1.0000 0.05775  0.46814  0.04647  Biso   1.000  C
  O71      1.0000 0.06218  0.39086  0.02786  Biso   1.000  O
  O72      1.0000 0.02486  0.39913  0.14431  Biso   1.000  O
  O73      1.0000 0.02376  0.56439  0.17345  Biso   1.000  O
  O74      1.0000 0.04585  0.61800  0.06270  Biso   1.000  O
  O75      1.0000 0.04254  0.49603  0.09724  Biso   1.000  O
  C91      1.0000 0.03582  0.28681  0.41010  Biso   1.000  C
  C92      1.0000 0.20434  0.29256  0.43250  Biso   1.000  C
  C93      1.0000 0.15374  0.27804  0.39010  Biso   1.000  C
  C94      1.0000 0.13250  0.25569  0.31530  Biso   1.000  C
  H31      1.0000 0.14760  0.24380  0.27600  Biso   1.000  H
  C95      1.0000 0.08357  0.25417  0.30940  Biso   1.000  C
  H32      1.0000 0.05990  0.24090  0.26530  Biso   1.000  H
  C96      1.0000 0.07705  0.27558  0.37980  Biso   1.000  C
  O76      1.0000 0.99534  0.27115  0.36119  Biso   1.000  O
  O77      1.0000 0.04093  0.30847  0.47764  Biso   1.000  O
  O78      1.0000 0.20729  0.30957  0.50678  Biso   1.000  O
  O79      1.0000 0.23881  0.28748  0.39603  Biso   1.000  O
  O80      1.0000 0.12015  0.29079  0.43057  Biso   1.000  O
  C97      1.0000 0.70249  0.62014  0.74343  Biso   1.000  C
  C98      1.0000 0.87101  0.62589  0.76583  Biso   1.000  C
  C99      1.0000 0.82041  0.61137  0.72343  Biso   1.000  C
  C100     1.0000 0.79917  0.58902  0.64863  Biso   1.000  C
  H33      1.0000 0.81427  0.57713  0.60933  Biso   1.000  H
  C101     1.0000 0.75024  0.58750  0.64273  Biso   1.000  C
  H34      1.0000 0.72657  0.57423  0.59863  Biso   1.000  H
  C102     1.0000 0.74372  0.60891  0.71313  Biso   1.000  C
  O81      1.0000 0.66201  0.60448  0.69452  Biso   1.000  O
  O82      1.0000 0.70760  0.64180  0.81097  Biso   1.000  O
  O83      1.0000 0.87396  0.64290  0.84011  Biso   1.000  O
  O84      1.0000 0.90548  0.62081  0.72936  Biso   1.000  O
  O85      1.0000 0.78682  0.62412  0.76390  Biso   1.000  O
  C103     1.0000 0.36915  0.95348  0.07677  Biso   1.000  C
  C104     1.0000 0.53767  0.95923  0.09917  Biso   1.000  C
  C105     1.0000 0.48707  0.94471  0.05677  Biso   1.000  C
  C106     1.0000 0.46583  0.92236  0.98197  Biso   1.000  C
  H35      1.0000 0.48093  0.91047  0.94267  Biso   1.000  H
  C107     1.0000 0.41690  0.92084  0.97607  Biso   1.000  C
  H36      1.0000 0.39323  0.90757  0.93197  Biso   1.000  H
  C108     1.0000 0.41038  0.94225  0.04647  Biso   1.000  C
  O86      1.0000 0.32867  0.93782  0.02786  Biso   1.000  O
  O87      1.0000 0.37426  0.97514  0.14431  Biso   1.000  O
  O88      1.0000 0.54062  0.97624  0.17345  Biso   1.000  O
  O89      1.0000 0.57214  0.95415  0.06270  Biso   1.000  O
  O90      1.0000 0.45348  0.95746  0.09724  Biso   1.000  O
  C109     1.0000 0.03582  0.74901  0.91010  Biso   1.000  C
  C110     1.0000 0.20434  0.91178  0.93250  Biso   1.000  C
  C111     1.0000 0.15374  0.87570  0.89010  Biso   1.000  C
  C112     1.0000 0.13250  0.87681  0.81530  Biso   1.000  C
  H37      1.0000 0.14760  0.90380  0.77600  Biso   1.000  H
  C113     1.0000 0.08357  0.82940  0.80940  Biso   1.000  C
  H38      1.0000 0.05990  0.81900  0.76530  Biso   1.000  H
  C114     1.0000 0.07705  0.80147  0.87980  Biso   1.000  C
  O91      1.0000 0.99534  0.72419  0.86119  Biso   1.000  O
  O92      1.0000 0.04093  0.73246  0.97764  Biso   1.000  O
  O93      1.0000 0.20729  0.89772  0.00678  Biso   1.000  O
  O94      1.0000 0.23881  0.95133  0.89603  Biso   1.000  O
  O95      1.0000 0.12015  0.82936  0.93057  Biso   1.000  O
  C115     1.0000 0.70249  0.08234  0.24343  Biso   1.000  C
  C116     1.0000 0.87101  0.24511  0.26583  Biso   1.000  C
  C117     1.0000 0.82041  0.20903  0.22343  Biso   1.000  C
  C118     1.0000 0.79917  0.21014  0.14863  Biso   1.000  C
  H39      1.0000 0.81427  0.23713  0.10933  Biso   1.000  H
  C119     1.0000 0.75024  0.16273  0.14273  Biso   1.000  C
  H40      1.0000 0.72657  0.15233  0.09863  Biso   1.000  H
  C120     1.0000 0.74372  0.13480  0.21313  Biso   1.000  C
  O96      1.0000 0.66201  0.05752  0.19452  Biso   1.000  O
  O97      1.0000 0.70760  0.06579  0.31097  Biso   1.000  O
  O98      1.0000 0.87396  0.23105  0.34011  Biso   1.000  O
  O99      1.0000 0.90548  0.28466  0.22936  Biso   1.000  O
  O100     1.0000 0.78682  0.16269  0.26390  Biso   1.000  O
  C121     1.0000 0.36915  0.41568  0.57677  Biso   1.000  C
  C122     1.0000 0.53767  0.57845  0.59917  Biso   1.000  C
  C123     1.0000 0.48707  0.54237  0.55677  Biso   1.000  C
  C124     1.0000 0.46583  0.54348  0.48197  Biso   1.000  C
  H41      1.0000 0.48093  0.57047  0.44267  Biso   1.000  H
  C125     1.0000 0.41690  0.49607  0.47607  Biso   1.000  C
  H42      1.0000 0.39323  0.48567  0.43197  Biso   1.000  H
  C126     1.0000 0.41038  0.46814  0.54647  Biso   1.000  C
  O101     1.0000 0.32867  0.39086  0.52786  Biso   1.000  O
  O102     1.0000 0.37426  0.39913  0.64431  Biso   1.000  O
  O103     1.0000 0.54062  0.56439  0.67345  Biso   1.000  O
  O104     1.0000 0.57214  0.61800  0.56270  Biso   1.000  O
  O105     1.0000 0.45348  0.49603  0.59724  Biso   1.000  O
  C127     1.0000 0.25099  0.28681  0.91010  Biso   1.000  C
  C128     1.0000 0.08822  0.29256  0.93250  Biso   1.000  C
  C129     1.0000 0.12430  0.27804  0.89010  Biso   1.000  C
  C130     1.0000 0.12319  0.25569  0.81530  Biso   1.000  C
  H43      1.0000 0.09620  0.24380  0.77600  Biso   1.000  H
  C131     1.0000 0.17060  0.25417  0.80940  Biso   1.000  C
  H44      1.0000 0.18100  0.24090  0.76530  Biso   1.000  H
  C132     1.0000 0.19853  0.27558  0.87980  Biso   1.000  C
  O106     1.0000 0.27581  0.27115  0.86119  Biso   1.000  O
  O107     1.0000 0.26754  0.30847  0.97764  Biso   1.000  O
  O108     1.0000 0.10228  0.30957  0.00678  Biso   1.000  O
  O109     1.0000 0.04867  0.28748  0.89603  Biso   1.000  O
  O110     1.0000 0.17064  0.29079  0.93057  Biso   1.000  O
  C133     1.0000 0.91766  0.62014  0.24343  Biso   1.000  C
  C134     1.0000 0.75489  0.62589  0.26583  Biso   1.000  C
  C135     1.0000 0.79097  0.61137  0.22343  Biso   1.000  C
  C136     1.0000 0.78986  0.58902  0.14863  Biso   1.000  C
  H45      1.0000 0.76287  0.57713  0.10933  Biso   1.000  H
  C137     1.0000 0.83727  0.58750  0.14273  Biso   1.000  C
  H46      1.0000 0.84767  0.57423  0.09863  Biso   1.000  H
  C138     1.0000 0.86520  0.60891  0.21313  Biso   1.000  C
  O111     1.0000 0.94248  0.60448  0.19452  Biso   1.000  O
  O112     1.0000 0.93421  0.64180  0.31097  Biso   1.000  O
  O113     1.0000 0.76895  0.64290  0.34011  Biso   1.000  O
  O114     1.0000 0.71534  0.62081  0.22936  Biso   1.000  O
  O115     1.0000 0.83731  0.62412  0.26390  Biso   1.000  O
  C139     1.0000 0.58432  0.95348  0.57677  Biso   1.000  C
  C140     1.0000 0.42155  0.95923  0.59917  Biso   1.000  C
  C141     1.0000 0.45763  0.94471  0.55677  Biso   1.000  C
  C142     1.0000 0.45652  0.92236  0.48197  Biso   1.000  C
  H47      1.0000 0.42953  0.91047  0.44267  Biso   1.000  H
  C143     1.0000 0.50393  0.92084  0.47607  Biso   1.000  C
  H48      1.0000 0.51433  0.90757  0.43197  Biso   1.000  H
  C144     1.0000 0.53186  0.94225  0.54647  Biso   1.000  C
  O116     1.0000 0.60914  0.93782  0.52786  Biso   1.000  O
  O117     1.0000 0.60087  0.97514  0.64431  Biso   1.000  O
  O118     1.0000 0.43561  0.97624  0.67345  Biso   1.000  O
  O119     1.0000 0.38200  0.95415  0.56270  Biso   1.000  O
  O120     1.0000 0.50397  0.95746  0.59724  Biso   1.000  O
  C145     1.0000 0.71319  0.96418  0.91010  Biso   1.000  C
  C146     1.0000 0.70744  0.79566  0.93250  Biso   1.000  C
  C147     1.0000 0.72196  0.84626  0.89010  Biso   1.000  C
  C148     1.0000 0.74431  0.86750  0.81530  Biso   1.000  C
  H49      1.0000 0.75620  0.85240  0.77600  Biso   1.000  H
  C149     1.0000 0.74583  0.91643  0.80940  Biso   1.000  C
  H50      1.0000 0.75910  0.94010  0.76530  Biso   1.000  H
  C150     1.0000 0.72442  0.92295  0.87980  Biso   1.000  C
  O121     1.0000 0.72885  0.00466  0.86119  Biso   1.000  O
  O122     1.0000 0.69153  0.95907  0.97764  Biso   1.000  O
  O123     1.0000 0.69043  0.79271  0.00678  Biso   1.000  O
  O124     1.0000 0.71252  0.76119  0.89603  Biso   1.000  O
  O125     1.0000 0.70921  0.87985  0.93057  Biso   1.000  O
  C151     1.0000 0.37986  0.29751  0.24343  Biso   1.000  C
  C152     1.0000 0.37411  0.12899  0.26583  Biso   1.000  C
  C153     1.0000 0.38863  0.17959  0.22343  Biso   1.000  C
  C154     1.0000 0.41098  0.20083  0.14863  Biso   1.000  C
  H51      1.0000 0.42287  0.18573  0.10933  Biso   1.000  H
  C155     1.0000 0.41250  0.24976  0.14273  Biso   1.000  C
  H52      1.0000 0.42577  0.27343  0.09863  Biso   1.000  H
  C156     1.0000 0.39109  0.25628  0.21313  Biso   1.000  C
  O126     1.0000 0.39552  0.33799  0.19452  Biso   1.000  O
  O127     1.0000 0.35820  0.29240  0.31097  Biso   1.000  O
  O128     1.0000 0.35710  0.12604  0.34011  Biso   1.000  O
  O129     1.0000 0.37919  0.09452  0.22936  Biso   1.000  O
  O130     1.0000 0.37588  0.21318  0.26390  Biso   1.000  O
  C157     1.0000 0.04652  0.63085  0.57677  Biso   1.000  C
  C158     1.0000 0.04077  0.46233  0.59917  Biso   1.000  C
  C159     1.0000 0.05529  0.51293  0.55677  Biso   1.000  C
  C160     1.0000 0.07764  0.53417  0.48197  Biso   1.000  C
  H53      1.0000 0.08953  0.51907  0.44267  Biso   1.000  H
  C161     1.0000 0.07916  0.58310  0.47607  Biso   1.000  C
  H54      1.0000 0.09243  0.60677  0.43197  Biso   1.000  H
  C162     1.0000 0.05775  0.58962  0.54647  Biso   1.000  C
  O131     1.0000 0.06218  0.67133  0.52786  Biso   1.000  O
  O132     1.0000 0.02486  0.62574  0.64431  Biso   1.000  O
  O133     1.0000 0.02376  0.45938  0.67345  Biso   1.000  O
  O134     1.0000 0.04585  0.42786  0.56270  Biso   1.000  O
  O135     1.0000 0.04254  0.54652  0.59724  Biso   1.000  O
  C163     1.0000 0.74901  0.03582  0.58990  Biso   1.000  C
  C164     1.0000 0.91178  0.20434  0.56750  Biso   1.000  C
  C165     1.0000 0.87570  0.15374  0.60990  Biso   1.000  C
  C166     1.0000 0.87681  0.13250  0.68470  Biso   1.000  C
  H55      1.0000 0.90380  0.14760  0.72400  Biso   1.000  H
  C167     1.0000 0.82940  0.08357  0.69060  Biso   1.000  C
  H56      1.0000 0.81900  0.05990  0.73470  Biso   1.000  H
  C168     1.0000 0.80147  0.07705  0.62020  Biso   1.000  C
  O136     1.0000 0.72419  0.99534  0.63881  Biso   1.000  O
  O137     1.0000 0.73246  0.04093  0.52236  Biso   1.000  O
  O138     1.0000 0.89772  0.20729  0.49322  Biso   1.000  O
  O139     1.0000 0.95133  0.23881  0.60397  Biso   1.000  O
  O140     1.0000 0.82936  0.12015  0.56943  Biso   1.000  O
  C169     1.0000 0.41568  0.36915  0.92323  Biso   1.000  C
  C170     1.0000 0.57845  0.53767  0.90083  Biso   1.000  C
  C171     1.0000 0.54237  0.48707  0.94323  Biso   1.000  C
  C172     1.0000 0.54348  0.46583  0.01803  Biso   1.000  C
  H57      1.0000 0.57047  0.48093  0.05733  Biso   1.000  H
  C173     1.0000 0.49607  0.41690  0.02393  Biso   1.000  C
  H58      1.0000 0.48567  0.39323  0.06803  Biso   1.000  H
  C174     1.0000 0.46814  0.41038  0.95353  Biso   1.000  C
  O141     1.0000 0.39086  0.32867  0.97214  Biso   1.000  O
  O142     1.0000 0.39913  0.37426  0.85569  Biso   1.000  O
  O143     1.0000 0.56439  0.54062  0.82655  Biso   1.000  O
  O144     1.0000 0.61800  0.57214  0.93730  Biso   1.000  O
  O145     1.0000 0.49603  0.45348  0.90276  Biso   1.000  O
  C175     1.0000 0.08234  0.70249  0.25657  Biso   1.000  C
  C176     1.0000 0.24511  0.87101  0.23417  Biso   1.000  C
  C177     1.0000 0.20903  0.82041  0.27657  Biso   1.000  C
  C178     1.0000 0.21014  0.79917  0.35137  Biso   1.000  C
  H59      1.0000 0.23713  0.81427  0.39067  Biso   1.000  H
  C179     1.0000 0.16273  0.75024  0.35727  Biso   1.000  C
  H60      1.0000 0.15233  0.72657  0.40137  Biso   1.000  H
  C180     1.0000 0.13480  0.74372  0.28687  Biso   1.000  C
  O146     1.0000 0.05752  0.66201  0.30548  Biso   1.000  O
  O147     1.0000 0.06579  0.70760  0.18903  Biso   1.000  O
  O148     1.0000 0.23105  0.87396  0.15989  Biso   1.000  O
  O149     1.0000 0.28466  0.90548  0.27064  Biso   1.000  O
  O150     1.0000 0.16269  0.78682  0.23610  Biso   1.000  O
  C181     1.0000 0.28681  0.25099  0.58990  Biso   1.000  C
  C182     1.0000 0.29256  0.08822  0.56750  Biso   1.000  C
  C183     1.0000 0.27804  0.12430  0.60990  Biso   1.000  C
  C184     1.0000 0.25569  0.12319  0.68470  Biso   1.000  C
  H61      1.0000 0.24380  0.09620  0.72400  Biso   1.000  H
  C185     1.0000 0.25417  0.17060  0.69060  Biso   1.000  C
  H62      1.0000 0.24090  0.18100  0.73470  Biso   1.000  H
  C186     1.0000 0.27558  0.19853  0.62020  Biso   1.000  C
  O151     1.0000 0.27115  0.27581  0.63881  Biso   1.000  O
  O152     1.0000 0.30847  0.26754  0.52236  Biso   1.000  O
  O153     1.0000 0.30957  0.10228  0.49322  Biso   1.000  O
  O154     1.0000 0.28748  0.04867  0.60397  Biso   1.000  O
  O155     1.0000 0.29079  0.17064  0.56943  Biso   1.000  O
  C187     1.0000 0.95348  0.58432  0.92323  Biso   1.000  C
  C188     1.0000 0.95923  0.42155  0.90083  Biso   1.000  C
  C189     1.0000 0.94471  0.45763  0.94323  Biso   1.000  C
  C190     1.0000 0.92236  0.45652  0.01803  Biso   1.000  C
  H63      1.0000 0.91047  0.42953  0.05733  Biso   1.000  H
  C191     1.0000 0.92084  0.50393  0.02393  Biso   1.000  C
  H64      1.0000 0.90757  0.51433  0.06803  Biso   1.000  H
  C192     1.0000 0.94225  0.53186  0.95353  Biso   1.000  C
  O156     1.0000 0.93782  0.60914  0.97214  Biso   1.000  O
  O157     1.0000 0.97514  0.60087  0.85569  Biso   1.000  O
  O158     1.0000 0.97624  0.43561  0.82655  Biso   1.000  O
  O159     1.0000 0.95415  0.38200  0.93730  Biso   1.000  O
  O160     1.0000 0.95746  0.50397  0.90276  Biso   1.000  O
  C193     1.0000 0.62014  0.91766  0.25657  Biso   1.000  C
  C194     1.0000 0.62589  0.75489  0.23417  Biso   1.000  C
  C195     1.0000 0.61137  0.79097  0.27657  Biso   1.000  C
  C196     1.0000 0.58902  0.78986  0.35137  Biso   1.000  C
  H65      1.0000 0.57713  0.76287  0.39067  Biso   1.000  H
  C197     1.0000 0.58750  0.83727  0.35727  Biso   1.000  C
  H66      1.0000 0.57423  0.84767  0.40137  Biso   1.000  H
  C198     1.0000 0.60891  0.86520  0.28687  Biso   1.000  C
  O161     1.0000 0.60448  0.94248  0.30548  Biso   1.000  O
  O162     1.0000 0.64180  0.93421  0.18903  Biso   1.000  O
  O163     1.0000 0.64290  0.76895  0.15989  Biso   1.000  O
  O164     1.0000 0.62081  0.71534  0.27064  Biso   1.000  O
  O165     1.0000 0.62412  0.83731  0.23610  Biso   1.000  O
  C199     1.0000 0.96418  0.71319  0.58990  Biso   1.000  C
  C200     1.0000 0.79566  0.70744  0.56750  Biso   1.000  C
  C201     1.0000 0.84626  0.72196  0.60990  Biso   1.000  C
  C202     1.0000 0.86750  0.74431  0.68470  Biso   1.000  C
  H67      1.0000 0.85240  0.75620  0.72400  Biso   1.000  H
  C203     1.0000 0.91643  0.74583  0.69060  Biso   1.000  C
  H68      1.0000 0.94010  0.75910  0.73470  Biso   1.000  H
  C204     1.0000 0.92295  0.72442  0.62020  Biso   1.000  C
  O166     1.0000 0.00466  0.72885  0.63881  Biso   1.000  O
  O167     1.0000 0.95907  0.69153  0.52236  Biso   1.000  O
  O168     1.0000 0.79271  0.69043  0.49322  Biso   1.000  O
  O169     1.0000 0.76119  0.71252  0.60397  Biso   1.000  O
  O170     1.0000 0.87985  0.70921  0.56943  Biso   1.000  O
  C205     1.0000 0.63085  0.04652  0.92323  Biso   1.000  C
  C206     1.0000 0.46233  0.04077  0.90083  Biso   1.000  C
  C207     1.0000 0.51293  0.05529  0.94323  Biso   1.000  C
  C208     1.0000 0.53417  0.07764  0.01803  Biso   1.000  C
  H69      1.0000 0.51907  0.08953  0.05733  Biso   1.000  H
  C209     1.0000 0.58310  0.07916  0.02393  Biso   1.000  C
  H70      1.0000 0.60677  0.09243  0.06803  Biso   1.000  H
  C210     1.0000 0.58962  0.05775  0.95353  Biso   1.000  C
  O171     1.0000 0.67133  0.06218  0.97214  Biso   1.000  O
  O172     1.0000 0.62574  0.02486  0.85569  Biso   1.000  O
  O173     1.0000 0.45938  0.02376  0.82655  Biso   1.000  O
  O174     1.0000 0.42786  0.04585  0.93730  Biso   1.000  O
  O175     1.0000 0.54652  0.04254  0.90276  Biso   1.000  O
  C211     1.0000 0.29751  0.37986  0.25657  Biso   1.000  C
  C212     1.0000 0.12899  0.37411  0.23417  Biso   1.000  C
  C213     1.0000 0.17959  0.38863  0.27657  Biso   1.000  C
  C214     1.0000 0.20083  0.41098  0.35137  Biso   1.000  C
  H71      1.0000 0.18573  0.42287  0.39067  Biso   1.000  H
  C215     1.0000 0.24976  0.41250  0.35727  Biso   1.000  C
  H72      1.0000 0.27343  0.42577  0.40137  Biso   1.000  H
  C216     1.0000 0.25628  0.39109  0.28687  Biso   1.000  C
  O176     1.0000 0.33799  0.39552  0.30548  Biso   1.000  O
  O177     1.0000 0.29240  0.35820  0.18903  Biso   1.000  O
  O178     1.0000 0.12604  0.35710  0.15989  Biso   1.000  O
  O179     1.0000 0.09452  0.37919  0.27064  Biso   1.000  O
  O180     1.0000 0.21318  0.37588  0.23610  Biso   1.000  O
  Na1      1.0000 0.99836  0.33169  0.91667  Biso   1.000  Na
  Na2      1.0000 0.85426  0.18760  0.91667  Biso   1.000  Na
  Na3      1.0000 0.66502  0.66502  0.25000  Biso   1.000  Na
  Na4      1.0000 0.52093  0.52093  0.25000  Biso   1.000  Na
  Na5      1.0000 0.66831  0.66667  0.91667  Biso   1.000  Na
  Na6      1.0000 0.81240  0.66667  0.91667  Biso   1.000  Na
  Na7      1.0000 0.33498  0.00000  0.25000  Biso   1.000  Na
  Na8      1.0000 0.47907  0.00000  0.25000  Biso   1.000  Na
  Na9      1.0000 0.33333  0.00164  0.91667  Biso   1.000  Na
  Na10     1.0000 0.33333  0.14574  0.91667  Biso   1.000  Na
  Na11     1.0000 0.00000  0.33498  0.25000  Biso   1.000  Na
  Na12     1.0000 0.00000  0.47907  0.25000  Biso   1.000  Na
  Na13     1.0000 0.33169  0.99836  0.58333  Biso   1.000  Na
  Na14     1.0000 0.18760  0.85426  0.58333  Biso   1.000  Na
  Na15     1.0000 0.66667  0.66831  0.58333  Biso   1.000  Na
  Na16     1.0000 0.66667  0.81240  0.58333  Biso   1.000  Na
  Na17     1.0000 0.00164  0.33333  0.58333  Biso   1.000  Na
  Na18     1.0000 0.14574  0.33333  0.58333  Biso   1.000  Na
  Na19     1.0000 0.00164  0.66831  0.08333  Biso   1.000  Na
  Na20     1.0000 0.14574  0.81240  0.08333  Biso   1.000  Na
  Na21     1.0000 0.33169  0.33333  0.08333  Biso   1.000  Na
  Na22     1.0000 0.18760  0.33333  0.08333  Biso   1.000  Na
  Na23     1.0000 0.66667  0.99836  0.08333  Biso   1.000  Na
  Na24     1.0000 0.66667  0.85426  0.08333  Biso   1.000  Na
  Na25     1.0000 0.66831  0.00164  0.41667  Biso   1.000  Na
  Na26     1.0000 0.81240  0.14574  0.41667  Biso   1.000  Na
  Na27     1.0000 0.33498  0.33498  0.75000  Biso   1.000  Na
  Na28     1.0000 0.47907  0.47907  0.75000  Biso   1.000  Na
  Na29     1.0000 0.33333  0.33169  0.41667  Biso   1.000  Na
  Na30     1.0000 0.33333  0.18760  0.41667  Biso   1.000  Na
  Na31     1.0000 0.00000  0.66502  0.75000  Biso   1.000  Na
  Na32     1.0000 0.00000  0.52093  0.75000  Biso   1.000  Na
  Na33     1.0000 0.99836  0.66667  0.41667  Biso   1.000  Na
  Na34     1.0000 0.85426  0.66667  0.41667  Biso   1.000  Na
  Na35     1.0000 0.66502  0.00000  0.75000  Biso   1.000  Na
  Na36     1.0000 0.52093  0.00000  0.75000  Biso   1.000  Na
  Zn1      1.0000 0.06648  0.33333  0.08333  Biso   1.000  Zn
  Zn2      1.0000 0.66667  0.73314  0.08333  Biso   1.000  Zn
  Zn3      1.0000 0.33333  0.06648  0.41667  Biso   1.000  Zn
  Zn4      1.0000 0.26686  0.93352  0.08333  Biso   1.000  Zn
  Zn5      1.0000 0.60019  0.60019  0.75000  Biso   1.000  Zn
  Zn6      1.0000 0.00000  0.39981  0.75000  Biso   1.000  Zn
  Zn7      1.0000 0.73314  0.66667  0.41667  Biso   1.000  Zn
  Zn8      1.0000 0.39981  0.00000  0.75000  Biso   1.000  Zn
  Zn9      1.0000 0.93352  0.26686  0.41667  Biso   1.000  Zn
  Zn10     1.0000 0.93352  0.66667  0.91667  Biso   1.000  Zn
  Zn11     1.0000 0.60019  0.00000  0.25000  Biso   1.000  Zn
  Zn12     1.0000 0.26686  0.33333  0.58333  Biso   1.000  Zn
  Zn13     1.0000 0.33333  0.26686  0.91667  Biso   1.000  Zn
  Zn14     1.0000 0.00000  0.60019  0.25000  Biso   1.000  Zn
  Zn15     1.0000 0.73314  0.06648  0.91667  Biso   1.000  Zn
  Zn16     1.0000 0.39981  0.39981  0.25000  Biso   1.000  Zn
  Zn17     1.0000 0.66667  0.93352  0.58333  Biso   1.000  Zn
  Zn18     1.0000 0.06648  0.73314  0.58333  Biso   1.000  Zn
