data_image0
_cell_length_a       13.365
_cell_length_b       13.365
_cell_length_c       27.429
_cell_angle_alpha    90
_cell_angle_beta     90
_cell_angle_gamma    90

_symmetry_space_group_name_H-M    "P 1"
_symmetry_int_tables_number       1

loop_
  _symmetry_equiv_pos_as_xyz
  'x, y, z'

loop_
  _atom_site_label
  _atom_site_occupancy
  _atom_site_fract_x
  _atom_site_fract_y
  _atom_site_fract_z
  _atom_site_thermal_displace_type
  _atom_site_B_iso_or_equiv
  _atom_site_type_symbol
  Zn1      1.0000 0.58775  0.02348  0.05332  Biso   1.000  Zn
  C1       1.0000 0.48170  0.12210  0.26446  Biso   1.000  C
  H1       1.0000 0.43330  0.16810  0.27410  Biso   1.000  H
  C2       1.0000 0.49980  0.10630  0.21505  Biso   1.000  C
  H2       1.0000 0.46530  0.14320  0.19170  Biso   1.000  H
  C3       1.0000 0.57000  0.03510  0.20079  Biso   1.000  C
  C4       1.0000 0.58850  0.01530  0.14754  Biso   1.000  C
  C5       1.0000 0.55950  0.22100  0.00260  Biso   1.000  C
  H3       1.0000 0.60020  0.25290  0.02530  Biso   1.000  H
  C6       1.0000 0.46690  0.19370  0.94181  Biso   1.000  C
  H4       1.0000 0.42970  0.20250  0.91340  Biso   1.000  H
  N1       1.0000 0.51610  0.26760  0.96454  Biso   1.000  N
  N2       1.0000 0.47720  0.10680  0.96444  Biso   1.000  N
  N3       1.0000 0.53740  0.12450  0.00404  Biso   1.000  N
  O1       1.0000 0.54930  0.07607  0.11678  Biso   1.000  O
  O2       1.0000 0.64022  0.94240  0.13467  Biso   1.000  O
  Zn2      1.0000 0.91225  0.47652  0.05332  Biso   1.000  Zn
  C7       1.0000 0.01830  0.37790  0.26446  Biso   1.000  C
  H5       1.0000 0.06670  0.33190  0.27410  Biso   1.000  H
  C8       1.0000 0.00020  0.39370  0.21505  Biso   1.000  C
  H6       1.0000 0.03470  0.35680  0.19170  Biso   1.000  H
  C9       1.0000 0.93000  0.46490  0.20079  Biso   1.000  C
  C10      1.0000 0.91150  0.48470  0.14754  Biso   1.000  C
  C11      1.0000 0.94050  0.27900  0.00260  Biso   1.000  C
  H7       1.0000 0.89980  0.24710  0.02530  Biso   1.000  H
  C12      1.0000 0.03310  0.30630  0.94181  Biso   1.000  C
  H8       1.0000 0.07030  0.29750  0.91340  Biso   1.000  H
  N4       1.0000 0.98390  0.23240  0.96454  Biso   1.000  N
  N5       1.0000 0.02280  0.39320  0.96444  Biso   1.000  N
  N6       1.0000 0.96260  0.37550  0.00404  Biso   1.000  N
  O3       1.0000 0.95070  0.42393  0.11678  Biso   1.000  O
  O4       1.0000 0.85978  0.55760  0.13467  Biso   1.000  O
  Zn3      1.0000 0.47652  0.58775  0.05332  Biso   1.000  Zn
  C13      1.0000 0.37790  0.48170  0.26446  Biso   1.000  C
  H9       1.0000 0.33190  0.43330  0.27410  Biso   1.000  H
  C14      1.0000 0.39370  0.49980  0.21505  Biso   1.000  C
  H10      1.0000 0.35680  0.46530  0.19170  Biso   1.000  H
  C15      1.0000 0.46490  0.57000  0.20079  Biso   1.000  C
  C16      1.0000 0.48470  0.58850  0.14754  Biso   1.000  C
  C17      1.0000 0.27900  0.55950  0.00260  Biso   1.000  C
  H11      1.0000 0.24710  0.60020  0.02530  Biso   1.000  H
  C18      1.0000 0.30630  0.46690  0.94181  Biso   1.000  C
  H12      1.0000 0.29750  0.42970  0.91340  Biso   1.000  H
  N7       1.0000 0.23240  0.51610  0.96454  Biso   1.000  N
  N8       1.0000 0.39320  0.47720  0.96444  Biso   1.000  N
  N9       1.0000 0.37550  0.53740  0.00404  Biso   1.000  N
  O5       1.0000 0.42393  0.54930  0.11678  Biso   1.000  O
  O6       1.0000 0.55760  0.64022  0.13467  Biso   1.000  O
  Zn4      1.0000 0.02348  0.91225  0.05332  Biso   1.000  Zn
  C19      1.0000 0.12210  0.01830  0.26446  Biso   1.000  C
  H13      1.0000 0.16810  0.06670  0.27410  Biso   1.000  H
  C20      1.0000 0.10630  0.00020  0.21505  Biso   1.000  C
  H14      1.0000 0.14320  0.03470  0.19170  Biso   1.000  H
  C21      1.0000 0.03510  0.93000  0.20079  Biso   1.000  C
  C22      1.0000 0.01530  0.91150  0.14754  Biso   1.000  C
  C23      1.0000 0.22100  0.94050  0.00260  Biso   1.000  C
  H15      1.0000 0.25290  0.89980  0.02530  Biso   1.000  H
  C24      1.0000 0.19370  0.03310  0.94181  Biso   1.000  C
  H16      1.0000 0.20250  0.07030  0.91340  Biso   1.000  H
  N10      1.0000 0.26760  0.98390  0.96454  Biso   1.000  N
  N11      1.0000 0.10680  0.02280  0.96444  Biso   1.000  N
  N12      1.0000 0.12450  0.96260  0.00404  Biso   1.000  N
  O7       1.0000 0.07607  0.95070  0.11678  Biso   1.000  O
  O8       1.0000 0.94240  0.85978  0.13467  Biso   1.000  O
  Zn5      1.0000 0.41225  0.52348  0.44668  Biso   1.000  Zn
  C25      1.0000 0.51830  0.62210  0.23554  Biso   1.000  C
  H17      1.0000 0.56670  0.66810  0.22590  Biso   1.000  H
  C26      1.0000 0.50020  0.60630  0.28495  Biso   1.000  C
  H18      1.0000 0.53470  0.64320  0.30830  Biso   1.000  H
  C27      1.0000 0.43000  0.53510  0.29921  Biso   1.000  C
  C28      1.0000 0.41150  0.51530  0.35246  Biso   1.000  C
  C29      1.0000 0.44050  0.72100  0.49740  Biso   1.000  C
  H19      1.0000 0.39980  0.75290  0.47470  Biso   1.000  H
  C30      1.0000 0.53310  0.69370  0.55819  Biso   1.000  C
  H20      1.0000 0.57030  0.70250  0.58660  Biso   1.000  H
  N13      1.0000 0.48390  0.76760  0.53546  Biso   1.000  N
  N14      1.0000 0.52280  0.60680  0.53556  Biso   1.000  N
  N15      1.0000 0.46260  0.62450  0.49596  Biso   1.000  N
  O9       1.0000 0.45070  0.57607  0.38322  Biso   1.000  O
  O10      1.0000 0.35978  0.44240  0.36533  Biso   1.000  O
  Zn6      1.0000 0.08775  0.97652  0.44668  Biso   1.000  Zn
  C31      1.0000 0.98170  0.87790  0.23554  Biso   1.000  C
  H21      1.0000 0.93330  0.83190  0.22590  Biso   1.000  H
  C32      1.0000 0.99980  0.89370  0.28495  Biso   1.000  C
  H22      1.0000 0.96530  0.85680  0.30830  Biso   1.000  H
  C33      1.0000 0.07000  0.96490  0.29921  Biso   1.000  C
  C34      1.0000 0.08850  0.98470  0.35246  Biso   1.000  C
  C35      1.0000 0.05950  0.77900  0.49740  Biso   1.000  C
  H23      1.0000 0.10020  0.74710  0.47470  Biso   1.000  H
  C36      1.0000 0.96690  0.80630  0.55819  Biso   1.000  C
  H24      1.0000 0.92970  0.79750  0.58660  Biso   1.000  H
  N16      1.0000 0.01610  0.73240  0.53546  Biso   1.000  N
  N17      1.0000 0.97720  0.89320  0.53556  Biso   1.000  N
  N18      1.0000 0.03740  0.87550  0.49596  Biso   1.000  N
  O11      1.0000 0.04930  0.92393  0.38322  Biso   1.000  O
  O12      1.0000 0.14022  0.05760  0.36533  Biso   1.000  O
  Zn7      1.0000 0.52348  0.08775  0.44668  Biso   1.000  Zn
  C37      1.0000 0.62210  0.98170  0.23554  Biso   1.000  C
  H25      1.0000 0.66810  0.93330  0.22590  Biso   1.000  H
  C38      1.0000 0.60630  0.99980  0.28495  Biso   1.000  C
  H26      1.0000 0.64320  0.96530  0.30830  Biso   1.000  H
  C39      1.0000 0.53510  0.07000  0.29921  Biso   1.000  C
  C40      1.0000 0.51530  0.08850  0.35246  Biso   1.000  C
  C41      1.0000 0.72100  0.05950  0.49740  Biso   1.000  C
  H27      1.0000 0.75290  0.10020  0.47470  Biso   1.000  H
  C42      1.0000 0.69370  0.96690  0.55819  Biso   1.000  C
  H28      1.0000 0.70250  0.92970  0.58660  Biso   1.000  H
  N19      1.0000 0.76760  0.01610  0.53546  Biso   1.000  N
  N20      1.0000 0.60680  0.97720  0.53556  Biso   1.000  N
  N21      1.0000 0.62450  0.03740  0.49596  Biso   1.000  N
  O13      1.0000 0.57607  0.04930  0.38322  Biso   1.000  O
  O14      1.0000 0.44240  0.14022  0.36533  Biso   1.000  O
  Zn8      1.0000 0.97652  0.41225  0.44668  Biso   1.000  Zn
  C43      1.0000 0.87790  0.51830  0.23554  Biso   1.000  C
  H29      1.0000 0.83190  0.56670  0.22590  Biso   1.000  H
  C44      1.0000 0.89370  0.50020  0.28495  Biso   1.000  C
  H30      1.0000 0.85680  0.53470  0.30830  Biso   1.000  H
  C45      1.0000 0.96490  0.43000  0.29921  Biso   1.000  C
  C46      1.0000 0.98470  0.41150  0.35246  Biso   1.000  C
  C47      1.0000 0.77900  0.44050  0.49740  Biso   1.000  C
  H31      1.0000 0.74710  0.39980  0.47470  Biso   1.000  H
  C48      1.0000 0.80630  0.53310  0.55819  Biso   1.000  C
  H32      1.0000 0.79750  0.57030  0.58660  Biso   1.000  H
  N22      1.0000 0.73240  0.48390  0.53546  Biso   1.000  N
  N23      1.0000 0.89320  0.52280  0.53556  Biso   1.000  N
  N24      1.0000 0.87550  0.46260  0.49596  Biso   1.000  N
  O15      1.0000 0.92393  0.45070  0.38322  Biso   1.000  O
  O16      1.0000 0.05760  0.35978  0.36533  Biso   1.000  O
  Zn9      1.0000 0.41225  0.97652  0.94668  Biso   1.000  Zn
  C49      1.0000 0.51830  0.87790  0.73554  Biso   1.000  C
  H33      1.0000 0.56670  0.83190  0.72590  Biso   1.000  H
  C50      1.0000 0.50020  0.89370  0.78495  Biso   1.000  C
  H34      1.0000 0.53470  0.85680  0.80830  Biso   1.000  H
  C51      1.0000 0.43000  0.96490  0.79921  Biso   1.000  C
  C52      1.0000 0.41150  0.98470  0.85246  Biso   1.000  C
  C53      1.0000 0.44050  0.77900  0.99740  Biso   1.000  C
  H35      1.0000 0.39980  0.74710  0.97470  Biso   1.000  H
  C54      1.0000 0.53310  0.80630  0.05819  Biso   1.000  C
  H36      1.0000 0.57030  0.79750  0.08660  Biso   1.000  H
  N25      1.0000 0.48390  0.73240  0.03546  Biso   1.000  N
  N26      1.0000 0.52280  0.89320  0.03556  Biso   1.000  N
  N27      1.0000 0.46260  0.87550  0.99596  Biso   1.000  N
  O17      1.0000 0.45070  0.92393  0.88322  Biso   1.000  O
  O18      1.0000 0.35978  0.05760  0.86533  Biso   1.000  O
  Zn10     1.0000 0.08775  0.52348  0.94668  Biso   1.000  Zn
  C55      1.0000 0.98170  0.62210  0.73554  Biso   1.000  C
  H37      1.0000 0.93330  0.66810  0.72590  Biso   1.000  H
  C56      1.0000 0.99980  0.60630  0.78495  Biso   1.000  C
  H38      1.0000 0.96530  0.64320  0.80830  Biso   1.000  H
  C57      1.0000 0.07000  0.53510  0.79921  Biso   1.000  C
  C58      1.0000 0.08850  0.51530  0.85246  Biso   1.000  C
  C59      1.0000 0.05950  0.72100  0.99740  Biso   1.000  C
  H39      1.0000 0.10020  0.75290  0.97470  Biso   1.000  H
  C60      1.0000 0.96690  0.69370  0.05819  Biso   1.000  C
  H40      1.0000 0.92970  0.70250  0.08660  Biso   1.000  H
  N28      1.0000 0.01610  0.76760  0.03546  Biso   1.000  N
  N29      1.0000 0.97720  0.60680  0.03556  Biso   1.000  N
  N30      1.0000 0.03740  0.62450  0.99596  Biso   1.000  N
  O19      1.0000 0.04930  0.57607  0.88322  Biso   1.000  O
  O20      1.0000 0.14022  0.44240  0.86533  Biso   1.000  O
  Zn11     1.0000 0.52348  0.41225  0.94668  Biso   1.000  Zn
  C61      1.0000 0.62210  0.51830  0.73554  Biso   1.000  C
  H41      1.0000 0.66810  0.56670  0.72590  Biso   1.000  H
  C62      1.0000 0.60630  0.50020  0.78495  Biso   1.000  C
  H42      1.0000 0.64320  0.53470  0.80830  Biso   1.000  H
  C63      1.0000 0.53510  0.43000  0.79921  Biso   1.000  C
  C64      1.0000 0.51530  0.41150  0.85246  Biso   1.000  C
  C65      1.0000 0.72100  0.44050  0.99740  Biso   1.000  C
  H43      1.0000 0.75290  0.39980  0.97470  Biso   1.000  H
  C66      1.0000 0.69370  0.53310  0.05819  Biso   1.000  C
  H44      1.0000 0.70250  0.57030  0.08660  Biso   1.000  H
  N31      1.0000 0.76760  0.48390  0.03546  Biso   1.000  N
  N32      1.0000 0.60680  0.52280  0.03556  Biso   1.000  N
  N33      1.0000 0.62450  0.46260  0.99596  Biso   1.000  N
  O21      1.0000 0.57607  0.45070  0.88322  Biso   1.000  O
  O22      1.0000 0.44240  0.35978  0.86533  Biso   1.000  O
  Zn12     1.0000 0.97652  0.08775  0.94668  Biso   1.000  Zn
  C67      1.0000 0.87790  0.98170  0.73554  Biso   1.000  C
  H45      1.0000 0.83190  0.93330  0.72590  Biso   1.000  H
  C68      1.0000 0.89370  0.99980  0.78495  Biso   1.000  C
  H46      1.0000 0.85680  0.96530  0.80830  Biso   1.000  H
  C69      1.0000 0.96490  0.07000  0.79921  Biso   1.000  C
  C70      1.0000 0.98470  0.08850  0.85246  Biso   1.000  C
  C71      1.0000 0.77900  0.05950  0.99740  Biso   1.000  C
  H47      1.0000 0.74710  0.10020  0.97470  Biso   1.000  H
  C72      1.0000 0.80630  0.96690  0.05819  Biso   1.000  C
  H48      1.0000 0.79750  0.92970  0.08660  Biso   1.000  H
  N34      1.0000 0.73240  0.01610  0.03546  Biso   1.000  N
  N35      1.0000 0.89320  0.97720  0.03556  Biso   1.000  N
  N36      1.0000 0.87550  0.03740  0.99596  Biso   1.000  N
  O23      1.0000 0.92393  0.04930  0.88322  Biso   1.000  O
  O24      1.0000 0.05760  0.14022  0.86533  Biso   1.000  O
  Zn13     1.0000 0.58775  0.47652  0.55332  Biso   1.000  Zn
  C73      1.0000 0.48170  0.37790  0.76446  Biso   1.000  C
  H49      1.0000 0.43330  0.33190  0.77410  Biso   1.000  H
  C74      1.0000 0.49980  0.39370  0.71505  Biso   1.000  C
  H50      1.0000 0.46530  0.35680  0.69170  Biso   1.000  H
  C75      1.0000 0.57000  0.46490  0.70079  Biso   1.000  C
  C76      1.0000 0.58850  0.48470  0.64754  Biso   1.000  C
  C77      1.0000 0.55950  0.27900  0.50260  Biso   1.000  C
  H51      1.0000 0.60020  0.24710  0.52530  Biso   1.000  H
  C78      1.0000 0.46690  0.30630  0.44181  Biso   1.000  C
  H52      1.0000 0.42970  0.29750  0.41340  Biso   1.000  H
  N37      1.0000 0.51610  0.23240  0.46454  Biso   1.000  N
  N38      1.0000 0.47720  0.39320  0.46444  Biso   1.000  N
  N39      1.0000 0.53740  0.37550  0.50404  Biso   1.000  N
  O25      1.0000 0.54930  0.42393  0.61678  Biso   1.000  O
  O26      1.0000 0.64022  0.55760  0.63467  Biso   1.000  O
  Zn14     1.0000 0.91225  0.02348  0.55332  Biso   1.000  Zn
  C79      1.0000 0.01830  0.12210  0.76446  Biso   1.000  C
  H53      1.0000 0.06670  0.16810  0.77410  Biso   1.000  H
  C80      1.0000 0.00020  0.10630  0.71505  Biso   1.000  C
  H54      1.0000 0.03470  0.14320  0.69170  Biso   1.000  H
  C81      1.0000 0.93000  0.03510  0.70079  Biso   1.000  C
  C82      1.0000 0.91150  0.01530  0.64754  Biso   1.000  C
  C83      1.0000 0.94050  0.22100  0.50260  Biso   1.000  C
  H55      1.0000 0.89980  0.25290  0.52530  Biso   1.000  H
  C84      1.0000 0.03310  0.19370  0.44181  Biso   1.000  C
  H56      1.0000 0.07030  0.20250  0.41340  Biso   1.000  H
  N40      1.0000 0.98390  0.26760  0.46454  Biso   1.000  N
  N41      1.0000 0.02280  0.10680  0.46444  Biso   1.000  N
  N42      1.0000 0.96260  0.12450  0.50404  Biso   1.000  N
  O27      1.0000 0.95070  0.07607  0.61678  Biso   1.000  O
  O28      1.0000 0.85978  0.94240  0.63467  Biso   1.000  O
  Zn15     1.0000 0.47652  0.91225  0.55332  Biso   1.000  Zn
  C85      1.0000 0.37790  0.01830  0.76446  Biso   1.000  C
  H57      1.0000 0.33190  0.06670  0.77410  Biso   1.000  H
  C86      1.0000 0.39370  0.00020  0.71505  Biso   1.000  C
  H58      1.0000 0.35680  0.03470  0.69170  Biso   1.000  H
  C87      1.0000 0.46490  0.93000  0.70079  Biso   1.000  C
  C88      1.0000 0.48470  0.91150  0.64754  Biso   1.000  C
  C89      1.0000 0.27900  0.94050  0.50260  Biso   1.000  C
  H59      1.0000 0.24710  0.89980  0.52530  Biso   1.000  H
  C90      1.0000 0.30630  0.03310  0.44181  Biso   1.000  C
  H60      1.0000 0.29750  0.07030  0.41340  Biso   1.000  H
  N43      1.0000 0.23240  0.98390  0.46454  Biso   1.000  N
  N44      1.0000 0.39320  0.02280  0.46444  Biso   1.000  N
  N45      1.0000 0.37550  0.96260  0.50404  Biso   1.000  N
  O29      1.0000 0.42393  0.95070  0.61678  Biso   1.000  O
  O30      1.0000 0.55760  0.85978  0.63467  Biso   1.000  O
  Zn16     1.0000 0.02348  0.58775  0.55332  Biso   1.000  Zn
  C91      1.0000 0.12210  0.48170  0.76446  Biso   1.000  C
  H61      1.0000 0.16810  0.43330  0.77410  Biso   1.000  H
  C92      1.0000 0.10630  0.49980  0.71505  Biso   1.000  C
  H62      1.0000 0.14320  0.46530  0.69170  Biso   1.000  H
  C93      1.0000 0.03510  0.57000  0.70079  Biso   1.000  C
  C94      1.0000 0.01530  0.58850  0.64754  Biso   1.000  C
  C95      1.0000 0.22100  0.55950  0.50260  Biso   1.000  C
  H63      1.0000 0.25290  0.60020  0.52530  Biso   1.000  H
  C96      1.0000 0.19370  0.46690  0.44181  Biso   1.000  C
  H64      1.0000 0.20250  0.42970  0.41340  Biso   1.000  H
  N46      1.0000 0.26760  0.51610  0.46454  Biso   1.000  N
  N47      1.0000 0.10680  0.47720  0.46444  Biso   1.000  N
  N48      1.0000 0.12450  0.53740  0.50404  Biso   1.000  N
  O31      1.0000 0.07607  0.54930  0.61678  Biso   1.000  O
  O32      1.0000 0.94240  0.64022  0.63467  Biso   1.000  O
