data_image0
_cell_length_a       13.393
_cell_length_b       13.393
_cell_length_c       27.338
_cell_angle_alpha    90
_cell_angle_beta     90
_cell_angle_gamma    90

_symmetry_space_group_name_H-M    "P 1"
_symmetry_int_tables_number       1

loop_
  _symmetry_equiv_pos_as_xyz
  'x, y, z'

loop_
  _atom_site_label
  _atom_site_occupancy
  _atom_site_fract_x
  _atom_site_fract_y
  _atom_site_fract_z
  _atom_site_thermal_displace_type
  _atom_site_B_iso_or_equiv
  _atom_site_type_symbol
  Zn1      1.0000 0.91117  0.02289  0.44664  Biso   1.000  Zn
  O1       1.0000 0.86060  0.94560  0.36719  Biso   1.000  O
  O2       1.0000 0.95330  0.07670  0.38332  Biso   1.000  O
  N1       1.0000 0.76720  0.01610  0.46469  Biso   1.000  N
  N2       1.0000 0.62400  0.03830  0.50405  Biso   1.000  N
  N3       1.0000 0.60730  0.97530  0.46508  Biso   1.000  N
  N4       1.0000 0.08990  0.19070  0.22360  Biso   1.000  N
  H1       1.0000 0.10350  0.20240  0.19340  Biso   1.000  H
  H2       1.0000 0.12160  0.22180  0.24630  Biso   1.000  H
  C1       1.0000 0.72000  0.06070  0.50249  Biso   1.000  C
  H3       1.0000 0.75160  0.10250  0.52490  Biso   1.000  H
  C2       1.0000 0.69360  0.96420  0.44268  Biso   1.000  C
  H4       1.0000 0.70280  0.92510  0.41490  Biso   1.000  H
  C3       1.0000 0.91250  0.01660  0.35288  Biso   1.000  C
  C4       1.0000 0.92970  0.03530  0.29994  Biso   1.000  C
  C5       1.0000 0.99960  0.10560  0.28500  Biso   1.000  C
  H5       1.0000 0.03450  0.14170  0.30850  Biso   1.000  H
  C6       1.0000 0.01880  0.12340  0.23533  Biso   1.000  C
  Zn2      1.0000 0.58883  0.47711  0.44664  Biso   1.000  Zn
  O3       1.0000 0.63940  0.55440  0.36719  Biso   1.000  O
  O4       1.0000 0.54670  0.42330  0.38332  Biso   1.000  O
  N5       1.0000 0.73280  0.48390  0.46469  Biso   1.000  N
  N6       1.0000 0.87600  0.46170  0.50405  Biso   1.000  N
  N7       1.0000 0.89270  0.52470  0.46508  Biso   1.000  N
  N8       1.0000 0.41010  0.30930  0.22360  Biso   1.000  N
  H6       1.0000 0.39650  0.29760  0.19340  Biso   1.000  H
  H7       1.0000 0.37840  0.27820  0.24630  Biso   1.000  H
  C7       1.0000 0.78000  0.43930  0.50249  Biso   1.000  C
  H8       1.0000 0.74840  0.39750  0.52490  Biso   1.000  H
  C8       1.0000 0.80640  0.53580  0.44268  Biso   1.000  C
  H9       1.0000 0.79720  0.57490  0.41490  Biso   1.000  H
  C9       1.0000 0.58750  0.48340  0.35288  Biso   1.000  C
  C10      1.0000 0.57030  0.46470  0.29994  Biso   1.000  C
  C11      1.0000 0.50040  0.39440  0.28500  Biso   1.000  C
  H10      1.0000 0.46550  0.35830  0.30850  Biso   1.000  H
  C12      1.0000 0.48120  0.37660  0.23533  Biso   1.000  C
  Zn3      1.0000 0.47711  0.91117  0.44664  Biso   1.000  Zn
  O5       1.0000 0.55440  0.86060  0.36719  Biso   1.000  O
  O6       1.0000 0.42330  0.95330  0.38332  Biso   1.000  O
  N9       1.0000 0.48390  0.76720  0.46469  Biso   1.000  N
  N10      1.0000 0.46170  0.62400  0.50405  Biso   1.000  N
  N11      1.0000 0.52470  0.60730  0.46508  Biso   1.000  N
  N12      1.0000 0.30930  0.08990  0.22360  Biso   1.000  N
  H11      1.0000 0.29760  0.10350  0.19340  Biso   1.000  H
  H12      1.0000 0.27820  0.12160  0.24630  Biso   1.000  H
  C13      1.0000 0.43930  0.72000  0.50249  Biso   1.000  C
  H13      1.0000 0.39750  0.75160  0.52490  Biso   1.000  H
  C14      1.0000 0.53580  0.69360  0.44268  Biso   1.000  C
  H14      1.0000 0.57490  0.70280  0.41490  Biso   1.000  H
  C15      1.0000 0.48340  0.91250  0.35288  Biso   1.000  C
  C16      1.0000 0.46470  0.92970  0.29994  Biso   1.000  C
  C17      1.0000 0.39440  0.99960  0.28500  Biso   1.000  C
  H15      1.0000 0.35830  0.03450  0.30850  Biso   1.000  H
  C18      1.0000 0.37660  0.01880  0.23533  Biso   1.000  C
  Zn4      1.0000 0.02289  0.58883  0.44664  Biso   1.000  Zn
  O7       1.0000 0.94560  0.63940  0.36719  Biso   1.000  O
  O8       1.0000 0.07670  0.54670  0.38332  Biso   1.000  O
  N13      1.0000 0.01610  0.73280  0.46469  Biso   1.000  N
  N14      1.0000 0.03830  0.87600  0.50405  Biso   1.000  N
  N15      1.0000 0.97530  0.89270  0.46508  Biso   1.000  N
  N16      1.0000 0.19070  0.41010  0.22360  Biso   1.000  N
  H16      1.0000 0.20240  0.39650  0.19340  Biso   1.000  H
  H17      1.0000 0.22180  0.37840  0.24630  Biso   1.000  H
  C19      1.0000 0.06070  0.78000  0.50249  Biso   1.000  C
  H18      1.0000 0.10250  0.74840  0.52490  Biso   1.000  H
  C20      1.0000 0.96420  0.80640  0.44268  Biso   1.000  C
  H19      1.0000 0.92510  0.79720  0.41490  Biso   1.000  H
  C21      1.0000 0.01660  0.58750  0.35288  Biso   1.000  C
  C22      1.0000 0.03530  0.57030  0.29994  Biso   1.000  C
  C23      1.0000 0.10560  0.50040  0.28500  Biso   1.000  C
  H20      1.0000 0.14170  0.46550  0.30850  Biso   1.000  H
  C24      1.0000 0.12340  0.48120  0.23533  Biso   1.000  C
  Zn5      1.0000 0.08883  0.52289  0.05336  Biso   1.000  Zn
  O9       1.0000 0.13940  0.44560  0.13281  Biso   1.000  O
  O10      1.0000 0.04670  0.57670  0.11668  Biso   1.000  O
  N17      1.0000 0.23280  0.51610  0.03531  Biso   1.000  N
  N18      1.0000 0.37600  0.53830  0.99595  Biso   1.000  N
  N19      1.0000 0.39270  0.47530  0.03492  Biso   1.000  N
  N20      1.0000 0.91010  0.69070  0.27640  Biso   1.000  N
  H21      1.0000 0.89650  0.70240  0.30660  Biso   1.000  H
  H22      1.0000 0.87840  0.72180  0.25370  Biso   1.000  H
  C25      1.0000 0.28000  0.56070  0.99751  Biso   1.000  C
  H23      1.0000 0.24840  0.60250  0.97510  Biso   1.000  H
  C26      1.0000 0.30640  0.46420  0.05732  Biso   1.000  C
  H24      1.0000 0.29720  0.42510  0.08510  Biso   1.000  H
  C27      1.0000 0.08750  0.51660  0.14712  Biso   1.000  C
  C28      1.0000 0.07030  0.53530  0.20006  Biso   1.000  C
  C29      1.0000 0.00040  0.60560  0.21500  Biso   1.000  C
  H25      1.0000 0.96550  0.64170  0.19150  Biso   1.000  H
  C30      1.0000 0.98120  0.62340  0.26467  Biso   1.000  C
  Zn6      1.0000 0.41117  0.97711  0.05336  Biso   1.000  Zn
  O11      1.0000 0.36060  0.05440  0.13281  Biso   1.000  O
  O12      1.0000 0.45330  0.92330  0.11668  Biso   1.000  O
  N21      1.0000 0.26720  0.98390  0.03531  Biso   1.000  N
  N22      1.0000 0.12400  0.96170  0.99595  Biso   1.000  N
  N23      1.0000 0.10730  0.02470  0.03492  Biso   1.000  N
  N24      1.0000 0.58990  0.80930  0.27640  Biso   1.000  N
  H26      1.0000 0.60350  0.79760  0.30660  Biso   1.000  H
  H27      1.0000 0.62160  0.77820  0.25370  Biso   1.000  H
  C31      1.0000 0.22000  0.93930  0.99751  Biso   1.000  C
  H28      1.0000 0.25160  0.89750  0.97510  Biso   1.000  H
  C32      1.0000 0.19360  0.03580  0.05732  Biso   1.000  C
  H29      1.0000 0.20280  0.07490  0.08510  Biso   1.000  H
  C33      1.0000 0.41250  0.98340  0.14712  Biso   1.000  C
  C34      1.0000 0.42970  0.96470  0.20006  Biso   1.000  C
  C35      1.0000 0.49960  0.89440  0.21500  Biso   1.000  C
  H30      1.0000 0.53450  0.85830  0.19150  Biso   1.000  H
  C36      1.0000 0.51880  0.87660  0.26467  Biso   1.000  C
  Zn7      1.0000 0.52289  0.41117  0.05336  Biso   1.000  Zn
  O13      1.0000 0.44560  0.36060  0.13281  Biso   1.000  O
  O14      1.0000 0.57670  0.45330  0.11668  Biso   1.000  O
  N25      1.0000 0.51610  0.26720  0.03531  Biso   1.000  N
  N26      1.0000 0.53830  0.12400  0.99595  Biso   1.000  N
  N27      1.0000 0.47530  0.10730  0.03492  Biso   1.000  N
  N28      1.0000 0.69070  0.58990  0.27640  Biso   1.000  N
  H31      1.0000 0.70240  0.60350  0.30660  Biso   1.000  H
  H32      1.0000 0.72180  0.62160  0.25370  Biso   1.000  H
  C37      1.0000 0.56070  0.22000  0.99751  Biso   1.000  C
  H33      1.0000 0.60250  0.25160  0.97510  Biso   1.000  H
  C38      1.0000 0.46420  0.19360  0.05732  Biso   1.000  C
  H34      1.0000 0.42510  0.20280  0.08510  Biso   1.000  H
  C39      1.0000 0.51660  0.41250  0.14712  Biso   1.000  C
  C40      1.0000 0.53530  0.42970  0.20006  Biso   1.000  C
  C41      1.0000 0.60560  0.49960  0.21500  Biso   1.000  C
  H35      1.0000 0.64170  0.53450  0.19150  Biso   1.000  H
  C42      1.0000 0.62340  0.51880  0.26467  Biso   1.000  C
  Zn8      1.0000 0.97711  0.08883  0.05336  Biso   1.000  Zn
  O15      1.0000 0.05440  0.13940  0.13281  Biso   1.000  O
  O16      1.0000 0.92330  0.04670  0.11668  Biso   1.000  O
  N29      1.0000 0.98390  0.23280  0.03531  Biso   1.000  N
  N30      1.0000 0.96170  0.37600  0.99595  Biso   1.000  N
  N31      1.0000 0.02470  0.39270  0.03492  Biso   1.000  N
  N32      1.0000 0.80930  0.91010  0.27640  Biso   1.000  N
  H36      1.0000 0.79760  0.89650  0.30660  Biso   1.000  H
  H37      1.0000 0.77820  0.87840  0.25370  Biso   1.000  H
  C43      1.0000 0.93930  0.28000  0.99751  Biso   1.000  C
  H38      1.0000 0.89750  0.24840  0.97510  Biso   1.000  H
  C44      1.0000 0.03580  0.30640  0.05732  Biso   1.000  C
  H39      1.0000 0.07490  0.29720  0.08510  Biso   1.000  H
  C45      1.0000 0.98340  0.08750  0.14712  Biso   1.000  C
  C46      1.0000 0.96470  0.07030  0.20006  Biso   1.000  C
  C47      1.0000 0.89440  0.00040  0.21500  Biso   1.000  C
  H40      1.0000 0.85830  0.96550  0.19150  Biso   1.000  H
  C48      1.0000 0.87660  0.98120  0.26467  Biso   1.000  C
  Zn9      1.0000 0.08883  0.97711  0.55336  Biso   1.000  Zn
  O17      1.0000 0.13940  0.05440  0.63281  Biso   1.000  O
  O18      1.0000 0.04670  0.92330  0.61668  Biso   1.000  O
  N33      1.0000 0.23280  0.98390  0.53531  Biso   1.000  N
  N34      1.0000 0.37600  0.96170  0.49595  Biso   1.000  N
  N35      1.0000 0.39270  0.02470  0.53492  Biso   1.000  N
  N36      1.0000 0.91010  0.80930  0.77640  Biso   1.000  N
  H41      1.0000 0.89650  0.79760  0.80660  Biso   1.000  H
  H42      1.0000 0.87840  0.77820  0.75370  Biso   1.000  H
  C49      1.0000 0.28000  0.93930  0.49751  Biso   1.000  C
  H43      1.0000 0.24840  0.89750  0.47510  Biso   1.000  H
  C50      1.0000 0.30640  0.03580  0.55732  Biso   1.000  C
  H44      1.0000 0.29720  0.07490  0.58510  Biso   1.000  H
  C51      1.0000 0.08750  0.98340  0.64712  Biso   1.000  C
  C52      1.0000 0.07030  0.96470  0.70006  Biso   1.000  C
  C53      1.0000 0.00040  0.89440  0.71500  Biso   1.000  C
  H45      1.0000 0.96550  0.85830  0.69150  Biso   1.000  H
  C54      1.0000 0.98120  0.87660  0.76467  Biso   1.000  C
  Zn10     1.0000 0.41117  0.52289  0.55336  Biso   1.000  Zn
  O19      1.0000 0.36060  0.44560  0.63281  Biso   1.000  O
  O20      1.0000 0.45330  0.57670  0.61668  Biso   1.000  O
  N37      1.0000 0.26720  0.51610  0.53531  Biso   1.000  N
  N38      1.0000 0.12400  0.53830  0.49595  Biso   1.000  N
  N39      1.0000 0.10730  0.47530  0.53492  Biso   1.000  N
  N40      1.0000 0.58990  0.69070  0.77640  Biso   1.000  N
  H46      1.0000 0.60350  0.70240  0.80660  Biso   1.000  H
  H47      1.0000 0.62160  0.72180  0.75370  Biso   1.000  H
  C55      1.0000 0.22000  0.56070  0.49751  Biso   1.000  C
  H48      1.0000 0.25160  0.60250  0.47510  Biso   1.000  H
  C56      1.0000 0.19360  0.46420  0.55732  Biso   1.000  C
  H49      1.0000 0.20280  0.42510  0.58510  Biso   1.000  H
  C57      1.0000 0.41250  0.51660  0.64712  Biso   1.000  C
  C58      1.0000 0.42970  0.53530  0.70006  Biso   1.000  C
  C59      1.0000 0.49960  0.60560  0.71500  Biso   1.000  C
  H50      1.0000 0.53450  0.64170  0.69150  Biso   1.000  H
  C60      1.0000 0.51880  0.62340  0.76467  Biso   1.000  C
  Zn11     1.0000 0.52289  0.08883  0.55336  Biso   1.000  Zn
  O21      1.0000 0.44560  0.13940  0.63281  Biso   1.000  O
  O22      1.0000 0.57670  0.04670  0.61668  Biso   1.000  O
  N41      1.0000 0.51610  0.23280  0.53531  Biso   1.000  N
  N42      1.0000 0.53830  0.37600  0.49595  Biso   1.000  N
  N43      1.0000 0.47530  0.39270  0.53492  Biso   1.000  N
  N44      1.0000 0.69070  0.91010  0.77640  Biso   1.000  N
  H51      1.0000 0.70240  0.89650  0.80660  Biso   1.000  H
  H52      1.0000 0.72180  0.87840  0.75370  Biso   1.000  H
  C61      1.0000 0.56070  0.28000  0.49751  Biso   1.000  C
  H53      1.0000 0.60250  0.24840  0.47510  Biso   1.000  H
  C62      1.0000 0.46420  0.30640  0.55732  Biso   1.000  C
  H54      1.0000 0.42510  0.29720  0.58510  Biso   1.000  H
  C63      1.0000 0.51660  0.08750  0.64712  Biso   1.000  C
  C64      1.0000 0.53530  0.07030  0.70006  Biso   1.000  C
  C65      1.0000 0.60560  0.00040  0.71500  Biso   1.000  C
  H55      1.0000 0.64170  0.96550  0.69150  Biso   1.000  H
  C66      1.0000 0.62340  0.98120  0.76467  Biso   1.000  C
  Zn12     1.0000 0.97711  0.41117  0.55336  Biso   1.000  Zn
  O23      1.0000 0.05440  0.36060  0.63281  Biso   1.000  O
  O24      1.0000 0.92330  0.45330  0.61668  Biso   1.000  O
  N45      1.0000 0.98390  0.26720  0.53531  Biso   1.000  N
  N46      1.0000 0.96170  0.12400  0.49595  Biso   1.000  N
  N47      1.0000 0.02470  0.10730  0.53492  Biso   1.000  N
  N48      1.0000 0.80930  0.58990  0.77640  Biso   1.000  N
  H56      1.0000 0.79760  0.60350  0.80660  Biso   1.000  H
  H57      1.0000 0.77820  0.62160  0.75370  Biso   1.000  H
  C67      1.0000 0.93930  0.22000  0.49751  Biso   1.000  C
  H58      1.0000 0.89750  0.25160  0.47510  Biso   1.000  H
  C68      1.0000 0.03580  0.19360  0.55732  Biso   1.000  C
  H59      1.0000 0.07490  0.20280  0.58510  Biso   1.000  H
  C69      1.0000 0.98340  0.41250  0.64712  Biso   1.000  C
  C70      1.0000 0.96470  0.42970  0.70006  Biso   1.000  C
  C71      1.0000 0.89440  0.49960  0.71500  Biso   1.000  C
  H60      1.0000 0.85830  0.53450  0.69150  Biso   1.000  H
  C72      1.0000 0.87660  0.51880  0.76467  Biso   1.000  C
  Zn13     1.0000 0.91117  0.47711  0.94664  Biso   1.000  Zn
  O25      1.0000 0.86060  0.55440  0.86719  Biso   1.000  O
  O26      1.0000 0.95330  0.42330  0.88332  Biso   1.000  O
  N49      1.0000 0.76720  0.48390  0.96469  Biso   1.000  N
  N50      1.0000 0.62400  0.46170  0.00405  Biso   1.000  N
  N51      1.0000 0.60730  0.52470  0.96508  Biso   1.000  N
  N52      1.0000 0.08990  0.30930  0.72360  Biso   1.000  N
  H61      1.0000 0.10350  0.29760  0.69340  Biso   1.000  H
  H62      1.0000 0.12160  0.27820  0.74630  Biso   1.000  H
  C73      1.0000 0.72000  0.43930  0.00249  Biso   1.000  C
  H63      1.0000 0.75160  0.39750  0.02490  Biso   1.000  H
  C74      1.0000 0.69360  0.53580  0.94268  Biso   1.000  C
  H64      1.0000 0.70280  0.57490  0.91490  Biso   1.000  H
  C75      1.0000 0.91250  0.48340  0.85288  Biso   1.000  C
  C76      1.0000 0.92970  0.46470  0.79994  Biso   1.000  C
  C77      1.0000 0.99960  0.39440  0.78500  Biso   1.000  C
  H65      1.0000 0.03450  0.35830  0.80850  Biso   1.000  H
  C78      1.0000 0.01880  0.37660  0.73533  Biso   1.000  C
  Zn14     1.0000 0.58883  0.02289  0.94664  Biso   1.000  Zn
  O27      1.0000 0.63940  0.94560  0.86719  Biso   1.000  O
  O28      1.0000 0.54670  0.07670  0.88332  Biso   1.000  O
  N53      1.0000 0.73280  0.01610  0.96469  Biso   1.000  N
  N54      1.0000 0.87600  0.03830  0.00405  Biso   1.000  N
  N55      1.0000 0.89270  0.97530  0.96508  Biso   1.000  N
  N56      1.0000 0.41010  0.19070  0.72360  Biso   1.000  N
  H66      1.0000 0.39650  0.20240  0.69340  Biso   1.000  H
  H67      1.0000 0.37840  0.22180  0.74630  Biso   1.000  H
  C79      1.0000 0.78000  0.06070  0.00249  Biso   1.000  C
  H68      1.0000 0.74840  0.10250  0.02490  Biso   1.000  H
  C80      1.0000 0.80640  0.96420  0.94268  Biso   1.000  C
  H69      1.0000 0.79720  0.92510  0.91490  Biso   1.000  H
  C81      1.0000 0.58750  0.01660  0.85288  Biso   1.000  C
  C82      1.0000 0.57030  0.03530  0.79994  Biso   1.000  C
  C83      1.0000 0.50040  0.10560  0.78500  Biso   1.000  C
  H70      1.0000 0.46550  0.14170  0.80850  Biso   1.000  H
  C84      1.0000 0.48120  0.12340  0.73533  Biso   1.000  C
  Zn15     1.0000 0.47711  0.58883  0.94664  Biso   1.000  Zn
  O29      1.0000 0.55440  0.63940  0.86719  Biso   1.000  O
  O30      1.0000 0.42330  0.54670  0.88332  Biso   1.000  O
  N57      1.0000 0.48390  0.73280  0.96469  Biso   1.000  N
  N58      1.0000 0.46170  0.87600  0.00405  Biso   1.000  N
  N59      1.0000 0.52470  0.89270  0.96508  Biso   1.000  N
  N60      1.0000 0.30930  0.41010  0.72360  Biso   1.000  N
  H71      1.0000 0.29760  0.39650  0.69340  Biso   1.000  H
  H72      1.0000 0.27820  0.37840  0.74630  Biso   1.000  H
  C85      1.0000 0.43930  0.78000  0.00249  Biso   1.000  C
  H73      1.0000 0.39750  0.74840  0.02490  Biso   1.000  H
  C86      1.0000 0.53580  0.80640  0.94268  Biso   1.000  C
  H74      1.0000 0.57490  0.79720  0.91490  Biso   1.000  H
  C87      1.0000 0.48340  0.58750  0.85288  Biso   1.000  C
  C88      1.0000 0.46470  0.57030  0.79994  Biso   1.000  C
  C89      1.0000 0.39440  0.50040  0.78500  Biso   1.000  C
  H75      1.0000 0.35830  0.46550  0.80850  Biso   1.000  H
  C90      1.0000 0.37660  0.48120  0.73533  Biso   1.000  C
  Zn16     1.0000 0.02289  0.91117  0.94664  Biso   1.000  Zn
  O31      1.0000 0.94560  0.86060  0.86719  Biso   1.000  O
  O32      1.0000 0.07670  0.95330  0.88332  Biso   1.000  O
  N61      1.0000 0.01610  0.76720  0.96469  Biso   1.000  N
  N62      1.0000 0.03830  0.62400  0.00405  Biso   1.000  N
  N63      1.0000 0.97530  0.60730  0.96508  Biso   1.000  N
  N64      1.0000 0.19070  0.08990  0.72360  Biso   1.000  N
  H76      1.0000 0.20240  0.10350  0.69340  Biso   1.000  H
  H77      1.0000 0.22180  0.12160  0.74630  Biso   1.000  H
  C91      1.0000 0.06070  0.72000  0.00249  Biso   1.000  C
  H78      1.0000 0.10250  0.75160  0.02490  Biso   1.000  H
  C92      1.0000 0.96420  0.69360  0.94268  Biso   1.000  C
  H79      1.0000 0.92510  0.70280  0.91490  Biso   1.000  H
  C93      1.0000 0.01660  0.91250  0.85288  Biso   1.000  C
  C94      1.0000 0.03530  0.92970  0.79994  Biso   1.000  C
  C95      1.0000 0.10560  0.99960  0.78500  Biso   1.000  C
  H80      1.0000 0.14170  0.03450  0.80850  Biso   1.000  H
  C96      1.0000 0.12340  0.01880  0.73533  Biso   1.000  C
