data_image0
_cell_length_a       28.282
_cell_length_b       10.337
_cell_length_c       16.285
_cell_angle_alpha    90
_cell_angle_beta     90
_cell_angle_gamma    90

_symmetry_space_group_name_H-M    "P 1"
_symmetry_int_tables_number       1

loop_
  _symmetry_equiv_pos_as_xyz
  'x, y, z'

loop_
  _atom_site_label
  _atom_site_occupancy
  _atom_site_fract_x
  _atom_site_fract_y
  _atom_site_fract_z
  _atom_site_thermal_displace_type
  _atom_site_B_iso_or_equiv
  _atom_site_type_symbol
  N1       1.0000 0.35620  0.19430  0.65400  Biso   1.000  N
  N2       1.0000 0.37340  0.13400  0.41110  Biso   1.000  N
  C1       1.0000 0.28760  0.23330  0.55280  Biso   1.000  C
  C2       1.0000 0.24520  0.27780  0.58380  Biso   1.000  C
  C3       1.0000 0.29300  0.20530  0.46860  Biso   1.000  C
  C4       1.0000 0.32630  0.21270  0.60850  Biso   1.000  C
  C5       1.0000 0.33750  0.16310  0.43650  Biso   1.000  C
  N3       1.0000 0.14380  0.30570  0.15400  Biso   1.000  N
  N4       1.0000 0.12660  0.36600  0.91110  Biso   1.000  N
  C6       1.0000 0.21240  0.26670  0.05280  Biso   1.000  C
  C7       1.0000 0.25480  0.22220  0.08380  Biso   1.000  C
  C8       1.0000 0.20700  0.29470  0.96860  Biso   1.000  C
  C9       1.0000 0.17370  0.28730  0.10850  Biso   1.000  C
  C10      1.0000 0.16250  0.33690  0.93650  Biso   1.000  C
  N5       1.0000 0.64380  0.19430  0.84600  Biso   1.000  N
  N6       1.0000 0.62660  0.13400  0.08890  Biso   1.000  N
  C11      1.0000 0.71240  0.23330  0.94720  Biso   1.000  C
  C12      1.0000 0.75480  0.27780  0.91620  Biso   1.000  C
  C13      1.0000 0.70700  0.20530  0.03140  Biso   1.000  C
  C14      1.0000 0.67370  0.21270  0.89150  Biso   1.000  C
  C15      1.0000 0.66250  0.16310  0.06350  Biso   1.000  C
  N7       1.0000 0.85620  0.30570  0.34600  Biso   1.000  N
  N8       1.0000 0.87340  0.36600  0.58890  Biso   1.000  N
  C16      1.0000 0.78760  0.26670  0.44720  Biso   1.000  C
  C17      1.0000 0.74520  0.22220  0.41620  Biso   1.000  C
  C18      1.0000 0.79300  0.29470  0.53140  Biso   1.000  C
  C19      1.0000 0.82630  0.28730  0.39150  Biso   1.000  C
  C20      1.0000 0.83750  0.33690  0.56350  Biso   1.000  C
  N9       1.0000 0.14380  0.30570  0.34600  Biso   1.000  N
  N10      1.0000 0.12660  0.36600  0.58890  Biso   1.000  N
  C21      1.0000 0.21240  0.26670  0.44720  Biso   1.000  C
  C22      1.0000 0.25480  0.22220  0.41620  Biso   1.000  C
  C23      1.0000 0.20700  0.29470  0.53140  Biso   1.000  C
  C24      1.0000 0.17370  0.28730  0.39150  Biso   1.000  C
  C25      1.0000 0.16250  0.33690  0.56350  Biso   1.000  C
  N11      1.0000 0.35620  0.19430  0.84600  Biso   1.000  N
  N12      1.0000 0.37340  0.13400  0.08890  Biso   1.000  N
  C26      1.0000 0.28760  0.23330  0.94720  Biso   1.000  C
  C27      1.0000 0.24520  0.27780  0.91620  Biso   1.000  C
  C28      1.0000 0.29300  0.20530  0.03140  Biso   1.000  C
  C29      1.0000 0.32630  0.21270  0.89150  Biso   1.000  C
  C30      1.0000 0.33750  0.16310  0.06350  Biso   1.000  C
  N13      1.0000 0.85620  0.30570  0.15400  Biso   1.000  N
  N14      1.0000 0.87340  0.36600  0.91110  Biso   1.000  N
  C31      1.0000 0.78760  0.26670  0.05280  Biso   1.000  C
  C32      1.0000 0.74520  0.22220  0.08380  Biso   1.000  C
  C33      1.0000 0.79300  0.29470  0.96860  Biso   1.000  C
  C34      1.0000 0.82630  0.28730  0.10850  Biso   1.000  C
  C35      1.0000 0.83750  0.33690  0.93650  Biso   1.000  C
  N15      1.0000 0.64380  0.19430  0.65400  Biso   1.000  N
  N16      1.0000 0.62660  0.13400  0.41110  Biso   1.000  N
  C36      1.0000 0.71240  0.23330  0.55280  Biso   1.000  C
  C37      1.0000 0.75480  0.27780  0.58380  Biso   1.000  C
  C38      1.0000 0.70700  0.20530  0.46860  Biso   1.000  C
  C39      1.0000 0.67370  0.21270  0.60850  Biso   1.000  C
  C40      1.0000 0.66250  0.16310  0.43650  Biso   1.000  C
  Cu1      1.0000 0.39914  0.18229  0.75000  Biso   1.000  Cu
  N17      1.0000 0.43570  0.34430  0.75000  Biso   1.000  N
  N18      1.0000 0.43380  0.01990  0.75000  Biso   1.000  N
  C41      1.0000 0.47480  0.79820  0.75000  Biso   1.000  C
  C42      1.0000 0.44980  0.68300  0.75000  Biso   1.000  C
  C43      1.0000 0.47520  0.56770  0.75000  Biso   1.000  C
  C44      1.0000 0.45110  0.92090  0.75000  Biso   1.000  C
  C45      1.0000 0.45130  0.44580  0.75000  Biso   1.000  C
  Cu2      1.0000 0.10086  0.31771  0.25000  Biso   1.000  Cu
  N19      1.0000 0.06430  0.15570  0.25000  Biso   1.000  N
  N20      1.0000 0.06620  0.48010  0.25000  Biso   1.000  N
  C46      1.0000 0.02520  0.70180  0.25000  Biso   1.000  C
  C47      1.0000 0.05020  0.81700  0.25000  Biso   1.000  C
  C48      1.0000 0.02480  0.93230  0.25000  Biso   1.000  C
  C49      1.0000 0.04890  0.57910  0.25000  Biso   1.000  C
  C50      1.0000 0.04870  0.05420  0.25000  Biso   1.000  C
  Cu3      1.0000 0.60086  0.18229  0.75000  Biso   1.000  Cu
  N21      1.0000 0.56430  0.34430  0.75000  Biso   1.000  N
  N22      1.0000 0.56620  0.01990  0.75000  Biso   1.000  N
  C51      1.0000 0.52520  0.79820  0.75000  Biso   1.000  C
  C52      1.0000 0.55020  0.68300  0.75000  Biso   1.000  C
  C53      1.0000 0.52480  0.56770  0.75000  Biso   1.000  C
  C54      1.0000 0.54890  0.92090  0.75000  Biso   1.000  C
  C55      1.0000 0.54870  0.44580  0.75000  Biso   1.000  C
  Cu4      1.0000 0.89914  0.31771  0.25000  Biso   1.000  Cu
  N23      1.0000 0.93570  0.15570  0.25000  Biso   1.000  N
  N24      1.0000 0.93380  0.48010  0.25000  Biso   1.000  N
  C56      1.0000 0.97480  0.70180  0.25000  Biso   1.000  C
  C57      1.0000 0.94980  0.81700  0.25000  Biso   1.000  C
  C58      1.0000 0.97520  0.93230  0.25000  Biso   1.000  C
  C59      1.0000 0.95110  0.57910  0.25000  Biso   1.000  C
  C60      1.0000 0.95130  0.05420  0.25000  Biso   1.000  C
  N25      1.0000 0.85620  0.69430  0.65400  Biso   1.000  N
  N26      1.0000 0.87340  0.63400  0.41110  Biso   1.000  N
  C61      1.0000 0.78760  0.73330  0.55280  Biso   1.000  C
  C62      1.0000 0.74520  0.77780  0.58380  Biso   1.000  C
  C63      1.0000 0.79300  0.70530  0.46860  Biso   1.000  C
  C64      1.0000 0.82630  0.71270  0.60850  Biso   1.000  C
  C65      1.0000 0.83750  0.66310  0.43650  Biso   1.000  C
  N27      1.0000 0.64380  0.80570  0.15400  Biso   1.000  N
  N28      1.0000 0.62660  0.86600  0.91110  Biso   1.000  N
  C66      1.0000 0.71240  0.76670  0.05280  Biso   1.000  C
  C67      1.0000 0.75480  0.72220  0.08380  Biso   1.000  C
  C68      1.0000 0.70700  0.79470  0.96860  Biso   1.000  C
  C69      1.0000 0.67370  0.78730  0.10850  Biso   1.000  C
  C70      1.0000 0.66250  0.83690  0.93650  Biso   1.000  C
  N29      1.0000 0.14380  0.69430  0.84600  Biso   1.000  N
  N30      1.0000 0.12660  0.63400  0.08890  Biso   1.000  N
  C71      1.0000 0.21240  0.73330  0.94720  Biso   1.000  C
  C72      1.0000 0.25480  0.77780  0.91620  Biso   1.000  C
  C73      1.0000 0.20700  0.70530  0.03140  Biso   1.000  C
  C74      1.0000 0.17370  0.71270  0.89150  Biso   1.000  C
  C75      1.0000 0.16250  0.66310  0.06350  Biso   1.000  C
  N31      1.0000 0.35620  0.80570  0.34600  Biso   1.000  N
  N32      1.0000 0.37340  0.86600  0.58890  Biso   1.000  N
  C76      1.0000 0.28760  0.76670  0.44720  Biso   1.000  C
  C77      1.0000 0.24520  0.72220  0.41620  Biso   1.000  C
  C78      1.0000 0.29300  0.79470  0.53140  Biso   1.000  C
  C79      1.0000 0.32630  0.78730  0.39150  Biso   1.000  C
  C80      1.0000 0.33750  0.83690  0.56350  Biso   1.000  C
  N33      1.0000 0.64380  0.80570  0.34600  Biso   1.000  N
  N34      1.0000 0.62660  0.86600  0.58890  Biso   1.000  N
  C81      1.0000 0.71240  0.76670  0.44720  Biso   1.000  C
  C82      1.0000 0.75480  0.72220  0.41620  Biso   1.000  C
  C83      1.0000 0.70700  0.79470  0.53140  Biso   1.000  C
  C84      1.0000 0.67370  0.78730  0.39150  Biso   1.000  C
  C85      1.0000 0.66250  0.83690  0.56350  Biso   1.000  C
  N35      1.0000 0.85620  0.69430  0.84600  Biso   1.000  N
  N36      1.0000 0.87340  0.63400  0.08890  Biso   1.000  N
  C86      1.0000 0.78760  0.73330  0.94720  Biso   1.000  C
  C87      1.0000 0.74520  0.77780  0.91620  Biso   1.000  C
  C88      1.0000 0.79300  0.70530  0.03140  Biso   1.000  C
  C89      1.0000 0.82630  0.71270  0.89150  Biso   1.000  C
  C90      1.0000 0.83750  0.66310  0.06350  Biso   1.000  C
  N37      1.0000 0.35620  0.80570  0.15400  Biso   1.000  N
  N38      1.0000 0.37340  0.86600  0.91110  Biso   1.000  N
  C91      1.0000 0.28760  0.76670  0.05280  Biso   1.000  C
  C92      1.0000 0.24520  0.72220  0.08380  Biso   1.000  C
  C93      1.0000 0.29300  0.79470  0.96860  Biso   1.000  C
  C94      1.0000 0.32630  0.78730  0.10850  Biso   1.000  C
  C95      1.0000 0.33750  0.83690  0.93650  Biso   1.000  C
  N39      1.0000 0.14380  0.69430  0.65400  Biso   1.000  N
  N40      1.0000 0.12660  0.63400  0.41110  Biso   1.000  N
  C96      1.0000 0.21240  0.73330  0.55280  Biso   1.000  C
  C97      1.0000 0.25480  0.77780  0.58380  Biso   1.000  C
  C98      1.0000 0.20700  0.70530  0.46860  Biso   1.000  C
  C99      1.0000 0.17370  0.71270  0.60850  Biso   1.000  C
  C100     1.0000 0.16250  0.66310  0.43650  Biso   1.000  C
  Cu5      1.0000 0.89914  0.68229  0.75000  Biso   1.000  Cu
  N41      1.0000 0.93570  0.84430  0.75000  Biso   1.000  N
  N42      1.0000 0.93380  0.51990  0.75000  Biso   1.000  N
  C101     1.0000 0.97480  0.29820  0.75000  Biso   1.000  C
  C102     1.0000 0.94980  0.18300  0.75000  Biso   1.000  C
  C103     1.0000 0.97520  0.06770  0.75000  Biso   1.000  C
  C104     1.0000 0.95110  0.42090  0.75000  Biso   1.000  C
  C105     1.0000 0.95130  0.94580  0.75000  Biso   1.000  C
  Cu6      1.0000 0.60086  0.81771  0.25000  Biso   1.000  Cu
  N43      1.0000 0.56430  0.65570  0.25000  Biso   1.000  N
  N44      1.0000 0.56620  0.98010  0.25000  Biso   1.000  N
  C106     1.0000 0.52520  0.20180  0.25000  Biso   1.000  C
  C107     1.0000 0.55020  0.31700  0.25000  Biso   1.000  C
  C108     1.0000 0.52480  0.43230  0.25000  Biso   1.000  C
  C109     1.0000 0.54890  0.07910  0.25000  Biso   1.000  C
  C110     1.0000 0.54870  0.55420  0.25000  Biso   1.000  C
  Cu7      1.0000 0.10086  0.68229  0.75000  Biso   1.000  Cu
  N45      1.0000 0.06430  0.84430  0.75000  Biso   1.000  N
  N46      1.0000 0.06620  0.51990  0.75000  Biso   1.000  N
  C111     1.0000 0.02520  0.29820  0.75000  Biso   1.000  C
  C112     1.0000 0.05020  0.18300  0.75000  Biso   1.000  C
  C113     1.0000 0.02480  0.06770  0.75000  Biso   1.000  C
  C114     1.0000 0.04890  0.42090  0.75000  Biso   1.000  C
  C115     1.0000 0.04870  0.94580  0.75000  Biso   1.000  C
  Cu8      1.0000 0.39914  0.81771  0.25000  Biso   1.000  Cu
  N47      1.0000 0.43570  0.65570  0.25000  Biso   1.000  N
  N48      1.0000 0.43380  0.98010  0.25000  Biso   1.000  N
  C116     1.0000 0.47480  0.20180  0.25000  Biso   1.000  C
  C117     1.0000 0.44980  0.31700  0.25000  Biso   1.000  C
  C118     1.0000 0.47520  0.43230  0.25000  Biso   1.000  C
  C119     1.0000 0.45110  0.07910  0.25000  Biso   1.000  C
  C120     1.0000 0.45130  0.55420  0.25000  Biso   1.000  C
