data_Cell_Modified_SUGDIJ
_audit_creation_date              2019-03-12
_audit_creation_method            'Materials Studio'
_symmetry_space_group_name_H-M    'P1'
_symmetry_Int_Tables_number       1
_symmetry_cell_setting            triclinic
loop_
_symmetry_equiv_pos_as_xyz
  x,y,z
_cell_length_a                    24.3600
_cell_length_b                    24.3600
_cell_length_c                    16.9090
_cell_angle_alpha                 90.0000
_cell_angle_beta                  90.0000
_cell_angle_gamma                 90.0000
loop_
_atom_site_label
_atom_site_type_symbol
_atom_site_fract_x
_atom_site_fract_y
_atom_site_fract_z
_atom_site_U_iso_or_equiv
_atom_site_adp_type
_atom_site_occupancy
C1     C     0.34069   0.21081  -0.01531   0.00000  Uiso   1.00
C2     C     0.36042   0.23281  -0.08703   0.00000  Uiso   1.00
C3     C     0.39996   0.27508  -0.08717   0.00000  Uiso   1.00
C4     C     0.41929   0.29524  -0.01425   0.00000  Uiso   1.00
C5     C     0.39987   0.27425   0.05814   0.00000  Uiso   1.00
C6     C     0.36074   0.23165   0.05696   0.00000  Uiso   1.00
H7     H     0.34597   0.21610  -0.14265   0.00000  Uiso   1.00
H8     H     0.44996   0.32749  -0.01381   0.00000  Uiso   1.00
H9     H     0.34637   0.21423   0.11217   0.00000  Uiso   1.00
C10    C     0.80051   0.67030   0.98517   0.00000  Uiso   1.00
C11    C     0.77913   0.65010   0.91303   0.00000  Uiso   1.00
C12    C     0.74177   0.60605   0.91186   0.00000  Uiso   1.00
C13    C     0.72387   0.58356   0.98405   0.00000  Uiso   1.00
C14    C     0.74445   0.60272   1.05674   0.00000  Uiso   1.00
C15    C     0.78319   0.64558   1.05663   0.00000  Uiso   1.00
H16    H     0.79242   0.66784   0.85749   0.00000  Uiso   1.00
H17    H     0.69428   0.55032   0.98356   0.00000  Uiso   1.00
H18    H     0.80064   0.65889   1.11234   0.00000  Uiso   1.00
C19    C     0.31319   0.71147   0.48476   0.00000  Uiso   1.00
C20    C     0.29187   0.73198   0.41301   0.00000  Uiso   1.00
C21    C     0.24867   0.77043   0.41291   0.00000  Uiso   1.00
C22    C     0.22808   0.78939   0.48587   0.00000  Uiso   1.00
C23    C     0.24883   0.76956   0.55823   0.00000  Uiso   1.00
C24    C     0.29154   0.73062   0.55705   0.00000  Uiso   1.00
H25    H     0.30778   0.71673   0.35734   0.00000  Uiso   1.00
H26    H     0.19505   0.81921   0.48633   0.00000  Uiso   1.00
H27    H     0.30733   0.71452   0.61229   0.00000  Uiso   1.00
C28    C     0.84875   0.16625   0.48450   0.00000  Uiso   1.00
C29    C     0.86841   0.14392   0.55634   0.00000  Uiso   1.00
C30    C     0.90939   0.10315   0.55672   0.00000  Uiso   1.00
C31    C     0.93094   0.08480   0.48416   0.00000  Uiso   1.00
C32    C     0.91234   0.10651   0.41187   0.00000  Uiso   1.00
C33    C     0.87267   0.14845   0.41272   0.00000  Uiso   1.00
H34    H     0.85058   0.15685   0.61199   0.00000  Uiso   1.00
H35    H     0.96177   0.05271   0.48386   0.00000  Uiso   1.00
H36    H     0.85898   0.16577   0.35710   0.00000  Uiso   1.00
Zn37   Zn    0.06268   1.00997   0.98336   0.00000  Uiso   1.00
Zn38   Zn    0.15201   0.92221   0.98554   0.00000  Uiso   1.00
Zn39   Zn    0.04520   0.90440   1.07251   0.00000  Uiso   1.00
Zn40   Zn    0.04608   0.90252   0.89794   0.00000  Uiso   1.00
O41    O     0.07684   0.93508   0.98484   0.00000  Uiso   1.00
O42    O     0.12562   1.04969   0.98192   0.00000  Uiso   1.00
O43    O     0.17409   0.88422   1.07392   0.00000  Uiso   1.00
O44    O     0.01320   0.95450   1.13429   0.00000  Uiso   1.00
O45    O     0.19076   0.98617   0.98568   0.00000  Uiso   1.00
O46    O     0.02493   1.03324   1.07127   0.00000  Uiso   1.00
O47    O     0.09463   0.87094   1.13470   0.00000  Uiso   1.00
O48    O    -0.00503   0.85096   0.92058   0.00000  Uiso   1.00
O49    O     0.17514   0.88378   0.89779   0.00000  Uiso   1.00
O50    O    -0.00769   0.85438   1.05101   0.00000  Uiso   1.00
O51    O     0.09604   0.86967   0.83666   0.00000  Uiso   1.00
O52    O     0.01270   0.95128   0.83487   0.00000  Uiso   1.00
O53    O     0.02394   1.03107   0.89543   0.00000  Uiso   1.00
C54    C     0.17622   1.03646   0.98362   0.00000  Uiso   1.00
C55    C     0.14649   0.86519   1.13202   0.00000  Uiso   1.00
C56    C     0.00690   1.00618   1.13046   0.00000  Uiso   1.00
C57    C    -0.02506   0.83488   0.98596   0.00000  Uiso   1.00
C58    C     0.14786   0.86430   0.83966   0.00000  Uiso   1.00
C59    C     0.00575   1.00296   0.83734   0.00000  Uiso   1.00
Zn60   Zn    0.59172   0.50997   0.48341   0.00000  Uiso   1.00
Zn61   Zn    0.50140   0.42353   0.48558   0.00000  Uiso   1.00
Zn62   Zn    0.60685   0.40242   0.39777   0.00000  Uiso   1.00
Zn63   Zn    0.60786   0.40416   0.57269   0.00000  Uiso   1.00
O64    O     0.57666   0.43530   0.48489   0.00000  Uiso   1.00
O65    O     0.52937   0.55059   0.48195   0.00000  Uiso   1.00
O66    O     0.47768   0.38560   0.39801   0.00000  Uiso   1.00
O67    O     0.64116   0.45072   0.33491   0.00000  Uiso   1.00
O68    O     0.46344   0.48793   0.48585   0.00000  Uiso   1.00
O69    O     0.63068   0.53057   0.39559   0.00000  Uiso   1.00
O70    O     0.55628   0.37071   0.33602   0.00000  Uiso   1.00
O71    O     0.65975   0.35304   0.55098   0.00000  Uiso   1.00
O72    O     0.47883   0.38594   0.57370   0.00000  Uiso   1.00
O73    O     0.65684   0.34982   0.42049   0.00000  Uiso   1.00
O74    O     0.55779   0.37178   0.63537   0.00000  Uiso   1.00
O75    O     0.64083   0.45388   0.63427   0.00000  Uiso   1.00
O76    O     0.62976   0.53271   0.57120   0.00000  Uiso   1.00
C77    C     0.47861   0.53802   0.48373   0.00000  Uiso   1.00
C78    C     0.50438   0.36616   0.33934   0.00000  Uiso   1.00
C79    C     0.64862   0.50233   0.33750   0.00000  Uiso   1.00
C80    C     0.67655   0.33319   0.48581   0.00000  Uiso   1.00
C81    C     0.50584   0.36688   0.63231   0.00000  Uiso   1.00
C82    C     0.64761   0.50550   0.63035   0.00000  Uiso   1.00
C83    C     0.71843   0.24719   0.43035   0.00000  Uiso   1.00
C84    C     0.71983   0.29004   0.48579   0.00000  Uiso   1.00
C85    C     0.76261   0.29106   0.54133   0.00000  Uiso   1.00
C86    C     0.80401   0.25104   0.53997   0.00000  Uiso   1.00
C87    C     0.80299   0.20770   0.48473   0.00000  Uiso   1.00
C88    C     0.75819   0.20516   0.43087   0.00000  Uiso   1.00
N89    N     0.75031   0.15895   0.37955   0.00000  Uiso   1.00
H90    H     0.68480   0.24509   0.38849   0.00000  Uiso   1.00
H91    H     0.83738   0.25435   0.58201   0.00000  Uiso   1.00
H92    H     0.72022   0.15991   0.33557   0.00000  Uiso   1.00
H93    H     0.76985   0.12149   0.38963   0.00000  Uiso   1.00
C94    C     0.94712   0.00258   0.25093   0.00000  Uiso   1.00
C95    C     0.97862   0.03403   0.19789   0.00000  Uiso   1.00
C96    C     0.98463   0.09049   0.21293   0.00000  Uiso   1.00
C97    C     0.96170   0.11423   0.28131   0.00000  Uiso   1.00
C98    C     0.93191   0.08219   0.33576   0.00000  Uiso   1.00
C99    C     0.92318   0.02605   0.31847   0.00000  Uiso   1.00
N100   N     0.88907  -0.00756   0.36778   0.00000  Uiso   1.00
H101   H     0.94074  -0.04074   0.23971   0.00000  Uiso   1.00
H102   H     0.96856   0.15741   0.29296   0.00000  Uiso   1.00
H103   H     0.88616  -0.04980   0.35803   0.00000  Uiso   1.00
H104   H     0.86300   0.00956   0.41002   0.00000  Uiso   1.00
C105   C     0.94956  -0.00261   0.71305   0.00000  Uiso   1.00
C106   C     0.97686   0.02989   0.76955   0.00000  Uiso   1.00
C107   C     0.97797   0.08706   0.75811   0.00000  Uiso   1.00
C108   C     0.95432   0.11072   0.69025   0.00000  Uiso   1.00
C109   C     0.92877   0.07791   0.63240   0.00000  Uiso   1.00
C110   C     0.92509   0.02067   0.64567   0.00000  Uiso   1.00
N111   N     0.89563  -0.01439   0.59242   0.00000  Uiso   1.00
H112   H     0.94701  -0.04665   0.72124   0.00000  Uiso   1.00
H113   H     0.95748   0.15467   0.68164   0.00000  Uiso   1.00
H114   H     0.89643  -0.05698   0.59953   0.00000  Uiso   1.00
H115   H     0.86938   0.00153   0.54946   0.00000  Uiso   1.00
C116   C     0.34229   0.61405   0.50486   0.00000  Uiso   1.00
C117   C     0.35648   0.66811   0.48423   0.00000  Uiso   1.00
C118   C     0.41152   0.67956   0.46313   0.00000  Uiso   1.00
C119   C     0.45083   0.63702   0.46339   0.00000  Uiso   1.00
C120   C     0.43645   0.58276   0.48351   0.00000  Uiso   1.00
C121   C     0.38155   0.57189   0.50395   0.00000  Uiso   1.00
H122   H     0.30039   0.60436   0.52117   0.00000  Uiso   1.00
H123   H     0.49285   0.64647   0.44740   0.00000  Uiso   1.00
N124   N     0.42847   0.73410   0.44260   0.00000  Uiso   1.00
H125   H     0.40140   0.76728   0.44431   0.00000  Uiso   1.00
H126   H     0.46907   0.74206   0.42637   0.00000  Uiso   1.00
C127   C     0.25625   0.81700   0.69029   0.00000  Uiso   1.00
C128   C     0.22405   0.78854   0.63453   0.00000  Uiso   1.00
C129   C     0.16747   0.78138   0.65038   0.00000  Uiso   1.00
C130   C     0.14396   0.80538   0.71795   0.00000  Uiso   1.00
C131   C     0.17565   0.83566   0.77227   0.00000  Uiso   1.00
C132   C     0.23241   0.84016   0.75848   0.00000  Uiso   1.00
H133   H     0.29971   0.82282   0.67972   0.00000  Uiso   1.00
H134   H     0.10035   0.80017   0.72800   0.00000  Uiso   1.00
N135   N     0.13338   0.74890   0.59951   0.00000  Uiso   1.00
H136   H     0.15015   0.72304   0.55672   0.00000  Uiso   1.00
H137   H     0.09099   0.74708   0.60837   0.00000  Uiso   1.00
C138   C     0.14257   0.80752   0.25514   0.00000  Uiso   1.00
C139   C     0.17422   0.83683   0.19975   0.00000  Uiso   1.00
C140   C     0.23118   0.84053   0.21242   0.00000  Uiso   1.00
C141   C     0.25533   0.81742   0.28039   0.00000  Uiso   1.00
C142   C     0.22327   0.78977   0.33714   0.00000  Uiso   1.00
C143   C     0.16639   0.78347   0.32249   0.00000  Uiso   1.00
N144   N     0.13230   0.75163   0.37419   0.00000  Uiso   1.00
H145   H     0.09879   0.80295   0.24598   0.00000  Uiso   1.00
H146   H     0.29900   0.82256   0.28992   0.00000  Uiso   1.00
H147   H     0.08979   0.75059   0.36635   0.00000  Uiso   1.00
H148   H     0.14909   0.72530   0.41636   0.00000  Uiso   1.00
C149   C     0.69996   0.61001   1.19049   0.00000  Uiso   1.00
C150   C     0.72543   0.57726   1.13249   0.00000  Uiso   1.00
C151   C     0.72927   0.52001   1.14578   0.00000  Uiso   1.00
C152   C     0.70488   0.49668   1.21322   0.00000  Uiso   1.00
C153   C     0.67762   0.52917   1.26977   0.00000  Uiso   1.00
C154   C     0.67647   0.58633   1.25838   0.00000  Uiso   1.00
H155   H     0.69668   0.65396   1.18192   0.00000  Uiso   1.00
H156   H     0.70746   0.45265   1.22143   0.00000  Uiso   1.00
N157   N     0.75887   0.48503   1.09260   0.00000  Uiso   1.00
H158   H     0.78530   0.50102   1.04994   0.00000  Uiso   1.00
H159   H     0.75809   0.44244   1.09963   0.00000  Uiso   1.00
C160   C     0.69332   0.61359   0.78065   0.00000  Uiso   1.00
C161   C     0.72270   0.58154   0.83555   0.00000  Uiso   1.00
C162   C     0.73113   0.52527   0.81864   0.00000  Uiso   1.00
C163   C     0.70719   0.50175   0.75110   0.00000  Uiso   1.00
C164   C     0.67606   0.53325   0.69769   0.00000  Uiso   1.00
C165   C     0.67045   0.58980   0.71230   0.00000  Uiso   1.00
H166   H     0.68662   0.65683   0.79198   0.00000  Uiso   1.00
H167   H     0.71327   0.45834   0.74017   0.00000  Uiso   1.00
N168   N     0.76495   0.49160   0.86825   0.00000  Uiso   1.00
H169   H     0.79122   0.50871   0.91023   0.00000  Uiso   1.00
H170   H     0.76752   0.44930   0.85887   0.00000  Uiso   1.00
C171   C     0.84342   0.75866   1.04044   0.00000  Uiso   1.00
C172   C     0.84354   0.71459   0.98529   0.00000  Uiso   1.00
C173   C     0.88688   0.71193   0.93011   0.00000  Uiso   1.00
C174   C     0.92899   0.75115   0.92972   0.00000  Uiso   1.00
C175   C     0.93020   0.79325   0.98625   0.00000  Uiso   1.00
C176   C     0.88744   0.79625   1.04180   0.00000  Uiso   1.00
N177   N     0.79787   0.76794   1.09248   0.00000  Uiso   1.00
H178   H     0.96142   0.74781   0.88617   0.00000  Uiso   1.00
C179   C     0.41804   0.33995   0.26366   0.00000  Uiso   1.00
C180   C     0.47557   0.33897   0.27155   0.00000  Uiso   1.00
C181   C     0.50650   0.31441   0.21084   0.00000  Uiso   1.00
C182   C     0.48113   0.29284   0.14352   0.00000  Uiso   1.00
C183   C     0.42389   0.29492   0.13407   0.00000  Uiso   1.00
C184   C     0.39193   0.31862   0.19547   0.00000  Uiso   1.00
N185   N     0.33354   0.32407   0.18820   0.00000  Uiso   1.00
H186   H     0.39336   0.35907   0.30928   0.00000  Uiso   1.00
H187   H     0.50658   0.27484   0.09780   0.00000  Uiso   1.00
H188   H     0.31034   0.34013   0.23469   0.00000  Uiso   1.00
H189   H     0.31289   0.31468   0.13590   0.00000  Uiso   1.00
C190   C     0.41938   0.34053  -0.29264   0.00000  Uiso   1.00
C191   C     0.47698   0.33993  -0.29971   0.00000  Uiso   1.00
C192   C     0.50766   0.31604  -0.23823   0.00000  Uiso   1.00
C193   C     0.48190   0.29454  -0.17111   0.00000  Uiso   1.00
C194   C     0.42453   0.29614  -0.16259   0.00000  Uiso   1.00
C195   C     0.39290   0.31939  -0.22467   0.00000  Uiso   1.00
N196   N     0.33443   0.32461  -0.21834   0.00000  Uiso   1.00
H197   H     0.39488   0.35921  -0.33883   0.00000  Uiso   1.00
H198   H     0.50714   0.27688  -0.12488   0.00000  Uiso   1.00
H199   H     0.31147   0.34009  -0.26550   0.00000  Uiso   1.00
H200   H     0.31349   0.31591  -0.16603   0.00000  Uiso   1.00
C201   C     0.24483   0.17684  -0.03493   0.00000  Uiso   1.00
C202   C     0.29974   0.16526  -0.01592   0.00000  Uiso   1.00
C203   C     0.31444   0.11049   0.00245   0.00000  Uiso   1.00
C204   C     0.27412   0.06888   0.00159   0.00000  Uiso   1.00
C205   C     0.21895   0.08068  -0.01662   0.00000  Uiso   1.00
C206   C     0.20493   0.13530  -0.03477   0.00000  Uiso   1.00
H207   H     0.23270   0.21845  -0.04930   0.00000  Uiso   1.00
H208   H     0.28599   0.02717   0.01575   0.00000  Uiso   1.00
N209   N     0.37007   0.09616   0.02099   0.00000  Uiso   1.00
H210   H     0.40171   0.12502   0.01960   0.00000  Uiso   1.00
H211   H     0.38043   0.05576   0.03531   0.00000  Uiso   1.00
H212   H     0.76479   0.32371   0.58470   0.00000  Uiso   1.00
H213   H     0.99857   0.11336   0.80035   0.00000  Uiso   1.00
H214   H     0.36895   0.53075   0.52006   0.00000  Uiso   1.00
H215   H     0.25808   0.86313   0.79895   0.00000  Uiso   1.00
H216   H     0.25686   0.86275   0.17110   0.00000  Uiso   1.00
H217   H     0.64675   0.61526   0.67243   0.00000  Uiso   1.00
H218   H     0.88869   0.67884   0.88744   0.00000  Uiso   1.00
H219   H     0.55084   0.31257   0.21455   0.00000  Uiso   1.00
H220   H     0.65589   0.61262   0.30067   0.00000  Uiso   1.00
H221   H     0.88704   0.82949   0.08438   0.00000  Uiso   1.00
H222   H     1.00861   1.11590   0.17334   0.00000  Uiso   1.00
H223   H     0.55204   0.31457   0.75871   0.00000  Uiso   1.00
H224   H     0.16299   0.14599   0.95064   0.00000  Uiso   1.00
H225   H     0.75973   0.74963   0.08291   0.00000  Uiso   1.00
H226   H     0.80027   0.79762   0.13693   0.00000  Uiso   1.00
loop_
_geom_bond_atom_site_label_1
_geom_bond_atom_site_label_2
_geom_bond_distance
_geom_bond_site_symmetry_2
_ccdc_geom_bond_type
C1     C2      1.410   .     A
C1     C6      1.410   .     A
C1     C202    1.492   .     S
C2     C3      1.410   .     A
C2     H7      1.084   .     S
C3     C4      1.408   .     A
C3     C194    1.499   .     S
C4     C5      1.408   .     A
C4     H8      1.084   .     S
C5     C6      1.409   .     A
C5     C183    1.498   .     S
C6     H9      1.084   .     S
C10    C11     1.415   .     A
C10    C15     1.414   .     A
C10    C172    1.504   .     S
C11    C12     1.407   .     A
C11    H16     1.083   .     S
C12    C13     1.407   .     A
C12    C161    1.496   .     S
C13    C14     1.407   .     A
C13    H17     1.084   .     S
C14    C15     1.407   .     A
C14    C150    1.497   .     S
C15    H18     1.083   .     S
C19    C20     1.411   .     A
C19    C24     1.411   .     A
C19    C117    1.493   .     S
C20    C21     1.409   .     A
C20    H25     1.084   .     S
C21    C22     1.410   .     A
C21    C142    1.499   .     S
C22    C23     1.409   .     A
C22    H26     1.084   .     S
C23    C24     1.408   .     A
C23    C128    1.497   .     S
C24    H27     1.084   .     S
C28    C29     1.414   .     A
C28    C33     1.414   .     A
C28    C87     1.504   .     S
C29    C30     1.408   .     A
C29    H34     1.083   .     S
C30    C31     1.407   .     A
C30    C109    1.496   .     S
C31    C32     1.407   .     A
C31    H35     1.084   .     S
C32    C33     1.406   .     A
C32    C98     1.495   .     S
C33    H36     1.083   .     S
Zn37   O41     1.857   .     S
Zn37   O42     1.813   .     S
Zn37   O46     1.838   .     S
Zn37   O53     1.835   .     S
Zn38   O41     1.858   .     S
Zn38   O43     1.838   .     S
Zn38   O45     1.821   .     S
Zn38   O49     1.843   .     S
Zn39   O41     1.830   .     S
Zn39   O44     1.786   .     S
Zn39   O47     1.794   .     S
Zn39   O50     1.810   .     S
Zn40   O41     1.830   .     S
Zn40   O48     1.809   .     S
Zn40   O51     1.788   .     S
Zn40   O52     1.791   .     S
O42    C54     1.274   .     A
O43    C55     1.278   .     A
O44    C56     1.270   .     A
O45    C54     1.276   .     A
O46    C56     1.276   .     A
O47    C55     1.272   .     A
O48    C57     1.270   .     A
O49    C58     1.278   .     A
O50    C57     1.271   .     A
O51    C58     1.270   .     A
O52    C59     1.271   .     A
O53    C59     1.277   .     A
C54    C205    1.498   1_566 S
C55    C139    1.498   1_556 S
C56    C95     1.495   1_466 S
C57    C175    1.489   1_455 S
C58    C131    1.498   .     S
C59    C106    1.497   1_465 S
Zn60   O64     1.856   .     S
Zn60   O65     1.813   .     S
Zn60   O69     1.832   .     S
Zn60   O76     1.836   .     S
Zn61   O64     1.855   .     S
Zn61   O66     1.839   .     S
Zn61   O68     1.821   .     S
Zn61   O72     1.833   .     S
Zn62   O64     1.831   .     S
Zn62   O67     1.793   .     S
Zn62   O70     1.790   .     S
Zn62   O73     1.809   .     S
Zn63   O64     1.832   .     S
Zn63   O71     1.812   .     S
Zn63   O74     1.798   .     S
Zn63   O75     1.788   .     S
O65    C77     1.274   .     A
O66    C78     1.277   .     A
O67    C79     1.271   .     A
O68    C77     1.276   .     A
O69    C79     1.276   .     A
O70    C78     1.270   .     A
O71    C80     1.271   .     A
O72    C81     1.277   .     A
O73    C80     1.271   .     A
O74    C81     1.272   .     A
O75    C82     1.270   .     A
O76    C82     1.276   .     A
C77    C120    1.498   .     S
C78    C180    1.498   .     S
C79    C153    1.496   1_554 S
C80    C84     1.489   .     S
C81    C191    1.499   1_556 S
C82    C164    1.495   .     S
C83    C84     1.404   .     A
C83    C88     1.409   .     A
C83    H90     1.084   .     S
C84    C85     1.403   .     A
C85    C86     1.403   .     A
C85    H212    1.083   .     S
C86    C87     1.410   .     A
C86    H91     1.083   .     S
C87    C88     1.423   .     A
C88    N89     1.434   .     S
N89    H92     1.044   .     S
N89    H93     1.043   .     S
C94    C95     1.407   .     A
C94    C99     1.404   .     A
C94    H101    1.084   .     S
C95    C96     1.406   .     A
C95    C56     1.495   1_644 S
C96    C97     1.408   .     A
C96    H222    1.083   1_545 S
C97    C98     1.408   .     A
C97    H102    1.083   .     S
C98    C99     1.415   .     A
C99    N100    1.434   .     S
N100   H103    1.044   .     S
N100   H104    1.043   .     S
C105   C106    1.408   .     A
C105   C110    1.405   .     A
C105   H112    1.083   .     S
C106   C59     1.497   1_645 S
C106   C107    1.406   .     A
C107   C108    1.407   .     A
C107   H213    1.083   .     S
C108   C109    1.408   .     A
C108   H113    1.083   .     S
C109   C110    1.415   .     A
C110   N111    1.434   .     S
N111   H114    1.044   .     S
N111   H115    1.042   .     S
C116   C117    1.405   .     A
C116   C121    1.403   .     A
C116   H122    1.083   .     S
C117   C118    1.415   .     A
C118   C119    1.411   .     A
C118   N124    1.434   .     S
C119   C120    1.409   .     A
C119   H123    1.083   .     S
C120   C121    1.406   .     A
C121   H214    1.083   .     S
N124   H125    1.044   .     S
N124   H126    1.044   .     S
C127   C128    1.409   .     A
C127   C132    1.409   .     A
C127   H133    1.083   .     S
C128   C129    1.415   .     A
C129   C130    1.405   .     A
C129   N135    1.434   .     S
C130   C131    1.408   .     A
C130   H134    1.083   .     S
C131   C132    1.407   .     A
C132   H215    1.083   .     S
N135   H136    1.043   .     S
N135   H137    1.044   .     S
C138   C139    1.408   .     A
C138   C143    1.406   .     A
C138   H145    1.083   .     S
C139   C140    1.407   .     A
C139   C55     1.498   1_554 S
C140   C141    1.408   .     A
C140   H216    1.083   .     S
C141   C142    1.409   .     A
C141   H146    1.083   .     S
C142   C143    1.416   .     A
C143   N144    1.434   .     S
N144   H147    1.044   .     S
N144   H148    1.043   .     S
C149   C150    1.408   .     A
C149   C154    1.406   .     A
C149   H155    1.083   .     S
C150   C151    1.416   .     A
C151   C152    1.406   .     A
C151   N157    1.433   .     S
C152   C153    1.408   .     A
C152   H156    1.083   .     S
C153   C154    1.406   .     A
C153   C79     1.496   1_556 S
C154   H220    1.083   1_556 S
N157   H158    1.042   .     S
N157   H159    1.044   .     S
C160   C161    1.408   .     A
C160   C165    1.408   .     A
C160   H166    1.083   .     S
C161   C162    1.415   .     A
C162   C163    1.404   .     A
C162   N168    1.434   .     S
C163   C164    1.407   .     A
C163   H167    1.084   .     S
C164   C165    1.406   .     A
C165   H217    1.083   .     S
N168   H169    1.043   .     S
N168   H170    1.044   .     S
C171   C172    1.422   .     A
C171   C176    1.410   .     A
C171   N177    1.434   .     S
C172   C173    1.410   .     A
C173   C174    1.402   .     A
C173   H218    1.083   .     S
C174   C175    1.402   .     A
C174   H178    1.083   .     S
C175   C57     1.489   1_655 S
C175   C176    1.404   .     A
C176   H221    1.084   1_556 S
N177   H225    1.043   1_556 S
N177   H226    1.044   1_556 S
C179   C180    1.408   .     A
C179   C184    1.416   .     A
C179   H186    1.083   .     S
C180   C181    1.407   .     A
C181   C182    1.398   .     A
C181   H219    1.083   .     S
C182   C183    1.404   .     A
C182   H187    1.084   .     S
C183   C184    1.420   .     A
C184   N185    1.434   .     S
N185   H188    1.044   .     S
N185   H189    1.043   .     S
C190   C191    1.408   .     A
C190   C195    1.415   .     A
C190   H197    1.083   .     S
C191   C192    1.406   .     A
C191   C81     1.499   1_554 S
C192   C193    1.399   .     A
C192   H223    1.083   1_554 S
C193   C194    1.405   .     A
C193   H198    1.084   .     S
C194   C195    1.420   .     A
C195   N196    1.434   .     S
N196   H199    1.044   .     S
N196   H200    1.043   .     S
C201   C202    1.404   .     A
C201   C206    1.403   .     A
C201   H207    1.083   .     S
C202   C203    1.416   .     A
C203   C204    1.411   .     A
C203   N209    1.434   .     S
C204   C205    1.408   .     A
C204   H208    1.083   .     S
C205   C54     1.498   1_544 S
C205   C206    1.407   .     A
C206   H224    1.083   1_554 S
N209   H210    1.044   .     S
N209   H211    1.044   .     S
H220   C154    1.083   1_554 S
H221   C176    1.084   1_554 S
H222   C96     1.083   1_565 S
H223   C192    1.083   1_556 S
H224   C206    1.083   1_556 S
H225   N177    1.043   1_554 S
H226   N177    1.044   1_554 S
