data_SUGVUM_clean
_audit_creation_date              2014-07-02
_audit_creation_method            'Materials Studio'
_symmetry_space_group_name_H-M    'P1'
_symmetry_Int_Tables_number       1
_symmetry_cell_setting            triclinic
loop_
_symmetry_equiv_pos_as_xyz
  x,y,z
_cell_length_a                    12.6650
_cell_length_b                    15.7376
_cell_length_c                    15.7376
_cell_angle_alpha                 80.6821
_cell_angle_beta                  66.2728
_cell_angle_gamma                 66.2728
loop_
_atom_site_label
_atom_site_type_symbol
_atom_site_fract_x
_atom_site_fract_y
_atom_site_fract_z
_atom_site_U_iso_or_equiv
_atom_site_adp_type
_atom_site_occupancy
Cu1    Cu    0.00000   0.50000   0.50000   0.01267  Uiso   1.00
Cu2    Cu    0.50000   0.00000   0.00000   0.01267  Uiso   1.00
Cu3    Cu    0.50000   0.50000  -0.00000   0.01267  Uiso   1.00
Cu4    Cu    0.50000   0.00000   0.50000   0.01267  Uiso   1.00
H1     H     0.38330   0.52730   0.85070   0.01267  Uiso   1.00
H2     H     0.54770   0.29250   0.95870   0.01267  Uiso   1.00
H3     H     0.47330   0.25390   0.85490   0.01267  Uiso   1.00
H4     H     0.47490   0.29410   0.69130   0.01267  Uiso   1.00
H5     H     0.37800   0.31020   0.58820   0.01267  Uiso   1.00
H6     H     0.10560   0.53870   0.72170   0.01267  Uiso   1.00
H7     H     0.20260   0.52420   0.82260   0.01267  Uiso   1.00
H8     H     0.26130   0.97270   0.64930   0.01267  Uiso   1.00
H9     H     0.29890   0.20750   0.54130   0.01267  Uiso   1.00
H10    H     0.08210   0.24610   0.64510   0.01267  Uiso   1.00
H11    H     0.96030   0.20590   0.80870   0.01267  Uiso   1.00
H12    H     0.77640   0.18980   0.91180   0.01267  Uiso   1.00
H13    H     0.86600   0.96130   0.77830   0.01267  Uiso   1.00
H14    H     0.04940   0.97580   0.67740   0.01267  Uiso   1.00
H15    H     0.23400   0.14930   0.02730   0.01267  Uiso   1.00
H16    H     0.50640   0.04130   0.79250   0.01267  Uiso   1.00
H17    H     0.32820   0.14510   0.75390   0.01267  Uiso   1.00
H18    H     0.16620   0.30870   0.79410   0.01267  Uiso   1.00
H19    H     0.96620   0.41180   0.81020   0.01267  Uiso   1.00
H20    H     0.82730   0.27830   0.03870   0.01267  Uiso   1.00
H21    H     0.02520   0.17740   0.02420   0.01267  Uiso   1.00
H22    H     0.91060   0.35070   0.47270   0.01267  Uiso   1.00
H23    H     0.84020   0.45870   0.70750   0.01267  Uiso   1.00
H24    H     0.72720   0.35490   0.74610   0.01267  Uiso   1.00
H25    H     0.76900   0.19130   0.70590   0.01267  Uiso   1.00
H26    H     0.68820   0.08820   0.68980   0.01267  Uiso   1.00
H27    H     0.64430   0.22170   0.46130   0.01267  Uiso   1.00
H28    H     0.72680   0.32260   0.47580   0.01267  Uiso   1.00
H29    H     0.61670   0.47270   0.14930   0.01267  Uiso   1.00
H30    H     0.45230   0.70750   0.04130   0.01267  Uiso   1.00
H31    H     0.52670   0.74610   0.14510   0.01267  Uiso   1.00
H32    H     0.52510   0.70590   0.30870   0.01267  Uiso   1.00
H33    H     0.62200   0.68980   0.41180   0.01267  Uiso   1.00
H34    H     0.89440   0.46130   0.27830   0.01267  Uiso   1.00
H35    H     0.79740   0.47580   0.17740   0.01267  Uiso   1.00
H36    H     0.73870   0.02730   0.35070   0.01267  Uiso   1.00
H37    H     0.70110   0.79250   0.45870   0.01267  Uiso   1.00
H38    H     0.91790   0.75390   0.35490   0.01267  Uiso   1.00
H39    H     0.03970   0.79410   0.19130   0.01267  Uiso   1.00
H40    H     0.22360   0.81020   0.08820   0.01267  Uiso   1.00
H41    H     0.13400   0.03870   0.22170   0.01267  Uiso   1.00
H42    H     0.95060   0.02420   0.32260   0.01267  Uiso   1.00
H43    H     0.76600   0.85070   0.97270   0.01267  Uiso   1.00
H44    H     0.49360   0.95870   0.20750   0.01267  Uiso   1.00
H45    H     0.67180   0.85490   0.24610   0.01267  Uiso   1.00
H46    H     0.83380   0.69130   0.20590   0.01267  Uiso   1.00
H47    H     0.03380   0.58820   0.18980   0.01267  Uiso   1.00
H48    H     0.17270   0.72170   0.96130   0.01267  Uiso   1.00
H49    H     0.97480   0.82260   0.97580   0.01267  Uiso   1.00
H50    H     0.08940   0.64930   0.52730   0.01267  Uiso   1.00
H51    H     0.15980   0.54130   0.29250   0.01267  Uiso   1.00
H52    H     0.27280   0.64510   0.25390   0.01267  Uiso   1.00
H53    H     0.23100   0.80870   0.29410   0.01267  Uiso   1.00
H54    H     0.31180   0.91180   0.31020   0.01267  Uiso   1.00
H55    H     0.35570   0.77830   0.53870   0.01267  Uiso   1.00
H56    H     0.27320   0.67740   0.52420   0.01267  Uiso   1.00
C1     C     0.41430   0.46460   0.86520   0.01267  Uiso   1.00
C2     C     0.50500   0.33500   0.92400   0.01267  Uiso   1.00
C3     C     0.46400   0.31290   0.86710   0.01267  Uiso   1.00
C4     C     0.34640   0.40840   0.76580   0.01267  Uiso   1.00
C5     C     0.40070   0.34350   0.69690   0.01267  Uiso   1.00
C6     C     0.34210   0.35340   0.63540   0.01267  Uiso   1.00
C7     C     0.23330   0.42520   0.64360   0.01267  Uiso   1.00
C8     C     0.18040   0.48960   0.71500   0.01267  Uiso   1.00
C9     C     0.23780   0.48090   0.77550   0.01267  Uiso   1.00
C10    C     0.16590   0.43400   0.58020   0.01267  Uiso   1.00
C11    C     0.24410   0.03540   0.63480   0.01267  Uiso   1.00
C12    C     0.26400   0.16500   0.57600   0.01267  Uiso   1.00
C13    C     0.14400   0.18710   0.63290   0.01267  Uiso   1.00
C14    C     0.02060   0.09160   0.73420   0.01267  Uiso   1.00
C15    C     0.94110   0.15650   0.80310   0.01267  Uiso   1.00
C16    C     0.83090   0.14660   0.86460   0.01267  Uiso   1.00
C17    C     0.80210   0.07480   0.85640   0.01267  Uiso   1.00
C18    C     0.88500   0.01040   0.78500   0.01267  Uiso   1.00
C19    C     0.99420   0.01910   0.72450   0.01267  Uiso   1.00
C20    C     0.68010   0.06600   0.91980   0.01267  Uiso   1.00
C21    C     0.27950   0.13480   0.96460   0.01267  Uiso   1.00
C22    C     0.42900   0.07600   0.83500   0.01267  Uiso   1.00
C23    C     0.33110   0.13290   0.81290   0.01267  Uiso   1.00
C24    C     0.11220   0.23420   0.90840   0.01267  Uiso   1.00
C25    C     0.09760   0.30310   0.84350   0.01267  Uiso   1.00
C26    C     0.97750   0.36460   0.85340   0.01267  Uiso   1.00
C27    C     0.87690   0.35640   0.92520   0.01267  Uiso   1.00
C28    C     0.89540   0.28500   0.98960   0.01267  Uiso   1.00
C29    C     0.01330   0.22450   0.98090   0.01267  Uiso   1.00
C30    C     0.74610   0.41980   0.93400   0.01267  Uiso   1.00
C31    C     0.87890   0.36520   0.53540   0.01267  Uiso   1.00
C32    C     0.84000   0.42400   0.66500   0.01267  Uiso   1.00
C33    C     0.77690   0.36710   0.68710   0.01267  Uiso   1.00
C34    C     0.75480   0.26580   0.59160   0.01267  Uiso   1.00
C35    C     0.74420   0.19690   0.65650   0.01267  Uiso   1.00
C36    C     0.69550   0.13540   0.64660   0.01267  Uiso   1.00
C37    C     0.65850   0.14360   0.57480   0.01267  Uiso   1.00
C38    C     0.67000   0.21500   0.51040   0.01267  Uiso   1.00
C39    C     0.71870   0.27550   0.51910   0.01267  Uiso   1.00
C40    C     0.59990   0.08020   0.56600   0.01267  Uiso   1.00
C41    C     0.58570   0.53540   0.13480   0.01267  Uiso   1.00
C42    C     0.49500   0.66500   0.07600   0.01267  Uiso   1.00
C43    C     0.53600   0.68710   0.13290   0.01267  Uiso   1.00
C44    C     0.65360   0.59160   0.23420   0.01267  Uiso   1.00
C45    C     0.59930   0.65650   0.30310   0.01267  Uiso   1.00
C46    C     0.65790   0.64660   0.36460   0.01267  Uiso   1.00
C47    C     0.76670   0.57480   0.35640   0.01267  Uiso   1.00
C48    C     0.81960   0.51040   0.28500   0.01267  Uiso   1.00
C49    C     0.76220   0.51910   0.22450   0.01267  Uiso   1.00
C50    C     0.83410   0.56600   0.41980   0.01267  Uiso   1.00
C51    C     0.75590   0.96460   0.36520   0.01267  Uiso   1.00
C52    C     0.73600   0.83500   0.42400   0.01267  Uiso   1.00
C53    C     0.85600   0.81290   0.36710   0.01267  Uiso   1.00
C54    C     0.97940   0.90840   0.26580   0.01267  Uiso   1.00
C55    C     0.05890   0.84350   0.19690   0.01267  Uiso   1.00
C56    C     0.16910   0.85340   0.13540   0.01267  Uiso   1.00
C57    C     0.19790   0.92520   0.14360   0.01267  Uiso   1.00
C58    C     0.11500   0.98960   0.21500   0.01267  Uiso   1.00
C59    C     0.00580   0.98090   0.27550   0.01267  Uiso   1.00
C60    C     0.31990   0.93400   0.08020   0.01267  Uiso   1.00
C61    C     0.72050   0.86520   0.03540   0.01267  Uiso   1.00
C62    C     0.57100   0.92400   0.16500   0.01267  Uiso   1.00
C63    C     0.66890   0.86710   0.18710   0.01267  Uiso   1.00
C64    C     0.88780   0.76580   0.09160   0.01267  Uiso   1.00
C65    C     0.90240   0.69690   0.15650   0.01267  Uiso   1.00
C66    C     0.02250   0.63540   0.14660   0.01267  Uiso   1.00
C67    C     0.12310   0.64360   0.07480   0.01267  Uiso   1.00
C68    C     0.10460   0.71500   0.01040   0.01267  Uiso   1.00
C69    C     0.98670   0.77550   0.01910   0.01267  Uiso   1.00
C70    C     0.25390   0.58020   0.06600   0.01267  Uiso   1.00
C71    C     0.12110   0.63480   0.46460   0.01267  Uiso   1.00
C72    C     0.16000   0.57600   0.33500   0.01267  Uiso   1.00
C73    C     0.22310   0.63290   0.31290   0.01267  Uiso   1.00
C74    C     0.24520   0.73420   0.40840   0.01267  Uiso   1.00
C75    C     0.25580   0.80310   0.34350   0.01267  Uiso   1.00
C76    C     0.30450   0.86460   0.35340   0.01267  Uiso   1.00
C77    C     0.34150   0.85640   0.42520   0.01267  Uiso   1.00
C78    C     0.33000   0.78500   0.48960   0.01267  Uiso   1.00
C79    C     0.28130   0.72450   0.48090   0.01267  Uiso   1.00
C80    C     0.40010   0.91980   0.43400   0.01267  Uiso   1.00
N1     N     0.47480   0.42870   0.92350   0.01267  Uiso   1.00
N2     N     0.40540   0.39550   0.83070   0.01267  Uiso   1.00
N3     N     0.32700   0.07130   0.57650   0.01267  Uiso   1.00
N4     N     0.13160   0.10450   0.66930   0.01267  Uiso   1.00
N5     N     0.39830   0.07650   0.92870   0.01267  Uiso   1.00
N6     N     0.23610   0.16930   0.89550   0.01267  Uiso   1.00
N7     N     0.90350   0.42350   0.57130   0.01267  Uiso   1.00
N8     N     0.80090   0.33070   0.60450   0.01267  Uiso   1.00
N9     N     0.52520   0.57130   0.07650   0.01267  Uiso   1.00
N10    N     0.59460   0.60450   0.16930   0.01267  Uiso   1.00
N11    N     0.67300   0.92870   0.42350   0.01267  Uiso   1.00
N12    N     0.86840   0.89550   0.33070   0.01267  Uiso   1.00
N13    N     0.60170   0.92350   0.07130   0.01267  Uiso   1.00
N14    N     0.76390   0.83070   0.10450   0.01267  Uiso   1.00
N15    N     0.09650   0.57650   0.42870   0.01267  Uiso   1.00
N16    N     0.19910   0.66930   0.39550   0.01267  Uiso   1.00
O1     O     0.05770   0.49140   0.60020   0.01267  Uiso   1.00
O2     O     0.22730   0.38080   0.51020   0.01267  Uiso   1.00
O3     O     0.64930   0.00860   0.89980   0.01267  Uiso   1.00
O4     O     0.61830   0.11920   0.98980   0.01267  Uiso   1.00
O5     O     0.65790   0.39980   0.99140   0.01267  Uiso   1.00
O6     O     0.73750   0.48980   0.88080   0.01267  Uiso   1.00
O7     O     0.54910   0.10020   0.50860   0.01267  Uiso   1.00
O8     O     0.60810   0.01020   0.61920   0.01267  Uiso   1.00
O9     O     0.94230   0.50860   0.39980   0.01267  Uiso   1.00
O10    O     0.77270   0.61920   0.48980   0.01267  Uiso   1.00
O11    O     0.35070   0.99140   0.10020   0.01267  Uiso   1.00
O12    O     0.38170   0.88080   0.01020   0.01267  Uiso   1.00
O13    O     0.34210   0.60020   0.00860   0.01267  Uiso   1.00
O14    O     0.26250   0.51020   0.11920   0.01267  Uiso   1.00
O15    O     0.45090   0.89980   0.49140   0.01267  Uiso   1.00
O16    O     0.39190   0.98980   0.38080   0.01267  Uiso   1.00
