data_SUHHOT_clean
_audit_creation_date              2014-07-02
_audit_creation_method            'Materials Studio'
_symmetry_space_group_name_H-M    'P1'
_symmetry_Int_Tables_number       1
_symmetry_cell_setting            triclinic
loop_
_symmetry_equiv_pos_as_xyz
  x,y,z
_cell_length_a                    6.1308
_cell_length_b                    7.4580
_cell_length_c                    12.4570
_cell_angle_alpha                 74.6620
_cell_angle_beta                  88.8350
_cell_angle_gamma                 89.3040
loop_
_atom_site_label
_atom_site_type_symbol
_atom_site_fract_x
_atom_site_fract_y
_atom_site_fract_z
_atom_site_U_iso_or_equiv
_atom_site_adp_type
_atom_site_occupancy
La1    La    0.40358   0.93056   0.44661   0.01267  Uiso   1.00
La2    La    0.25107   0.25389   0.84994   0.01267  Uiso   1.00
H1     H     0.86970   0.39130   0.58630   0.01267  Uiso   1.00
H2     H     0.98080   0.39170   0.41740   0.01267  Uiso   1.00
H3     H     0.77980   0.83910   0.71490   0.01267  Uiso   1.00
H4     H     0.67180   0.66850   0.88890   0.01267  Uiso   1.00
H5     H     0.65940   0.37380   0.07430   0.01267  Uiso   1.00
H6     H     0.93910   0.33340   0.21540   0.01267  Uiso   1.00
H7     H     0.09350   0.09770   0.65850   0.01267  Uiso   1.00
H8     H     0.26990   0.23580   0.38990   0.01267  Uiso   1.00
H9     H     0.55020   0.60750   0.63610   0.01267  Uiso   1.00
H10    H     0.35800   0.59010   0.91580   0.01267  Uiso   1.00
H11    H     0.53220   0.66600   0.11460   0.01267  Uiso   1.00
H12    H     0.88110   0.68820   0.17320   0.01267  Uiso   1.00
C1     C     0.19010   0.47430   0.58310   0.01267  Uiso   1.00
C2     C     0.01200   0.33140   0.58320   0.01267  Uiso   1.00
C3     C     0.03280   0.28520   0.47590   0.01267  Uiso   1.00
C4     C     0.90200   0.11620   0.47190   0.01267  Uiso   1.00
C5     C     0.46140   0.90940   0.71840   0.01267  Uiso   1.00
C6     C     0.63900   0.77710   0.71780   0.01267  Uiso   1.00
C7     C     0.61550   0.62200   0.82830   0.01267  Uiso   1.00
C8     C     0.74030   0.45860   0.82250   0.01267  Uiso   1.00
C9     C     0.53110   0.35710   0.22490   0.01267  Uiso   1.00
C10    C     0.66670   0.44750   0.12860   0.01267  Uiso   1.00
C11    C     0.90520   0.45210   0.16190   0.01267  Uiso   1.00
C12    C     0.06730   0.47580   0.05750   0.01267  Uiso   1.00
O1     O     0.19650   0.62550   0.50130   0.01267  Uiso   1.00
O2     O     0.33270   0.43400   0.65250   0.01267  Uiso   1.00
O3     O     0.03140   0.18780   0.67710   0.01267  Uiso   1.00
O4     O     0.25870   0.25490   0.45410   0.01267  Uiso   1.00
O5     O     0.99110   0.98740   0.44500   0.01267  Uiso   1.00
O6     O     0.69890   0.11690   0.49010   0.01267  Uiso   1.00
O7     O     0.31470   0.94380   0.63780   0.01267  Uiso   1.00
O8     O     0.44670   0.99580   0.80140   0.01267  Uiso   1.00
O9     O     0.61330   0.71230   0.61790   0.01267  Uiso   1.00
O10    O     0.38680   0.57530   0.85160   0.01267  Uiso   1.00
O11    O     0.65890   0.29600   0.85160   0.01267  Uiso   1.00
O12    O     0.95600   0.48480   0.79770   0.01267  Uiso   1.00
O13    O     0.54980   0.19080   0.26660   0.01267  Uiso   1.00
O14    O     0.41630   0.45200   0.27250   0.01267  Uiso   1.00
O15    O     0.61990   0.62850   0.07470   0.01267  Uiso   1.00
O16    O     0.92290   0.59000   0.21500   0.01267  Uiso   1.00
O17    O     0.09000   0.32890   0.03080   0.01267  Uiso   1.00
O18    O     0.13130   0.63110   0.01440   0.01267  Uiso   1.00
