data_image0
_cell_length_a       13.809
_cell_length_b       13.809
_cell_length_c       30.004
_cell_angle_alpha    90
_cell_angle_beta     90
_cell_angle_gamma    120

_symmetry_space_group_name_H-M    "P 1"
_symmetry_int_tables_number       1

loop_
  _symmetry_equiv_pos_as_xyz
  'x, y, z'

loop_
  _atom_site_label
  _atom_site_occupancy
  _atom_site_fract_x
  _atom_site_fract_y
  _atom_site_fract_z
  _atom_site_thermal_displace_type
  _atom_site_B_iso_or_equiv
  _atom_site_type_symbol
  Co1      1.0000 0.64226  0.09780  0.46295  Biso   1.000  Co
  P1       1.0000 0.47785  0.15884  0.50138  Biso   1.000  P
  O1       1.0000 0.56750  0.18950  0.46468  Biso   1.000  O
  O2       1.0000 0.70080  0.23340  0.38245  Biso   1.000  O
  O3       1.0000 0.62970  0.05430  0.40001  Biso   1.000  O
  C1       1.0000 0.63820  0.09990  0.32393  Biso   1.000  C
  O4       1.0000 0.40090  0.03270  0.50050  Biso   1.000  O
  C2       1.0000 0.65770  0.13260  0.37229  Biso   1.000  C
  O5       1.0000 0.40830  0.21380  0.49064  Biso   1.000  O
  C3       1.0000 0.58050  0.99040  0.31176  Biso   1.000  C
  H1       1.0000 0.55230  0.93560  0.33370  Biso   1.000  H
  O6       1.0000 0.53530  0.19650  0.54655  Biso   1.000  O
  C4       1.0000 0.67970  0.18430  0.29080  Biso   1.000  C
  H2       1.0000 0.71950  0.25920  0.29900  Biso   1.000  H
  C5       1.0000 0.56240  0.95810  0.26668  Biso   1.000  C
  C6       1.0000 0.66140  0.15580  0.24680  Biso   1.000  C
  H3       1.0000 0.68660  0.21180  0.22530  Biso   1.000  H
  Co2      1.0000 0.90220  0.54446  0.46295  Biso   1.000  Co
  P2       1.0000 0.84116  0.31901  0.50138  Biso   1.000  P
  O7       1.0000 0.81050  0.37800  0.46468  Biso   1.000  O
  O8       1.0000 0.76660  0.46740  0.38245  Biso   1.000  O
  O9       1.0000 0.94570  0.57540  0.40001  Biso   1.000  O
  C7       1.0000 0.90010  0.53830  0.32393  Biso   1.000  C
  O10      1.0000 0.96730  0.36820  0.50050  Biso   1.000  O
  C8       1.0000 0.86740  0.52510  0.37229  Biso   1.000  C
  O11      1.0000 0.78620  0.19450  0.49064  Biso   1.000  O
  C9       1.0000 0.00960  0.59010  0.31176  Biso   1.000  C
  H4       1.0000 0.06440  0.61670  0.33370  Biso   1.000  H
  O12      1.0000 0.80350  0.33880  0.54655  Biso   1.000  O
  C10      1.0000 0.81570  0.49540  0.29080  Biso   1.000  C
  H5       1.0000 0.74080  0.46030  0.29900  Biso   1.000  H
  C11      1.0000 0.04190  0.60430  0.26668  Biso   1.000  C
  C12      1.0000 0.84420  0.50560  0.24680  Biso   1.000  C
  H6       1.0000 0.78820  0.47480  0.22530  Biso   1.000  H
  Co3      1.0000 0.45554  0.35774  0.46295  Biso   1.000  Co
  P3       1.0000 0.68099  0.52215  0.50138  Biso   1.000  P
  O13      1.0000 0.62200  0.43250  0.46468  Biso   1.000  O
  O14      1.0000 0.53260  0.29920  0.38245  Biso   1.000  O
  O15      1.0000 0.42460  0.37030  0.40001  Biso   1.000  O
  C13      1.0000 0.46170  0.36180  0.32393  Biso   1.000  C
  O16      1.0000 0.63180  0.59910  0.50050  Biso   1.000  O
  C14      1.0000 0.47490  0.34230  0.37229  Biso   1.000  C
  O17      1.0000 0.80550  0.59170  0.49064  Biso   1.000  O
  C15      1.0000 0.40990  0.41950  0.31176  Biso   1.000  C
  H7       1.0000 0.38330  0.44770  0.33370  Biso   1.000  H
  O18      1.0000 0.66120  0.46470  0.54655  Biso   1.000  O
  C16      1.0000 0.50460  0.32030  0.29080  Biso   1.000  C
  H8       1.0000 0.53970  0.28050  0.29900  Biso   1.000  H
  C17      1.0000 0.39570  0.43760  0.26668  Biso   1.000  C
  C18      1.0000 0.49440  0.33860  0.24680  Biso   1.000  C
  H9       1.0000 0.52520  0.31340  0.22530  Biso   1.000  H
  Co4      1.0000 0.09780  0.64226  0.03705  Biso   1.000  Co
  P4       1.0000 0.15884  0.47785  0.99862  Biso   1.000  P
  O19      1.0000 0.18950  0.56750  0.03532  Biso   1.000  O
  O20      1.0000 0.23340  0.70080  0.11755  Biso   1.000  O
  O21      1.0000 0.05430  0.62970  0.09999  Biso   1.000  O
  C19      1.0000 0.09990  0.63820  0.17607  Biso   1.000  C
  O22      1.0000 0.03270  0.40090  0.99950  Biso   1.000  O
  C20      1.0000 0.13260  0.65770  0.12771  Biso   1.000  C
  O23      1.0000 0.21380  0.40830  0.00936  Biso   1.000  O
  C21      1.0000 0.99040  0.58050  0.18824  Biso   1.000  C
  H10      1.0000 0.93560  0.55230  0.16630  Biso   1.000  H
  O24      1.0000 0.19650  0.53530  0.95345  Biso   1.000  O
  C22      1.0000 0.18430  0.67970  0.20920  Biso   1.000  C
  H11      1.0000 0.25920  0.71950  0.20100  Biso   1.000  H
  C23      1.0000 0.95810  0.56240  0.23332  Biso   1.000  C
  C24      1.0000 0.15580  0.66140  0.25320  Biso   1.000  C
  H12      1.0000 0.21180  0.68660  0.27470  Biso   1.000  H
  Co5      1.0000 0.54446  0.90220  0.03705  Biso   1.000  Co
  P5       1.0000 0.31901  0.84116  0.99862  Biso   1.000  P
  O25      1.0000 0.37800  0.81050  0.03532  Biso   1.000  O
  O26      1.0000 0.46740  0.76660  0.11755  Biso   1.000  O
  O27      1.0000 0.57540  0.94570  0.09999  Biso   1.000  O
  C25      1.0000 0.53830  0.90010  0.17607  Biso   1.000  C
  O28      1.0000 0.36820  0.96730  0.99950  Biso   1.000  O
  C26      1.0000 0.52510  0.86740  0.12771  Biso   1.000  C
  O29      1.0000 0.19450  0.78620  0.00936  Biso   1.000  O
  C27      1.0000 0.59010  0.00960  0.18824  Biso   1.000  C
  H13      1.0000 0.61670  0.06440  0.16630  Biso   1.000  H
  O30      1.0000 0.33880  0.80350  0.95345  Biso   1.000  O
  C28      1.0000 0.49540  0.81570  0.20920  Biso   1.000  C
  H14      1.0000 0.46030  0.74080  0.20100  Biso   1.000  H
  C29      1.0000 0.60430  0.04190  0.23332  Biso   1.000  C
  C30      1.0000 0.50560  0.84420  0.25320  Biso   1.000  C
  H15      1.0000 0.47480  0.78820  0.27470  Biso   1.000  H
  Co6      1.0000 0.35774  0.45554  0.03705  Biso   1.000  Co
  P6       1.0000 0.52215  0.68099  0.99862  Biso   1.000  P
  O31      1.0000 0.43250  0.62200  0.03532  Biso   1.000  O
  O32      1.0000 0.29920  0.53260  0.11755  Biso   1.000  O
  O33      1.0000 0.37030  0.42460  0.09999  Biso   1.000  O
  C31      1.0000 0.36180  0.46170  0.17607  Biso   1.000  C
  O34      1.0000 0.59910  0.63180  0.99950  Biso   1.000  O
  C32      1.0000 0.34230  0.47490  0.12771  Biso   1.000  C
  O35      1.0000 0.59170  0.80550  0.00936  Biso   1.000  O
  C33      1.0000 0.41950  0.40990  0.18824  Biso   1.000  C
  H16      1.0000 0.44770  0.38330  0.16630  Biso   1.000  H
  O36      1.0000 0.46470  0.66120  0.95345  Biso   1.000  O
  C34      1.0000 0.32030  0.50460  0.20920  Biso   1.000  C
  H17      1.0000 0.28050  0.53970  0.20100  Biso   1.000  H
  C35      1.0000 0.43760  0.39570  0.23332  Biso   1.000  C
  C36      1.0000 0.33860  0.49440  0.25320  Biso   1.000  C
  H18      1.0000 0.31340  0.52520  0.27470  Biso   1.000  H
  Co7      1.0000 0.35774  0.90220  0.53705  Biso   1.000  Co
  P7       1.0000 0.52215  0.84116  0.49862  Biso   1.000  P
  O37      1.0000 0.43250  0.81050  0.53532  Biso   1.000  O
  O38      1.0000 0.29920  0.76660  0.61755  Biso   1.000  O
  O39      1.0000 0.37030  0.94570  0.59999  Biso   1.000  O
  C37      1.0000 0.36180  0.90010  0.67607  Biso   1.000  C
  O40      1.0000 0.59910  0.96730  0.49950  Biso   1.000  O
  C38      1.0000 0.34230  0.86740  0.62771  Biso   1.000  C
  O41      1.0000 0.59170  0.78620  0.50936  Biso   1.000  O
  C39      1.0000 0.41950  0.00960  0.68824  Biso   1.000  C
  H19      1.0000 0.44770  0.06440  0.66630  Biso   1.000  H
  O42      1.0000 0.46470  0.80350  0.45345  Biso   1.000  O
  C40      1.0000 0.32030  0.81570  0.70920  Biso   1.000  C
  H20      1.0000 0.28050  0.74080  0.70100  Biso   1.000  H
  C41      1.0000 0.43760  0.04190  0.73332  Biso   1.000  C
  C42      1.0000 0.33860  0.84420  0.75320  Biso   1.000  C
  H21      1.0000 0.31340  0.78820  0.77470  Biso   1.000  H
  Co8      1.0000 0.09780  0.45554  0.53705  Biso   1.000  Co
  P8       1.0000 0.15884  0.68099  0.49862  Biso   1.000  P
  O43      1.0000 0.18950  0.62200  0.53532  Biso   1.000  O
  O44      1.0000 0.23340  0.53260  0.61755  Biso   1.000  O
  O45      1.0000 0.05430  0.42460  0.59999  Biso   1.000  O
  C43      1.0000 0.09990  0.46170  0.67607  Biso   1.000  C
  O46      1.0000 0.03270  0.63180  0.49950  Biso   1.000  O
  C44      1.0000 0.13260  0.47490  0.62771  Biso   1.000  C
  O47      1.0000 0.21380  0.80550  0.50936  Biso   1.000  O
  C45      1.0000 0.99040  0.40990  0.68824  Biso   1.000  C
  H22      1.0000 0.93560  0.38330  0.66630  Biso   1.000  H
  O48      1.0000 0.19650  0.66120  0.45345  Biso   1.000  O
  C46      1.0000 0.18430  0.50460  0.70920  Biso   1.000  C
  H23      1.0000 0.25920  0.53970  0.70100  Biso   1.000  H
  C47      1.0000 0.95810  0.39570  0.73332  Biso   1.000  C
  C48      1.0000 0.15580  0.49440  0.75320  Biso   1.000  C
  H24      1.0000 0.21180  0.52520  0.77470  Biso   1.000  H
  Co9      1.0000 0.54446  0.64226  0.53705  Biso   1.000  Co
  P9       1.0000 0.31901  0.47785  0.49862  Biso   1.000  P
  O49      1.0000 0.37800  0.56750  0.53532  Biso   1.000  O
  O50      1.0000 0.46740  0.70080  0.61755  Biso   1.000  O
  O51      1.0000 0.57540  0.62970  0.59999  Biso   1.000  O
  C49      1.0000 0.53830  0.63820  0.67607  Biso   1.000  C
  O52      1.0000 0.36820  0.40090  0.49950  Biso   1.000  O
  C50      1.0000 0.52510  0.65770  0.62771  Biso   1.000  C
  O53      1.0000 0.19450  0.40830  0.50936  Biso   1.000  O
  C51      1.0000 0.59010  0.58050  0.68824  Biso   1.000  C
  H25      1.0000 0.61670  0.55230  0.66630  Biso   1.000  H
  O54      1.0000 0.33880  0.53530  0.45345  Biso   1.000  O
  C52      1.0000 0.49540  0.67970  0.70920  Biso   1.000  C
  H26      1.0000 0.46030  0.71950  0.70100  Biso   1.000  H
  C53      1.0000 0.60430  0.56240  0.73332  Biso   1.000  C
  C54      1.0000 0.50560  0.66140  0.75320  Biso   1.000  C
  H27      1.0000 0.47480  0.68660  0.77470  Biso   1.000  H
  Co10     1.0000 0.90220  0.35774  0.96295  Biso   1.000  Co
  P10      1.0000 0.84116  0.52215  0.00138  Biso   1.000  P
  O55      1.0000 0.81050  0.43250  0.96468  Biso   1.000  O
  O56      1.0000 0.76660  0.29920  0.88245  Biso   1.000  O
  O57      1.0000 0.94570  0.37030  0.90001  Biso   1.000  O
  C55      1.0000 0.90010  0.36180  0.82393  Biso   1.000  C
  O58      1.0000 0.96730  0.59910  0.00050  Biso   1.000  O
  C56      1.0000 0.86740  0.34230  0.87229  Biso   1.000  C
  O59      1.0000 0.78620  0.59170  0.99064  Biso   1.000  O
  C57      1.0000 0.00960  0.41950  0.81176  Biso   1.000  C
  H28      1.0000 0.06440  0.44770  0.83370  Biso   1.000  H
  O60      1.0000 0.80350  0.46470  0.04655  Biso   1.000  O
  C58      1.0000 0.81570  0.32030  0.79080  Biso   1.000  C
  H29      1.0000 0.74080  0.28050  0.79900  Biso   1.000  H
  C59      1.0000 0.04190  0.43760  0.76668  Biso   1.000  C
  C60      1.0000 0.84420  0.33860  0.74680  Biso   1.000  C
  H30      1.0000 0.78820  0.31340  0.72530  Biso   1.000  H
  Co11     1.0000 0.45554  0.09780  0.96295  Biso   1.000  Co
  P11      1.0000 0.68099  0.15884  0.00138  Biso   1.000  P
  O61      1.0000 0.62200  0.18950  0.96468  Biso   1.000  O
  O62      1.0000 0.53260  0.23340  0.88245  Biso   1.000  O
  O63      1.0000 0.42460  0.05430  0.90001  Biso   1.000  O
  C61      1.0000 0.46170  0.09990  0.82393  Biso   1.000  C
  O64      1.0000 0.63180  0.03270  0.00050  Biso   1.000  O
  C62      1.0000 0.47490  0.13260  0.87229  Biso   1.000  C
  O65      1.0000 0.80550  0.21380  0.99064  Biso   1.000  O
  C63      1.0000 0.40990  0.99040  0.81176  Biso   1.000  C
  H31      1.0000 0.38330  0.93560  0.83370  Biso   1.000  H
  O66      1.0000 0.66120  0.19650  0.04655  Biso   1.000  O
  C64      1.0000 0.50460  0.18430  0.79080  Biso   1.000  C
  H32      1.0000 0.53970  0.25920  0.79900  Biso   1.000  H
  C65      1.0000 0.39570  0.95810  0.76668  Biso   1.000  C
  C66      1.0000 0.49440  0.15580  0.74680  Biso   1.000  C
  H33      1.0000 0.52520  0.21180  0.72530  Biso   1.000  H
  Co12     1.0000 0.64226  0.54446  0.96295  Biso   1.000  Co
  P12      1.0000 0.47785  0.31901  0.00138  Biso   1.000  P
  O67      1.0000 0.56750  0.37800  0.96468  Biso   1.000  O
  O68      1.0000 0.70080  0.46740  0.88245  Biso   1.000  O
  O69      1.0000 0.62970  0.57540  0.90001  Biso   1.000  O
  C67      1.0000 0.63820  0.53830  0.82393  Biso   1.000  C
  O70      1.0000 0.40090  0.36820  0.00050  Biso   1.000  O
  C68      1.0000 0.65770  0.52510  0.87229  Biso   1.000  C
  O71      1.0000 0.40830  0.19450  0.99064  Biso   1.000  O
  C69      1.0000 0.58050  0.59010  0.81176  Biso   1.000  C
  H34      1.0000 0.55230  0.61670  0.83370  Biso   1.000  H
  O72      1.0000 0.53530  0.33880  0.04655  Biso   1.000  O
  C70      1.0000 0.67970  0.49540  0.79080  Biso   1.000  C
  H35      1.0000 0.71950  0.46030  0.79900  Biso   1.000  H
  C71      1.0000 0.56240  0.60430  0.76668  Biso   1.000  C
  C72      1.0000 0.66140  0.50560  0.74680  Biso   1.000  C
  H36      1.0000 0.68660  0.47480  0.72530  Biso   1.000  H
  Co13     1.0000 0.66667  0.33333  0.42564  Biso   1.000  Co
  Co14     1.0000 0.66667  0.33333  0.56486  Biso   1.000  Co
  Cl1      1.0000 0.66667  0.33333  0.64154  Biso   1.000  Cl
  Co15     1.0000 0.33333  0.66667  0.07436  Biso   1.000  Co
  Co16     1.0000 0.33333  0.66667  0.93514  Biso   1.000  Co
  Cl2      1.0000 0.33333  0.66667  0.85846  Biso   1.000  Cl
  Co17     1.0000 0.33333  0.66667  0.57436  Biso   1.000  Co
  Co18     1.0000 0.33333  0.66667  0.43514  Biso   1.000  Co
  Cl3      1.0000 0.33333  0.66667  0.35846  Biso   1.000  Cl
  Co19     1.0000 0.66667  0.33333  0.92564  Biso   1.000  Co
  Co20     1.0000 0.66667  0.33333  0.06486  Biso   1.000  Co
  Cl4      1.0000 0.66667  0.33333  0.14154  Biso   1.000  Cl
