data_image0
_cell_length_a       13.5707
_cell_length_b       15.006
_cell_length_c       20.074
_cell_angle_alpha    90
_cell_angle_beta     90
_cell_angle_gamma    90

_symmetry_space_group_name_H-M    "P 1"
_symmetry_int_tables_number       1

loop_
  _symmetry_equiv_pos_as_xyz
  'x, y, z'

loop_
  _atom_site_label
  _atom_site_occupancy
  _atom_site_fract_x
  _atom_site_fract_y
  _atom_site_fract_z
  _atom_site_thermal_displace_type
  _atom_site_B_iso_or_equiv
  _atom_site_type_symbol
  Zn1      1.0000 0.49752  0.60974  0.56487  Biso   1.000  Zn
  O1       1.0000 0.50480  0.63830  0.66320  Biso   1.000  O
  O2       1.0000 0.49320  0.76770  0.61160  Biso   1.000  O
  O3       1.0000 0.48730  0.84130  0.97210  Biso   1.000  O
  O4       1.0000 0.49520  0.97500  0.92430  Biso   1.000  O
  N1       1.0000 0.65850  0.61180  0.55510  Biso   1.000  N
  N2       1.0000 0.33530  0.60050  0.57070  Biso   1.000  N
  C1       1.0000 0.71560  0.56460  0.59680  Biso   1.000  C
  H1       1.0000 0.68700  0.53960  0.63450  Biso   1.000  H
  C2       1.0000 0.81640  0.55130  0.58590  Biso   1.000  C
  H2       1.0000 0.85360  0.51850  0.61610  Biso   1.000  H
  C3       1.0000 0.85990  0.58730  0.53010  Biso   1.000  C
  C4       1.0000 0.80280  0.64300  0.49060  Biso   1.000  C
  H3       1.0000 0.83070  0.67360  0.45500  Biso   1.000  H
  C5       1.0000 0.70370  0.65210  0.50510  Biso   1.000  C
  H4       1.0000 0.66620  0.68900  0.47780  Biso   1.000  H
  C6       1.0000 0.96120  0.56470  0.50390  Biso   1.000  C
  H5       1.0000 0.99160  0.61780  0.48410  Biso   1.000  H
  C7       1.0000 0.27960  0.63130  0.52120  Biso   1.000  C
  H6       1.0000 0.30900  0.66760  0.48930  Biso   1.000  H
  C8       1.0000 0.18100  0.61230  0.51470  Biso   1.000  C
  H7       1.0000 0.14490  0.63630  0.47970  Biso   1.000  H
  C9       1.0000 0.13580  0.55690  0.56090  Biso   1.000  C
  C10      1.0000 0.19240  0.53130  0.61550  Biso   1.000  C
  H8       1.0000 0.16380  0.49950  0.65020  Biso   1.000  H
  C11      1.0000 0.29150  0.55350  0.61800  Biso   1.000  C
  H9       1.0000 0.32860  0.53460  0.65430  Biso   1.000  H
  C12      1.0000 0.03730  0.51530  0.54830  Biso   1.000  C
  H10      1.0000 0.00690  0.49640  0.59020  Biso   1.000  H
  C13      1.0000 0.49930  0.72150  0.66330  Biso   1.000  C
  C14      1.0000 0.49760  0.76750  0.73080  Biso   1.000  C
  C15      1.0000 0.50050  0.71660  0.78790  Biso   1.000  C
  H11      1.0000 0.50370  0.65490  0.78480  Biso   1.000  H
  C16      1.0000 0.49870  0.75700  0.84970  Biso   1.000  C
  H12      1.0000 0.50080  0.72250  0.88810  Biso   1.000  H
  C17      1.0000 0.49380  0.84940  0.85440  Biso   1.000  C
  C18      1.0000 0.49180  0.90170  0.79630  Biso   1.000  C
  H13      1.0000 0.48920  0.96360  0.79890  Biso   1.000  H
  C19      1.0000 0.49380  0.85930  0.73510  Biso   1.000  C
  H14      1.0000 0.49260  0.89320  0.69630  Biso   1.000  H
  C20      1.0000 0.49170  0.89360  0.92170  Biso   1.000  C
  Zn2      1.0000 0.50248  0.10974  0.93513  Biso   1.000  Zn
  O5       1.0000 0.49520  0.13830  0.83680  Biso   1.000  O
  O6       1.0000 0.50680  0.26770  0.88840  Biso   1.000  O
  O7       1.0000 0.51270  0.34130  0.52790  Biso   1.000  O
  O8       1.0000 0.50480  0.47500  0.57570  Biso   1.000  O
  N3       1.0000 0.34150  0.11180  0.94490  Biso   1.000  N
  N4       1.0000 0.66470  0.10050  0.92930  Biso   1.000  N
  C21      1.0000 0.28440  0.06460  0.90320  Biso   1.000  C
  H15      1.0000 0.31300  0.03960  0.86550  Biso   1.000  H
  C22      1.0000 0.18360  0.05130  0.91410  Biso   1.000  C
  H16      1.0000 0.14640  0.01850  0.88390  Biso   1.000  H
  C23      1.0000 0.14010  0.08730  0.96990  Biso   1.000  C
  C24      1.0000 0.19720  0.14300  0.00940  Biso   1.000  C
  H17      1.0000 0.16930  0.17360  0.04500  Biso   1.000  H
  C25      1.0000 0.29630  0.15210  0.99490  Biso   1.000  C
  H18      1.0000 0.33380  0.18900  0.02220  Biso   1.000  H
  C26      1.0000 0.03880  0.06470  0.99610  Biso   1.000  C
  H19      1.0000 0.00840  0.11780  0.01590  Biso   1.000  H
  C27      1.0000 0.72040  0.13130  0.97880  Biso   1.000  C
  H20      1.0000 0.69100  0.16760  0.01070  Biso   1.000  H
  C28      1.0000 0.81900  0.11230  0.98530  Biso   1.000  C
  H21      1.0000 0.85510  0.13630  0.02030  Biso   1.000  H
  C29      1.0000 0.86420  0.05690  0.93910  Biso   1.000  C
  C30      1.0000 0.80760  0.03130  0.88450  Biso   1.000  C
  H22      1.0000 0.83620  0.99950  0.84980  Biso   1.000  H
  C31      1.0000 0.70850  0.05350  0.88200  Biso   1.000  C
  H23      1.0000 0.67140  0.03460  0.84570  Biso   1.000  H
  C32      1.0000 0.96270  0.01530  0.95170  Biso   1.000  C
  H24      1.0000 0.99310  0.99640  0.90980  Biso   1.000  H
  C33      1.0000 0.50070  0.22150  0.83670  Biso   1.000  C
  C34      1.0000 0.50240  0.26750  0.76920  Biso   1.000  C
  C35      1.0000 0.49950  0.21660  0.71210  Biso   1.000  C
  H25      1.0000 0.49630  0.15490  0.71520  Biso   1.000  H
  C36      1.0000 0.50130  0.25700  0.65030  Biso   1.000  C
  H26      1.0000 0.49920  0.22250  0.61190  Biso   1.000  H
  C37      1.0000 0.50620  0.34940  0.64560  Biso   1.000  C
  C38      1.0000 0.50820  0.40170  0.70370  Biso   1.000  C
  H27      1.0000 0.51080  0.46360  0.70110  Biso   1.000  H
  C39      1.0000 0.50620  0.35930  0.76490  Biso   1.000  C
  H28      1.0000 0.50740  0.39320  0.80370  Biso   1.000  H
  C40      1.0000 0.50830  0.39360  0.57830  Biso   1.000  C
  Zn3      1.0000 0.50248  0.39026  0.43513  Biso   1.000  Zn
  O9       1.0000 0.49520  0.36170  0.33680  Biso   1.000  O
  O10      1.0000 0.50680  0.23230  0.38840  Biso   1.000  O
  O11      1.0000 0.51270  0.15870  0.02790  Biso   1.000  O
  O12      1.0000 0.50480  0.02500  0.07570  Biso   1.000  O
  N5       1.0000 0.34150  0.38820  0.44490  Biso   1.000  N
  N6       1.0000 0.66470  0.39950  0.42930  Biso   1.000  N
  C41      1.0000 0.28440  0.43540  0.40320  Biso   1.000  C
  H29      1.0000 0.31300  0.46040  0.36550  Biso   1.000  H
  C42      1.0000 0.18360  0.44870  0.41410  Biso   1.000  C
  H30      1.0000 0.14640  0.48150  0.38390  Biso   1.000  H
  C43      1.0000 0.14010  0.41270  0.46990  Biso   1.000  C
  C44      1.0000 0.19720  0.35700  0.50940  Biso   1.000  C
  H31      1.0000 0.16930  0.32640  0.54500  Biso   1.000  H
  C45      1.0000 0.29630  0.34790  0.49490  Biso   1.000  C
  H32      1.0000 0.33380  0.31100  0.52220  Biso   1.000  H
  C46      1.0000 0.03880  0.43530  0.49610  Biso   1.000  C
  H33      1.0000 0.00840  0.38220  0.51590  Biso   1.000  H
  C47      1.0000 0.72040  0.36870  0.47880  Biso   1.000  C
  H34      1.0000 0.69100  0.33240  0.51070  Biso   1.000  H
  C48      1.0000 0.81900  0.38770  0.48530  Biso   1.000  C
  H35      1.0000 0.85510  0.36370  0.52030  Biso   1.000  H
  C49      1.0000 0.86420  0.44310  0.43910  Biso   1.000  C
  C50      1.0000 0.80760  0.46870  0.38450  Biso   1.000  C
  H36      1.0000 0.83620  0.50050  0.34980  Biso   1.000  H
  C51      1.0000 0.70850  0.44650  0.38200  Biso   1.000  C
  H37      1.0000 0.67140  0.46540  0.34570  Biso   1.000  H
  C52      1.0000 0.96270  0.48470  0.45170  Biso   1.000  C
  H38      1.0000 0.99310  0.50360  0.40980  Biso   1.000  H
  C53      1.0000 0.50070  0.27850  0.33670  Biso   1.000  C
  C54      1.0000 0.50240  0.23250  0.26920  Biso   1.000  C
  C55      1.0000 0.49950  0.28340  0.21210  Biso   1.000  C
  H39      1.0000 0.49630  0.34510  0.21520  Biso   1.000  H
  C56      1.0000 0.50130  0.24300  0.15030  Biso   1.000  C
  H40      1.0000 0.49920  0.27750  0.11190  Biso   1.000  H
  C57      1.0000 0.50620  0.15060  0.14560  Biso   1.000  C
  C58      1.0000 0.50820  0.09830  0.20370  Biso   1.000  C
  H41      1.0000 0.51080  0.03640  0.20110  Biso   1.000  H
  C59      1.0000 0.50620  0.14070  0.26490  Biso   1.000  C
  H42      1.0000 0.50740  0.10680  0.30370  Biso   1.000  H
  C60      1.0000 0.50830  0.10640  0.07830  Biso   1.000  C
  Zn4      1.0000 0.49752  0.89026  0.06487  Biso   1.000  Zn
  O13      1.0000 0.50480  0.86170  0.16320  Biso   1.000  O
  O14      1.0000 0.49320  0.73230  0.11160  Biso   1.000  O
  O15      1.0000 0.48730  0.65870  0.47210  Biso   1.000  O
  O16      1.0000 0.49520  0.52500  0.42430  Biso   1.000  O
  N7       1.0000 0.65850  0.88820  0.05510  Biso   1.000  N
  N8       1.0000 0.33530  0.89950  0.07070  Biso   1.000  N
  C61      1.0000 0.71560  0.93540  0.09680  Biso   1.000  C
  H43      1.0000 0.68700  0.96040  0.13450  Biso   1.000  H
  C62      1.0000 0.81640  0.94870  0.08590  Biso   1.000  C
  H44      1.0000 0.85360  0.98150  0.11610  Biso   1.000  H
  C63      1.0000 0.85990  0.91270  0.03010  Biso   1.000  C
  C64      1.0000 0.80280  0.85700  0.99060  Biso   1.000  C
  H45      1.0000 0.83070  0.82640  0.95500  Biso   1.000  H
  C65      1.0000 0.70370  0.84790  0.00510  Biso   1.000  C
  H46      1.0000 0.66620  0.81100  0.97780  Biso   1.000  H
  C66      1.0000 0.96120  0.93530  0.00390  Biso   1.000  C
  H47      1.0000 0.99160  0.88220  0.98410  Biso   1.000  H
  C67      1.0000 0.27960  0.86870  0.02120  Biso   1.000  C
  H48      1.0000 0.30900  0.83240  0.98930  Biso   1.000  H
  C68      1.0000 0.18100  0.88770  0.01470  Biso   1.000  C
  H49      1.0000 0.14490  0.86370  0.97970  Biso   1.000  H
  C69      1.0000 0.13580  0.94310  0.06090  Biso   1.000  C
  C70      1.0000 0.19240  0.96870  0.11550  Biso   1.000  C
  H50      1.0000 0.16380  0.00050  0.15020  Biso   1.000  H
  C71      1.0000 0.29150  0.94650  0.11800  Biso   1.000  C
  H51      1.0000 0.32860  0.96540  0.15430  Biso   1.000  H
  C72      1.0000 0.03730  0.98470  0.04830  Biso   1.000  C
  H52      1.0000 0.00690  0.00360  0.09020  Biso   1.000  H
  C73      1.0000 0.49930  0.77850  0.16330  Biso   1.000  C
  C74      1.0000 0.49760  0.73250  0.23080  Biso   1.000  C
  C75      1.0000 0.50050  0.78340  0.28790  Biso   1.000  C
  H53      1.0000 0.50370  0.84510  0.28480  Biso   1.000  H
  C76      1.0000 0.49870  0.74300  0.34970  Biso   1.000  C
  H54      1.0000 0.50080  0.77750  0.38810  Biso   1.000  H
  C77      1.0000 0.49380  0.65060  0.35440  Biso   1.000  C
  C78      1.0000 0.49180  0.59830  0.29630  Biso   1.000  C
  H55      1.0000 0.48920  0.53640  0.29890  Biso   1.000  H
  C79      1.0000 0.49380  0.64070  0.23510  Biso   1.000  C
  H56      1.0000 0.49260  0.60680  0.19630  Biso   1.000  H
  C80      1.0000 0.49170  0.60640  0.42170  Biso   1.000  C
  Zn5      1.0000 0.00248  0.39026  0.06487  Biso   1.000  Zn
  O17      1.0000 0.99520  0.36170  0.16320  Biso   1.000  O
  O18      1.0000 0.00680  0.23230  0.11160  Biso   1.000  O
  O19      1.0000 0.01270  0.15870  0.47210  Biso   1.000  O
  O20      1.0000 0.00480  0.02500  0.42430  Biso   1.000  O
  N9       1.0000 0.84150  0.38820  0.05510  Biso   1.000  N
  N10      1.0000 0.16470  0.39950  0.07070  Biso   1.000  N
  C81      1.0000 0.78440  0.43540  0.09680  Biso   1.000  C
  H57      1.0000 0.81300  0.46040  0.13450  Biso   1.000  H
  C82      1.0000 0.68360  0.44870  0.08590  Biso   1.000  C
  H58      1.0000 0.64640  0.48150  0.11610  Biso   1.000  H
  C83      1.0000 0.64010  0.41270  0.03010  Biso   1.000  C
  C84      1.0000 0.69720  0.35700  0.99060  Biso   1.000  C
  H59      1.0000 0.66930  0.32640  0.95500  Biso   1.000  H
  C85      1.0000 0.79630  0.34790  0.00510  Biso   1.000  C
  H60      1.0000 0.83380  0.31100  0.97780  Biso   1.000  H
  C86      1.0000 0.53880  0.43530  0.00390  Biso   1.000  C
  H61      1.0000 0.50840  0.38220  0.98410  Biso   1.000  H
  C87      1.0000 0.22040  0.36870  0.02120  Biso   1.000  C
  H62      1.0000 0.19100  0.33240  0.98930  Biso   1.000  H
  C88      1.0000 0.31900  0.38770  0.01470  Biso   1.000  C
  H63      1.0000 0.35510  0.36370  0.97970  Biso   1.000  H
  C89      1.0000 0.36420  0.44310  0.06090  Biso   1.000  C
  C90      1.0000 0.30760  0.46870  0.11550  Biso   1.000  C
  H64      1.0000 0.33620  0.50050  0.15020  Biso   1.000  H
  C91      1.0000 0.20850  0.44650  0.11800  Biso   1.000  C
  H65      1.0000 0.17140  0.46540  0.15430  Biso   1.000  H
  C92      1.0000 0.46270  0.48470  0.04830  Biso   1.000  C
  H66      1.0000 0.49310  0.50360  0.09020  Biso   1.000  H
  C93      1.0000 0.00070  0.27850  0.16330  Biso   1.000  C
  C94      1.0000 0.00240  0.23250  0.23080  Biso   1.000  C
  C95      1.0000 0.99950  0.28340  0.28790  Biso   1.000  C
  H67      1.0000 0.99630  0.34510  0.28480  Biso   1.000  H
  C96      1.0000 0.00130  0.24300  0.34970  Biso   1.000  C
  H68      1.0000 0.99920  0.27750  0.38810  Biso   1.000  H
  C97      1.0000 0.00620  0.15060  0.35440  Biso   1.000  C
  C98      1.0000 0.00820  0.09830  0.29630  Biso   1.000  C
  H69      1.0000 0.01080  0.03640  0.29890  Biso   1.000  H
  C99      1.0000 0.00620  0.14070  0.23510  Biso   1.000  C
  H70      1.0000 0.00740  0.10680  0.19630  Biso   1.000  H
  C100     1.0000 0.00830  0.10640  0.42170  Biso   1.000  C
  Zn6      1.0000 0.99752  0.89026  0.43513  Biso   1.000  Zn
  O21      1.0000 0.00480  0.86170  0.33680  Biso   1.000  O
  O22      1.0000 0.99320  0.73230  0.38840  Biso   1.000  O
  O23      1.0000 0.98730  0.65870  0.02790  Biso   1.000  O
  O24      1.0000 0.99520  0.52500  0.07570  Biso   1.000  O
  N11      1.0000 0.15850  0.88820  0.44490  Biso   1.000  N
  N12      1.0000 0.83530  0.89950  0.42930  Biso   1.000  N
  C101     1.0000 0.21560  0.93540  0.40320  Biso   1.000  C
  H71      1.0000 0.18700  0.96040  0.36550  Biso   1.000  H
  C102     1.0000 0.31640  0.94870  0.41410  Biso   1.000  C
  H72      1.0000 0.35360  0.98150  0.38390  Biso   1.000  H
  C103     1.0000 0.35990  0.91270  0.46990  Biso   1.000  C
  C104     1.0000 0.30280  0.85700  0.50940  Biso   1.000  C
  H73      1.0000 0.33070  0.82640  0.54500  Biso   1.000  H
  C105     1.0000 0.20370  0.84790  0.49490  Biso   1.000  C
  H74      1.0000 0.16620  0.81100  0.52220  Biso   1.000  H
  C106     1.0000 0.46120  0.93530  0.49610  Biso   1.000  C
  H75      1.0000 0.49160  0.88220  0.51590  Biso   1.000  H
  C107     1.0000 0.77960  0.86870  0.47880  Biso   1.000  C
  H76      1.0000 0.80900  0.83240  0.51070  Biso   1.000  H
  C108     1.0000 0.68100  0.88770  0.48530  Biso   1.000  C
  H77      1.0000 0.64490  0.86370  0.52030  Biso   1.000  H
  C109     1.0000 0.63580  0.94310  0.43910  Biso   1.000  C
  C110     1.0000 0.69240  0.96870  0.38450  Biso   1.000  C
  H78      1.0000 0.66380  0.00050  0.34980  Biso   1.000  H
  C111     1.0000 0.79150  0.94650  0.38200  Biso   1.000  C
  H79      1.0000 0.82860  0.96540  0.34570  Biso   1.000  H
  C112     1.0000 0.53730  0.98470  0.45170  Biso   1.000  C
  H80      1.0000 0.50690  0.00360  0.40980  Biso   1.000  H
  C113     1.0000 0.99930  0.77850  0.33670  Biso   1.000  C
  C114     1.0000 0.99760  0.73250  0.26920  Biso   1.000  C
  C115     1.0000 0.00050  0.78340  0.21210  Biso   1.000  C
  H81      1.0000 0.00370  0.84510  0.21520  Biso   1.000  H
  C116     1.0000 0.99870  0.74300  0.15030  Biso   1.000  C
  H82      1.0000 0.00080  0.77750  0.11190  Biso   1.000  H
  C117     1.0000 0.99380  0.65060  0.14560  Biso   1.000  C
  C118     1.0000 0.99180  0.59830  0.20370  Biso   1.000  C
  H83      1.0000 0.98920  0.53640  0.20110  Biso   1.000  H
  C119     1.0000 0.99380  0.64070  0.26490  Biso   1.000  C
  H84      1.0000 0.99260  0.60680  0.30370  Biso   1.000  H
  C120     1.0000 0.99170  0.60640  0.07830  Biso   1.000  C
  Zn7      1.0000 0.99752  0.60974  0.93513  Biso   1.000  Zn
  O25      1.0000 0.00480  0.63830  0.83680  Biso   1.000  O
  O26      1.0000 0.99320  0.76770  0.88840  Biso   1.000  O
  O27      1.0000 0.98730  0.84130  0.52790  Biso   1.000  O
  O28      1.0000 0.99520  0.97500  0.57570  Biso   1.000  O
  N13      1.0000 0.15850  0.61180  0.94490  Biso   1.000  N
  N14      1.0000 0.83530  0.60050  0.92930  Biso   1.000  N
  C121     1.0000 0.21560  0.56460  0.90320  Biso   1.000  C
  H85      1.0000 0.18700  0.53960  0.86550  Biso   1.000  H
  C122     1.0000 0.31640  0.55130  0.91410  Biso   1.000  C
  H86      1.0000 0.35360  0.51850  0.88390  Biso   1.000  H
  C123     1.0000 0.35990  0.58730  0.96990  Biso   1.000  C
  C124     1.0000 0.30280  0.64300  0.00940  Biso   1.000  C
  H87      1.0000 0.33070  0.67360  0.04500  Biso   1.000  H
  C125     1.0000 0.20370  0.65210  0.99490  Biso   1.000  C
  H88      1.0000 0.16620  0.68900  0.02220  Biso   1.000  H
  C126     1.0000 0.46120  0.56470  0.99610  Biso   1.000  C
  H89      1.0000 0.49160  0.61780  0.01590  Biso   1.000  H
  C127     1.0000 0.77960  0.63130  0.97880  Biso   1.000  C
  H90      1.0000 0.80900  0.66760  0.01070  Biso   1.000  H
  C128     1.0000 0.68100  0.61230  0.98530  Biso   1.000  C
  H91      1.0000 0.64490  0.63630  0.02030  Biso   1.000  H
  C129     1.0000 0.63580  0.55690  0.93910  Biso   1.000  C
  C130     1.0000 0.69240  0.53130  0.88450  Biso   1.000  C
  H92      1.0000 0.66380  0.49950  0.84980  Biso   1.000  H
  C131     1.0000 0.79150  0.55350  0.88200  Biso   1.000  C
  H93      1.0000 0.82860  0.53460  0.84570  Biso   1.000  H
  C132     1.0000 0.53730  0.51530  0.95170  Biso   1.000  C
  H94      1.0000 0.50690  0.49640  0.90980  Biso   1.000  H
  C133     1.0000 0.99930  0.72150  0.83670  Biso   1.000  C
  C134     1.0000 0.99760  0.76750  0.76920  Biso   1.000  C
  C135     1.0000 0.00050  0.71660  0.71210  Biso   1.000  C
  H95      1.0000 0.00370  0.65490  0.71520  Biso   1.000  H
  C136     1.0000 0.99870  0.75700  0.65030  Biso   1.000  C
  H96      1.0000 0.00080  0.72250  0.61190  Biso   1.000  H
  C137     1.0000 0.99380  0.84940  0.64560  Biso   1.000  C
  C138     1.0000 0.99180  0.90170  0.70370  Biso   1.000  C
  H97      1.0000 0.98920  0.96360  0.70110  Biso   1.000  H
  C139     1.0000 0.99380  0.85930  0.76490  Biso   1.000  C
  H98      1.0000 0.99260  0.89320  0.80370  Biso   1.000  H
  C140     1.0000 0.99170  0.89360  0.57830  Biso   1.000  C
  Zn8      1.0000 0.00248  0.10974  0.56487  Biso   1.000  Zn
  O29      1.0000 0.99520  0.13830  0.66320  Biso   1.000  O
  O30      1.0000 0.00680  0.26770  0.61160  Biso   1.000  O
  O31      1.0000 0.01270  0.34130  0.97210  Biso   1.000  O
  O32      1.0000 0.00480  0.47500  0.92430  Biso   1.000  O
  N15      1.0000 0.84150  0.11180  0.55510  Biso   1.000  N
  N16      1.0000 0.16470  0.10050  0.57070  Biso   1.000  N
  C141     1.0000 0.78440  0.06460  0.59680  Biso   1.000  C
  H99      1.0000 0.81300  0.03960  0.63450  Biso   1.000  H
  C142     1.0000 0.68360  0.05130  0.58590  Biso   1.000  C
  H100     1.0000 0.64640  0.01850  0.61610  Biso   1.000  H
  C143     1.0000 0.64010  0.08730  0.53010  Biso   1.000  C
  C144     1.0000 0.69720  0.14300  0.49060  Biso   1.000  C
  H101     1.0000 0.66930  0.17360  0.45500  Biso   1.000  H
  C145     1.0000 0.79630  0.15210  0.50510  Biso   1.000  C
  H102     1.0000 0.83380  0.18900  0.47780  Biso   1.000  H
  C146     1.0000 0.53880  0.06470  0.50390  Biso   1.000  C
  H103     1.0000 0.50840  0.11780  0.48410  Biso   1.000  H
  C147     1.0000 0.22040  0.13130  0.52120  Biso   1.000  C
  H104     1.0000 0.19100  0.16760  0.48930  Biso   1.000  H
  C148     1.0000 0.31900  0.11230  0.51470  Biso   1.000  C
  H105     1.0000 0.35510  0.13630  0.47970  Biso   1.000  H
  C149     1.0000 0.36420  0.05690  0.56090  Biso   1.000  C
  C150     1.0000 0.30760  0.03130  0.61550  Biso   1.000  C
  H106     1.0000 0.33620  0.99950  0.65020  Biso   1.000  H
  C151     1.0000 0.20850  0.05350  0.61800  Biso   1.000  C
  H107     1.0000 0.17140  0.03460  0.65430  Biso   1.000  H
  C152     1.0000 0.46270  0.01530  0.54830  Biso   1.000  C
  H108     1.0000 0.49310  0.99640  0.59020  Biso   1.000  H
  C153     1.0000 0.00070  0.22150  0.66330  Biso   1.000  C
  C154     1.0000 0.00240  0.26750  0.73080  Biso   1.000  C
  C155     1.0000 0.99950  0.21660  0.78790  Biso   1.000  C
  H109     1.0000 0.99630  0.15490  0.78480  Biso   1.000  H
  C156     1.0000 0.00130  0.25700  0.84970  Biso   1.000  C
  H110     1.0000 0.99920  0.22250  0.88810  Biso   1.000  H
  C157     1.0000 0.00620  0.34940  0.85440  Biso   1.000  C
  C158     1.0000 0.00820  0.40170  0.79630  Biso   1.000  C
  H111     1.0000 0.01080  0.46360  0.79890  Biso   1.000  H
  C159     1.0000 0.00620  0.35930  0.73510  Biso   1.000  C
  H112     1.0000 0.00740  0.39320  0.69630  Biso   1.000  H
  C160     1.0000 0.00830  0.39360  0.92170  Biso   1.000  C
