data_image0
_cell_length_a       13.4519
_cell_length_b       13.4519
_cell_length_c       17.265
_cell_angle_alpha    90
_cell_angle_beta     90
_cell_angle_gamma    90

_symmetry_space_group_name_H-M    "P 1"
_symmetry_int_tables_number       1

loop_
  _symmetry_equiv_pos_as_xyz
  'x, y, z'

loop_
  _atom_site_label
  _atom_site_occupancy
  _atom_site_fract_x
  _atom_site_fract_y
  _atom_site_fract_z
  _atom_site_thermal_displace_type
  _atom_site_B_iso_or_equiv
  _atom_site_type_symbol
  P1       1.0000 0.42530  0.65700  0.06958  Biso   1.000  P
  P2       1.0000 0.39500  0.63686  0.23990  Biso   1.000  P
  P3       1.0000 0.38310  0.62890  0.57985  Biso   1.000  P
  P4       1.0000 0.41410  0.65170  0.74750  Biso   1.000  P
  O1       1.0000 0.32530  0.66110  0.02410  Biso   1.000  O
  O2       1.0000 0.48580  0.74230  0.04100  Biso   1.000  O
  O3       1.0000 0.39360  0.69070  0.15620  Biso   1.000  O
  O4       1.0000 0.28790  0.62000  0.26280  Biso   1.000  O
  O5       1.0000 0.43460  0.72660  0.29220  Biso   1.000  O
  O6       1.0000 0.27990  0.60050  0.55540  Biso   1.000  O
  O7       1.0000 0.41580  0.71920  0.52730  Biso   1.000  O
  O8       1.0000 0.37130  0.68030  0.66360  Biso   1.000  O
  O9       1.0000 0.31570  0.64450  0.79620  Biso   1.000  O
  O10      1.0000 0.47340  0.73990  0.77580  Biso   1.000  O
  K1       1.0000 0.21544  0.76821  0.90782  Biso   1.000  K
  P5       1.0000 0.57470  0.34300  0.06958  Biso   1.000  P
  P6       1.0000 0.60500  0.36314  0.23990  Biso   1.000  P
  P7       1.0000 0.61690  0.37110  0.57985  Biso   1.000  P
  P8       1.0000 0.58590  0.34830  0.74750  Biso   1.000  P
  O11      1.0000 0.67470  0.33890  0.02410  Biso   1.000  O
  O12      1.0000 0.51420  0.25770  0.04100  Biso   1.000  O
  O13      1.0000 0.60640  0.30930  0.15620  Biso   1.000  O
  O14      1.0000 0.71210  0.38000  0.26280  Biso   1.000  O
  O15      1.0000 0.56540  0.27340  0.29220  Biso   1.000  O
  O16      1.0000 0.72010  0.39950  0.55540  Biso   1.000  O
  O17      1.0000 0.58420  0.28080  0.52730  Biso   1.000  O
  O18      1.0000 0.62870  0.31970  0.66360  Biso   1.000  O
  O19      1.0000 0.68430  0.35550  0.79620  Biso   1.000  O
  O20      1.0000 0.52660  0.26010  0.77580  Biso   1.000  O
  K2       1.0000 0.78456  0.23179  0.90782  Biso   1.000  K
  P9       1.0000 0.34300  0.42530  0.06958  Biso   1.000  P
  P10      1.0000 0.36314  0.39500  0.23990  Biso   1.000  P
  P11      1.0000 0.37110  0.38310  0.57985  Biso   1.000  P
  P12      1.0000 0.34830  0.41410  0.74750  Biso   1.000  P
  O21      1.0000 0.33890  0.32530  0.02410  Biso   1.000  O
  O22      1.0000 0.25770  0.48580  0.04100  Biso   1.000  O
  O23      1.0000 0.30930  0.39360  0.15620  Biso   1.000  O
  O24      1.0000 0.38000  0.28790  0.26280  Biso   1.000  O
  O25      1.0000 0.27340  0.43460  0.29220  Biso   1.000  O
  O26      1.0000 0.39950  0.27990  0.55540  Biso   1.000  O
  O27      1.0000 0.28080  0.41580  0.52730  Biso   1.000  O
  O28      1.0000 0.31970  0.37130  0.66360  Biso   1.000  O
  O29      1.0000 0.35550  0.31570  0.79620  Biso   1.000  O
  O30      1.0000 0.26010  0.47340  0.77580  Biso   1.000  O
  K3       1.0000 0.23179  0.21544  0.90782  Biso   1.000  K
  P13      1.0000 0.65700  0.57470  0.06958  Biso   1.000  P
  P14      1.0000 0.63686  0.60500  0.23990  Biso   1.000  P
  P15      1.0000 0.62890  0.61690  0.57985  Biso   1.000  P
  P16      1.0000 0.65170  0.58590  0.74750  Biso   1.000  P
  O31      1.0000 0.66110  0.67470  0.02410  Biso   1.000  O
  O32      1.0000 0.74230  0.51420  0.04100  Biso   1.000  O
  O33      1.0000 0.69070  0.60640  0.15620  Biso   1.000  O
  O34      1.0000 0.62000  0.71210  0.26280  Biso   1.000  O
  O35      1.0000 0.72660  0.56540  0.29220  Biso   1.000  O
  O36      1.0000 0.60050  0.72010  0.55540  Biso   1.000  O
  O37      1.0000 0.71920  0.58420  0.52730  Biso   1.000  O
  O38      1.0000 0.68030  0.62870  0.66360  Biso   1.000  O
  O39      1.0000 0.64450  0.68430  0.79620  Biso   1.000  O
  O40      1.0000 0.73990  0.52660  0.77580  Biso   1.000  O
  K4       1.0000 0.76821  0.78456  0.90782  Biso   1.000  K
  P17      1.0000 0.92530  0.84300  0.56958  Biso   1.000  P
  P18      1.0000 0.89500  0.86314  0.73990  Biso   1.000  P
  P19      1.0000 0.88310  0.87110  0.07985  Biso   1.000  P
  P20      1.0000 0.91410  0.84830  0.24750  Biso   1.000  P
  O41      1.0000 0.82530  0.83890  0.52410  Biso   1.000  O
  O42      1.0000 0.98580  0.75770  0.54100  Biso   1.000  O
  O43      1.0000 0.89360  0.80930  0.65620  Biso   1.000  O
  O44      1.0000 0.78790  0.88000  0.76280  Biso   1.000  O
  O45      1.0000 0.93460  0.77340  0.79220  Biso   1.000  O
  O46      1.0000 0.77990  0.89950  0.05540  Biso   1.000  O
  O47      1.0000 0.91580  0.78080  0.02730  Biso   1.000  O
  O48      1.0000 0.87130  0.81970  0.16360  Biso   1.000  O
  O49      1.0000 0.81570  0.85550  0.29620  Biso   1.000  O
  O50      1.0000 0.97340  0.76010  0.27580  Biso   1.000  O
  K5       1.0000 0.71544  0.73179  0.40782  Biso   1.000  K
  P21      1.0000 0.07470  0.15700  0.56958  Biso   1.000  P
  P22      1.0000 0.10500  0.13686  0.73990  Biso   1.000  P
  P23      1.0000 0.11690  0.12890  0.07985  Biso   1.000  P
  P24      1.0000 0.08590  0.15170  0.24750  Biso   1.000  P
  O51      1.0000 0.17470  0.16110  0.52410  Biso   1.000  O
  O52      1.0000 0.01420  0.24230  0.54100  Biso   1.000  O
  O53      1.0000 0.10640  0.19070  0.65620  Biso   1.000  O
  O54      1.0000 0.21210  0.12000  0.76280  Biso   1.000  O
  O55      1.0000 0.06540  0.22660  0.79220  Biso   1.000  O
  O56      1.0000 0.22010  0.10050  0.05540  Biso   1.000  O
  O57      1.0000 0.08420  0.21920  0.02730  Biso   1.000  O
  O58      1.0000 0.12870  0.18030  0.16360  Biso   1.000  O
  O59      1.0000 0.18430  0.14450  0.29620  Biso   1.000  O
  O60      1.0000 0.02660  0.23990  0.27580  Biso   1.000  O
  K6       1.0000 0.28456  0.26821  0.40782  Biso   1.000  K
  P25      1.0000 0.84300  0.07470  0.56958  Biso   1.000  P
  P26      1.0000 0.86314  0.10500  0.73990  Biso   1.000  P
  P27      1.0000 0.87110  0.11690  0.07985  Biso   1.000  P
  P28      1.0000 0.84830  0.08590  0.24750  Biso   1.000  P
  O61      1.0000 0.83890  0.17470  0.52410  Biso   1.000  O
  O62      1.0000 0.75770  0.01420  0.54100  Biso   1.000  O
  O63      1.0000 0.80930  0.10640  0.65620  Biso   1.000  O
  O64      1.0000 0.88000  0.21210  0.76280  Biso   1.000  O
  O65      1.0000 0.77340  0.06540  0.79220  Biso   1.000  O
  O66      1.0000 0.89950  0.22010  0.05540  Biso   1.000  O
  O67      1.0000 0.78080  0.08420  0.02730  Biso   1.000  O
  O68      1.0000 0.81970  0.12870  0.16360  Biso   1.000  O
  O69      1.0000 0.85550  0.18430  0.29620  Biso   1.000  O
  O70      1.0000 0.76010  0.02660  0.27580  Biso   1.000  O
  K7       1.0000 0.73179  0.28456  0.40782  Biso   1.000  K
  P29      1.0000 0.15700  0.92530  0.56958  Biso   1.000  P
  P30      1.0000 0.13686  0.89500  0.73990  Biso   1.000  P
  P31      1.0000 0.12890  0.88310  0.07985  Biso   1.000  P
  P32      1.0000 0.15170  0.91410  0.24750  Biso   1.000  P
  O71      1.0000 0.16110  0.82530  0.52410  Biso   1.000  O
  O72      1.0000 0.24230  0.98580  0.54100  Biso   1.000  O
  O73      1.0000 0.19070  0.89360  0.65620  Biso   1.000  O
  O74      1.0000 0.12000  0.78790  0.76280  Biso   1.000  O
  O75      1.0000 0.22660  0.93460  0.79220  Biso   1.000  O
  O76      1.0000 0.10050  0.77990  0.05540  Biso   1.000  O
  O77      1.0000 0.21920  0.91580  0.02730  Biso   1.000  O
  O78      1.0000 0.18030  0.87130  0.16360  Biso   1.000  O
  O79      1.0000 0.14450  0.81570  0.29620  Biso   1.000  O
  O80      1.0000 0.23990  0.97340  0.27580  Biso   1.000  O
  K8       1.0000 0.26821  0.71544  0.40782  Biso   1.000  K
  Pt1      1.0000 0.50000  0.50000  0.07308  Biso   1.000  Pt
  Pt2      1.0000 0.50000  0.50000  0.23887  Biso   1.000  Pt
  Pt3      1.0000 0.50000  0.50000  0.58293  Biso   1.000  Pt
  Pt4      1.0000 0.50000  0.50000  0.74258  Biso   1.000  Pt
  I1       1.0000 0.50000  0.50000  0.90216  Biso   1.000  I
  I2       1.0000 0.50000  0.50000  0.42027  Biso   1.000  I
  Pt5      1.0000 0.00000  0.00000  0.57308  Biso   1.000  Pt
  Pt6      1.0000 0.00000  0.00000  0.73887  Biso   1.000  Pt
  Pt7      1.0000 0.00000  0.00000  0.08293  Biso   1.000  Pt
  Pt8      1.0000 0.00000  0.00000  0.24258  Biso   1.000  Pt
  I3       1.0000 0.00000  0.00000  0.40216  Biso   1.000  I
  I4       1.0000 0.00000  0.00000  0.92027  Biso   1.000  I
