data_SUKNOC_charged
_audit_creation_date              2014-07-02
_audit_creation_method            'Materials Studio'
_symmetry_space_group_name_H-M    'P1'
_symmetry_Int_Tables_number       1
_symmetry_cell_setting            triclinic
loop_
_symmetry_equiv_pos_as_xyz
  x,y,z
_cell_length_a                    21.0560
_cell_length_b                    21.3676
_cell_length_c                    21.3676
_cell_angle_alpha                 120.0000
_cell_angle_beta                  90.0000
_cell_angle_gamma                 90.0000
loop_
_atom_site_label
_atom_site_type_symbol
_atom_site_fract_x
_atom_site_fract_y
_atom_site_fract_z
_atom_site_U_iso_or_equiv
_atom_site_adp_type
_atom_site_occupancy
K1     K     0.25000   0.33333   0.66666   0.01267  Uiso   1.00
K2     K     0.75000   0.66667   0.33334   0.01267  Uiso   1.00
Cd1    Cd    0.25000   0.54763   0.77382   0.01267  Uiso   1.00
Cd2    Cd    0.25000   0.22619   0.45238   0.01267  Uiso   1.00
Cd3    Cd    0.25000   0.22619   0.77382   0.01267  Uiso   1.00
Cd4    Cd    0.75000   0.45237   0.22618   0.01267  Uiso   1.00
Cd5    Cd    0.75000   0.77381   0.54762   0.01267  Uiso   1.00
Cd6    Cd    0.75000   0.77381   0.22618   0.01267  Uiso   1.00
H1     H     0.05090   0.54430   0.64610   0.01267  Uiso   1.00
H2     H     0.03650   0.29540   0.51910   0.01267  Uiso   1.00
H3     H     0.11700   0.35040   0.59980   0.01267  Uiso   1.00
H4     H     0.98660   0.59030   0.61970   0.01267  Uiso   1.00
H5     H     0.77520   0.60640   0.49910   0.01267  Uiso   1.00
H6     H     0.84430   0.53210   0.51270   0.01267  Uiso   1.00
H7     H     0.94100   0.70750   0.65240   0.01267  Uiso   1.00
H8     H     0.86830   0.77720   0.63590   0.01267  Uiso   1.00
H9     H     0.92750   0.36850   0.46280   0.01267  Uiso   1.00
H10    H     0.94280   0.30960   0.47120   0.01267  Uiso   1.00
H11    H     0.05090   0.10180   0.45570   0.01267  Uiso   1.00
H12    H     0.03650   0.22370   0.70460   0.01267  Uiso   1.00
H13    H     0.11700   0.24940   0.64960   0.01267  Uiso   1.00
H14    H     0.98660   0.02940   0.40970   0.01267  Uiso   1.00
H15    H     0.77520   0.89270   0.39360   0.01267  Uiso   1.00
H16    H     0.84430   0.98060   0.46790   0.01267  Uiso   1.00
H17    H     0.94100   0.94490   0.29250   0.01267  Uiso   1.00
H18    H     0.86830   0.85870   0.22280   0.01267  Uiso   1.00
H19    H     0.92750   0.09430   0.63150   0.01267  Uiso   1.00
H20    H     0.94280   0.16160   0.69040   0.01267  Uiso   1.00
H21    H     0.05090   0.35390   0.89820   0.01267  Uiso   1.00
H22    H     0.03650   0.48090   0.77630   0.01267  Uiso   1.00
H23    H     0.11700   0.40020   0.75060   0.01267  Uiso   1.00
H24    H     0.98660   0.38030   0.97060   0.01267  Uiso   1.00
H25    H     0.77520   0.50090   0.10730   0.01267  Uiso   1.00
H26    H     0.84430   0.48730   0.01940   0.01267  Uiso   1.00
H27    H     0.94100   0.34760   0.05510   0.01267  Uiso   1.00
H28    H     0.86830   0.36410   0.14130   0.01267  Uiso   1.00
H29    H     0.92750   0.53720   0.90570   0.01267  Uiso   1.00
H30    H     0.94280   0.52880   0.83840   0.01267  Uiso   1.00
H31    H     0.44910   0.10180   0.64610   0.01267  Uiso   1.00
H32    H     0.46350   0.22370   0.51910   0.01267  Uiso   1.00
H33    H     0.38300   0.24940   0.59980   0.01267  Uiso   1.00
H34    H     0.51340   0.02940   0.61970   0.01267  Uiso   1.00
H35    H     0.72480   0.89270   0.49910   0.01267  Uiso   1.00
H36    H     0.65570   0.98060   0.51270   0.01267  Uiso   1.00
H37    H     0.55900   0.94490   0.65240   0.01267  Uiso   1.00
H38    H     0.63170   0.85870   0.63590   0.01267  Uiso   1.00
H39    H     0.57250   0.09430   0.46280   0.01267  Uiso   1.00
H40    H     0.55720   0.16160   0.47120   0.01267  Uiso   1.00
H41    H     0.44910   0.35390   0.45570   0.01267  Uiso   1.00
H42    H     0.46350   0.48090   0.70460   0.01267  Uiso   1.00
H43    H     0.38300   0.40020   0.64960   0.01267  Uiso   1.00
H44    H     0.51340   0.38030   0.40970   0.01267  Uiso   1.00
H45    H     0.72480   0.50090   0.39360   0.01267  Uiso   1.00
H46    H     0.65570   0.48730   0.46790   0.01267  Uiso   1.00
H47    H     0.55900   0.34760   0.29250   0.01267  Uiso   1.00
H48    H     0.63170   0.36410   0.22280   0.01267  Uiso   1.00
H49    H     0.57250   0.53720   0.63150   0.01267  Uiso   1.00
H50    H     0.55720   0.52880   0.69040   0.01267  Uiso   1.00
H51    H     0.44910   0.54430   0.89820   0.01267  Uiso   1.00
H52    H     0.46350   0.29540   0.77630   0.01267  Uiso   1.00
H53    H     0.38300   0.35040   0.75060   0.01267  Uiso   1.00
H54    H     0.51340   0.59030   0.97060   0.01267  Uiso   1.00
H55    H     0.72480   0.60640   0.10730   0.01267  Uiso   1.00
H56    H     0.65570   0.53210   0.01940   0.01267  Uiso   1.00
H57    H     0.55900   0.70750   0.05510   0.01267  Uiso   1.00
H58    H     0.63170   0.77720   0.14130   0.01267  Uiso   1.00
H59    H     0.57250   0.36850   0.90570   0.01267  Uiso   1.00
H60    H     0.55720   0.30960   0.83840   0.01267  Uiso   1.00
H61    H     0.94910   0.45570   0.35390   0.01267  Uiso   1.00
H62    H     0.96350   0.70460   0.48090   0.01267  Uiso   1.00
H63    H     0.88300   0.64960   0.40020   0.01267  Uiso   1.00
H64    H     0.01340   0.40970   0.38030   0.01267  Uiso   1.00
H65    H     0.22480   0.39360   0.50090   0.01267  Uiso   1.00
H66    H     0.15570   0.46790   0.48730   0.01267  Uiso   1.00
H67    H     0.05900   0.29250   0.34760   0.01267  Uiso   1.00
H68    H     0.13170   0.22280   0.36410   0.01267  Uiso   1.00
H69    H     0.07250   0.63150   0.53720   0.01267  Uiso   1.00
H70    H     0.05720   0.69040   0.52880   0.01267  Uiso   1.00
H71    H     0.94910   0.89820   0.54430   0.01267  Uiso   1.00
H72    H     0.96350   0.77630   0.29540   0.01267  Uiso   1.00
H73    H     0.88300   0.75060   0.35040   0.01267  Uiso   1.00
H74    H     0.01340   0.97060   0.59030   0.01267  Uiso   1.00
H75    H     0.22480   0.10730   0.60640   0.01267  Uiso   1.00
H76    H     0.15570   0.01940   0.53210   0.01267  Uiso   1.00
H77    H     0.05900   0.05510   0.70750   0.01267  Uiso   1.00
H78    H     0.13170   0.14130   0.77720   0.01267  Uiso   1.00
H79    H     0.07250   0.90570   0.36850   0.01267  Uiso   1.00
H80    H     0.05720   0.83840   0.30960   0.01267  Uiso   1.00
H81    H     0.94910   0.64610   0.10180   0.01267  Uiso   1.00
H82    H     0.96350   0.51910   0.22370   0.01267  Uiso   1.00
H83    H     0.88300   0.59980   0.24940   0.01267  Uiso   1.00
H84    H     0.01340   0.61970   0.02940   0.01267  Uiso   1.00
H85    H     0.22480   0.49910   0.89270   0.01267  Uiso   1.00
H86    H     0.15570   0.51270   0.98060   0.01267  Uiso   1.00
H87    H     0.05900   0.65240   0.94490   0.01267  Uiso   1.00
H88    H     0.13170   0.63590   0.85870   0.01267  Uiso   1.00
H89    H     0.07250   0.46280   0.09430   0.01267  Uiso   1.00
H90    H     0.05720   0.47120   0.16160   0.01267  Uiso   1.00
H91    H     0.55090   0.89820   0.35390   0.01267  Uiso   1.00
H92    H     0.53650   0.77630   0.48090   0.01267  Uiso   1.00
H93    H     0.61700   0.75060   0.40020   0.01267  Uiso   1.00
H94    H     0.48660   0.97060   0.38030   0.01267  Uiso   1.00
H95    H     0.27520   0.10730   0.50090   0.01267  Uiso   1.00
H96    H     0.34430   0.01940   0.48730   0.01267  Uiso   1.00
H97    H     0.44100   0.05510   0.34760   0.01267  Uiso   1.00
H98    H     0.36830   0.14130   0.36410   0.01267  Uiso   1.00
H99    H     0.42750   0.90570   0.53720   0.01267  Uiso   1.00
H100   H     0.44280   0.83840   0.52880   0.01267  Uiso   1.00
H101   H     0.55090   0.64610   0.54430   0.01267  Uiso   1.00
H102   H     0.53650   0.51910   0.29540   0.01267  Uiso   1.00
H103   H     0.61700   0.59980   0.35040   0.01267  Uiso   1.00
H104   H     0.48660   0.61970   0.59030   0.01267  Uiso   1.00
H105   H     0.27520   0.49910   0.60640   0.01267  Uiso   1.00
H106   H     0.34430   0.51270   0.53210   0.01267  Uiso   1.00
H107   H     0.44100   0.65240   0.70750   0.01267  Uiso   1.00
H108   H     0.36830   0.63590   0.77720   0.01267  Uiso   1.00
H109   H     0.42750   0.46280   0.36850   0.01267  Uiso   1.00
H110   H     0.44280   0.47120   0.30960   0.01267  Uiso   1.00
H111   H     0.55090   0.45570   0.10180   0.01267  Uiso   1.00
H112   H     0.53650   0.70460   0.22370   0.01267  Uiso   1.00
H113   H     0.61700   0.64960   0.24940   0.01267  Uiso   1.00
H114   H     0.48660   0.40970   0.02940   0.01267  Uiso   1.00
H115   H     0.27520   0.39360   0.89270   0.01267  Uiso   1.00
H116   H     0.34430   0.46790   0.98060   0.01267  Uiso   1.00
H117   H     0.44100   0.29250   0.94490   0.01267  Uiso   1.00
H118   H     0.36830   0.22280   0.85870   0.01267  Uiso   1.00
H119   H     0.42750   0.63150   0.09430   0.01267  Uiso   1.00
H120   H     0.44280   0.69040   0.16160   0.01267  Uiso   1.00
C1     C     0.14875   0.48850   0.67697   0.01267  Uiso   1.00
C2     C     0.09377   0.45253   0.62981   0.01267  Uiso   1.00
C3     C     0.04751   0.49419   0.62066   0.01267  Uiso   1.00
C4     C     0.99636   0.46201   0.57408   0.01267  Uiso   1.00
C5     C     0.99221   0.38671   0.53461   0.01267  Uiso   1.00
C6     C     0.03885   0.34559   0.54499   0.01267  Uiso   1.00
C7     C     0.08747   0.37852   0.59246   0.01267  Uiso   1.00
C8     C     0.95130   0.56720   0.59130   0.01267  Uiso   1.00
C9     C     0.80944   0.62699   0.53028   0.01267  Uiso   1.00
C10    C     0.85073   0.58178   0.53751   0.01267  Uiso   1.00
C11    C     0.90232   0.61196   0.58286   0.01267  Uiso   1.00
C12    C     0.90764   0.68562   0.62022   0.01267  Uiso   1.00
C13    C     0.86380   0.72726   0.61016   0.01267  Uiso   1.00
C14    C     0.14875   0.18847   0.51150   0.01267  Uiso   1.00
C15    C     0.09377   0.17728   0.54747   0.01267  Uiso   1.00
C16    C     0.04751   0.12647   0.50581   0.01267  Uiso   1.00
C17    C     0.99636   0.11207   0.53799   0.01267  Uiso   1.00
C18    C     0.99221   0.14790   0.61329   0.01267  Uiso   1.00
C19    C     0.03885   0.19940   0.65441   0.01267  Uiso   1.00
C20    C     0.08747   0.21394   0.62148   0.01267  Uiso   1.00
C21    C     0.95130   0.02410   0.43280   0.01267  Uiso   1.00
C22    C     0.80944   0.90329   0.37301   0.01267  Uiso   1.00
C23    C     0.85073   0.95573   0.41822   0.01267  Uiso   1.00
C24    C     0.90232   0.97090   0.38804   0.01267  Uiso   1.00
C25    C     0.90764   0.93460   0.31438   0.01267  Uiso   1.00
C26    C     0.86380   0.88290   0.27274   0.01267  Uiso   1.00
C27    C     0.14875   0.32303   0.81153   0.01267  Uiso   1.00
C28    C     0.09377   0.37019   0.82272   0.01267  Uiso   1.00
C29    C     0.04751   0.37934   0.87353   0.01267  Uiso   1.00
C30    C     0.99636   0.42592   0.88793   0.01267  Uiso   1.00
C31    C     0.99221   0.46539   0.85210   0.01267  Uiso   1.00
C32    C     0.03885   0.45501   0.80060   0.01267  Uiso   1.00
C33    C     0.08747   0.40754   0.78606   0.01267  Uiso   1.00
C34    C     0.95130   0.40870   0.97590   0.01267  Uiso   1.00
C35    C     0.80944   0.46972   0.09671   0.01267  Uiso   1.00
C36    C     0.85073   0.46249   0.04427   0.01267  Uiso   1.00
C37    C     0.90232   0.41714   0.02910   0.01267  Uiso   1.00
C38    C     0.90764   0.37978   0.06540   0.01267  Uiso   1.00
C39    C     0.86380   0.38984   0.11710   0.01267  Uiso   1.00
C40    C     0.35125   0.18847   0.67697   0.01267  Uiso   1.00
C41    C     0.40623   0.17728   0.62981   0.01267  Uiso   1.00
C42    C     0.45249   0.12647   0.62066   0.01267  Uiso   1.00
C43    C     0.50364   0.11207   0.57408   0.01267  Uiso   1.00
C44    C     0.50779   0.14790   0.53461   0.01267  Uiso   1.00
C45    C     0.46115   0.19940   0.54499   0.01267  Uiso   1.00
C46    C     0.41253   0.21394   0.59246   0.01267  Uiso   1.00
C47    C     0.54870   0.02410   0.59130   0.01267  Uiso   1.00
C48    C     0.69056   0.90329   0.53028   0.01267  Uiso   1.00
C49    C     0.64927   0.95573   0.53751   0.01267  Uiso   1.00
C50    C     0.59768   0.97090   0.58286   0.01267  Uiso   1.00
C51    C     0.59236   0.93460   0.62022   0.01267  Uiso   1.00
C52    C     0.63620   0.88290   0.61016   0.01267  Uiso   1.00
C53    C     0.35125   0.32303   0.51150   0.01267  Uiso   1.00
C54    C     0.40623   0.37019   0.54747   0.01267  Uiso   1.00
C55    C     0.45249   0.37934   0.50581   0.01267  Uiso   1.00
C56    C     0.50364   0.42592   0.53799   0.01267  Uiso   1.00
C57    C     0.50779   0.46539   0.61329   0.01267  Uiso   1.00
C58    C     0.46115   0.45501   0.65441   0.01267  Uiso   1.00
C59    C     0.41253   0.40754   0.62148   0.01267  Uiso   1.00
C60    C     0.54870   0.40870   0.43280   0.01267  Uiso   1.00
C61    C     0.69056   0.46972   0.37301   0.01267  Uiso   1.00
C62    C     0.64927   0.46249   0.41822   0.01267  Uiso   1.00
C63    C     0.59768   0.41714   0.38804   0.01267  Uiso   1.00
C64    C     0.59236   0.37978   0.31438   0.01267  Uiso   1.00
C65    C     0.63620   0.38984   0.27274   0.01267  Uiso   1.00
C66    C     0.35125   0.48850   0.81153   0.01267  Uiso   1.00
C67    C     0.40623   0.45253   0.82272   0.01267  Uiso   1.00
C68    C     0.45249   0.49419   0.87353   0.01267  Uiso   1.00
C69    C     0.50364   0.46201   0.88793   0.01267  Uiso   1.00
C70    C     0.50779   0.38671   0.85210   0.01267  Uiso   1.00
C71    C     0.46115   0.34559   0.80060   0.01267  Uiso   1.00
C72    C     0.41253   0.37852   0.78606   0.01267  Uiso   1.00
C73    C     0.54870   0.56720   0.97590   0.01267  Uiso   1.00
C74    C     0.69056   0.62699   0.09671   0.01267  Uiso   1.00
C75    C     0.64927   0.58178   0.04427   0.01267  Uiso   1.00
C76    C     0.59768   0.61196   0.02910   0.01267  Uiso   1.00
C77    C     0.59236   0.68562   0.06540   0.01267  Uiso   1.00
C78    C     0.63620   0.72726   0.11710   0.01267  Uiso   1.00
C79    C     0.85125   0.51150   0.32303   0.01267  Uiso   1.00
C80    C     0.90623   0.54747   0.37019   0.01267  Uiso   1.00
C81    C     0.95249   0.50581   0.37934   0.01267  Uiso   1.00
C82    C     0.00364   0.53799   0.42592   0.01267  Uiso   1.00
C83    C     0.00779   0.61329   0.46539   0.01267  Uiso   1.00
C84    C     0.96115   0.65441   0.45501   0.01267  Uiso   1.00
C85    C     0.91253   0.62148   0.40754   0.01267  Uiso   1.00
C86    C     0.04870   0.43280   0.40870   0.01267  Uiso   1.00
C87    C     0.19056   0.37301   0.46972   0.01267  Uiso   1.00
C88    C     0.14927   0.41822   0.46249   0.01267  Uiso   1.00
C89    C     0.09768   0.38804   0.41714   0.01267  Uiso   1.00
C90    C     0.09236   0.31438   0.37978   0.01267  Uiso   1.00
C91    C     0.13620   0.27274   0.38984   0.01267  Uiso   1.00
C92    C     0.85125   0.81153   0.48850   0.01267  Uiso   1.00
C93    C     0.90623   0.82272   0.45253   0.01267  Uiso   1.00
C94    C     0.95249   0.87353   0.49419   0.01267  Uiso   1.00
C95    C     0.00364   0.88793   0.46201   0.01267  Uiso   1.00
C96    C     0.00779   0.85210   0.38671   0.01267  Uiso   1.00
C97    C     0.96115   0.80060   0.34559   0.01267  Uiso   1.00
C98    C     0.91253   0.78606   0.37852   0.01267  Uiso   1.00
C99    C     0.04870   0.97590   0.56720   0.01267  Uiso   1.00
C100   C     0.19056   0.09671   0.62699   0.01267  Uiso   1.00
C101   C     0.14927   0.04427   0.58178   0.01267  Uiso   1.00
C102   C     0.09768   0.02910   0.61196   0.01267  Uiso   1.00
C103   C     0.09236   0.06540   0.68562   0.01267  Uiso   1.00
C104   C     0.13620   0.11710   0.72726   0.01267  Uiso   1.00
C105   C     0.85125   0.67697   0.18847   0.01267  Uiso   1.00
C106   C     0.90623   0.62981   0.17728   0.01267  Uiso   1.00
C107   C     0.95249   0.62066   0.12647   0.01267  Uiso   1.00
C108   C     0.00364   0.57408   0.11207   0.01267  Uiso   1.00
C109   C     0.00779   0.53461   0.14790   0.01267  Uiso   1.00
C110   C     0.96115   0.54499   0.19940   0.01267  Uiso   1.00
C111   C     0.91253   0.59246   0.21394   0.01267  Uiso   1.00
C112   C     0.04870   0.59130   0.02410   0.01267  Uiso   1.00
C113   C     0.19056   0.53028   0.90329   0.01267  Uiso   1.00
C114   C     0.14927   0.53751   0.95573   0.01267  Uiso   1.00
C115   C     0.09768   0.58286   0.97090   0.01267  Uiso   1.00
C116   C     0.09236   0.62022   0.93460   0.01267  Uiso   1.00
C117   C     0.13620   0.61016   0.88290   0.01267  Uiso   1.00
C118   C     0.64875   0.81153   0.32303   0.01267  Uiso   1.00
C119   C     0.59377   0.82272   0.37019   0.01267  Uiso   1.00
C120   C     0.54751   0.87353   0.37934   0.01267  Uiso   1.00
C121   C     0.49636   0.88793   0.42592   0.01267  Uiso   1.00
C122   C     0.49221   0.85210   0.46539   0.01267  Uiso   1.00
C123   C     0.53885   0.80060   0.45501   0.01267  Uiso   1.00
C124   C     0.58747   0.78606   0.40754   0.01267  Uiso   1.00
C125   C     0.45130   0.97590   0.40870   0.01267  Uiso   1.00
C126   C     0.30944   0.09671   0.46972   0.01267  Uiso   1.00
C127   C     0.35073   0.04427   0.46249   0.01267  Uiso   1.00
C128   C     0.40232   0.02910   0.41714   0.01267  Uiso   1.00
C129   C     0.40764   0.06540   0.37978   0.01267  Uiso   1.00
C130   C     0.36380   0.11710   0.38984   0.01267  Uiso   1.00
C131   C     0.64875   0.67697   0.48850   0.01267  Uiso   1.00
C132   C     0.59377   0.62981   0.45253   0.01267  Uiso   1.00
C133   C     0.54751   0.62066   0.49419   0.01267  Uiso   1.00
C134   C     0.49636   0.57408   0.46201   0.01267  Uiso   1.00
C135   C     0.49221   0.53461   0.38671   0.01267  Uiso   1.00
C136   C     0.53885   0.54499   0.34559   0.01267  Uiso   1.00
C137   C     0.58747   0.59246   0.37852   0.01267  Uiso   1.00
C138   C     0.45130   0.59130   0.56720   0.01267  Uiso   1.00
C139   C     0.30944   0.53028   0.62699   0.01267  Uiso   1.00
C140   C     0.35073   0.53751   0.58178   0.01267  Uiso   1.00
C141   C     0.40232   0.58286   0.61196   0.01267  Uiso   1.00
C142   C     0.40764   0.62022   0.68562   0.01267  Uiso   1.00
C143   C     0.36380   0.61016   0.72726   0.01267  Uiso   1.00
C144   C     0.64875   0.51150   0.18847   0.01267  Uiso   1.00
C145   C     0.59377   0.54747   0.17728   0.01267  Uiso   1.00
C146   C     0.54751   0.50581   0.12647   0.01267  Uiso   1.00
C147   C     0.49636   0.53799   0.11207   0.01267  Uiso   1.00
C148   C     0.49221   0.61329   0.14790   0.01267  Uiso   1.00
C149   C     0.53885   0.65441   0.19940   0.01267  Uiso   1.00
C150   C     0.58747   0.62148   0.21394   0.01267  Uiso   1.00
C151   C     0.45130   0.43280   0.02410   0.01267  Uiso   1.00
C152   C     0.30944   0.37301   0.90329   0.01267  Uiso   1.00
C153   C     0.35073   0.41822   0.95573   0.01267  Uiso   1.00
C154   C     0.40232   0.38804   0.97090   0.01267  Uiso   1.00
C155   C     0.40764   0.31438   0.93460   0.01267  Uiso   1.00
C156   C     0.36380   0.27274   0.88290   0.01267  Uiso   1.00
N1     N     0.94778   0.50031   0.56242   0.01267  Uiso   1.00
N2     N     0.81502   0.69883   0.56504   0.01267  Uiso   1.00
N3     N     0.94220   0.35481   0.49051   0.01267  Uiso   1.00
N4     N     0.94778   0.06211   0.49969   0.01267  Uiso   1.00
N5     N     0.81502   0.86621   0.30117   0.01267  Uiso   1.00
N6     N     0.94220   0.13570   0.64519   0.01267  Uiso   1.00
N7     N     0.94778   0.43758   0.93789   0.01267  Uiso   1.00
N8     N     0.81502   0.43496   0.13379   0.01267  Uiso   1.00
N9     N     0.94220   0.50949   0.86430   0.01267  Uiso   1.00
N10    N     0.55222   0.06211   0.56242   0.01267  Uiso   1.00
N11    N     0.68498   0.86621   0.56504   0.01267  Uiso   1.00
N12    N     0.55780   0.13570   0.49051   0.01267  Uiso   1.00
N13    N     0.55222   0.43758   0.49969   0.01267  Uiso   1.00
N14    N     0.68498   0.43496   0.30117   0.01267  Uiso   1.00
N15    N     0.55780   0.50949   0.64519   0.01267  Uiso   1.00
N16    N     0.55222   0.50031   0.93789   0.01267  Uiso   1.00
N17    N     0.68498   0.69883   0.13379   0.01267  Uiso   1.00
N18    N     0.55780   0.35481   0.86430   0.01267  Uiso   1.00
N19    N     0.05222   0.49969   0.43758   0.01267  Uiso   1.00
N20    N     0.18498   0.30117   0.43496   0.01267  Uiso   1.00
N21    N     0.05780   0.64519   0.50949   0.01267  Uiso   1.00
N22    N     0.05222   0.93789   0.50031   0.01267  Uiso   1.00
N23    N     0.18498   0.13379   0.69883   0.01267  Uiso   1.00
N24    N     0.05780   0.86430   0.35481   0.01267  Uiso   1.00
N25    N     0.05222   0.56242   0.06211   0.01267  Uiso   1.00
N26    N     0.18498   0.56504   0.86621   0.01267  Uiso   1.00
N27    N     0.05780   0.49051   0.13570   0.01267  Uiso   1.00
N28    N     0.44778   0.93789   0.43758   0.01267  Uiso   1.00
N29    N     0.31502   0.13379   0.43496   0.01267  Uiso   1.00
N30    N     0.44220   0.86430   0.50949   0.01267  Uiso   1.00
N31    N     0.44778   0.56242   0.50031   0.01267  Uiso   1.00
N32    N     0.31502   0.56504   0.69883   0.01267  Uiso   1.00
N33    N     0.44220   0.49051   0.35481   0.01267  Uiso   1.00
N34    N     0.44778   0.49969   0.06211   0.01267  Uiso   1.00
N35    N     0.31502   0.30117   0.86621   0.01267  Uiso   1.00
N36    N     0.44220   0.64519   0.13570   0.01267  Uiso   1.00
O1     O     0.19099   0.45008   0.68375   0.01267  Uiso   1.00
O2     O     0.15375   0.55722   0.71121   0.01267  Uiso   1.00
O3     O     0.19099   0.23367   0.54992   0.01267  Uiso   1.00
O4     O     0.15375   0.15399   0.44278   0.01267  Uiso   1.00
O5     O     0.19099   0.31625   0.76633   0.01267  Uiso   1.00
O6     O     0.15375   0.28879   0.84601   0.01267  Uiso   1.00
O7     O     0.30901   0.23367   0.68375   0.01267  Uiso   1.00
O8     O     0.34625   0.15399   0.71121   0.01267  Uiso   1.00
O9     O     0.30901   0.31625   0.54992   0.01267  Uiso   1.00
O10    O     0.34625   0.28879   0.44278   0.01267  Uiso   1.00
O11    O     0.30901   0.45008   0.76633   0.01267  Uiso   1.00
O12    O     0.34625   0.55722   0.84601   0.01267  Uiso   1.00
O13    O     0.80901   0.54992   0.31625   0.01267  Uiso   1.00
O14    O     0.84625   0.44278   0.28879   0.01267  Uiso   1.00
O15    O     0.80901   0.76633   0.45008   0.01267  Uiso   1.00
O16    O     0.84625   0.84601   0.55722   0.01267  Uiso   1.00
O17    O     0.80901   0.68375   0.23367   0.01267  Uiso   1.00
O18    O     0.84625   0.71121   0.15399   0.01267  Uiso   1.00
O19    O     0.69099   0.76633   0.31625   0.01267  Uiso   1.00
O20    O     0.65375   0.84601   0.28879   0.01267  Uiso   1.00
O21    O     0.69099   0.68375   0.45008   0.01267  Uiso   1.00
O22    O     0.65375   0.71121   0.55722   0.01267  Uiso   1.00
O23    O     0.69099   0.54992   0.23367   0.01267  Uiso   1.00
O24    O     0.65375   0.44278   0.15399   0.01267  Uiso   1.00
