data_image0
_cell_length_a       9.2252
_cell_length_b       10.627
_cell_length_c       10.807
_cell_angle_alpha    86.51
_cell_angle_beta     83.93
_cell_angle_gamma    81.22

_symmetry_space_group_name_H-M    "P 1"
_symmetry_int_tables_number       1

loop_
  _symmetry_equiv_pos_as_xyz
  'x, y, z'

loop_
  _atom_site_label
  _atom_site_occupancy
  _atom_site_fract_x
  _atom_site_fract_y
  _atom_site_fract_z
  _atom_site_thermal_displace_type
  _atom_site_B_iso_or_equiv
  _atom_site_type_symbol
  Ce1      1.0000 0.03105  0.23995  0.71858  Biso   1.000  Ce
  Ce2      1.0000 0.97759  0.32305  0.31373  Biso   1.000  Ce
  C1       1.0000 0.19580  0.53220  0.44080  Biso   1.000  C
  C2       1.0000 0.35490  0.52150  0.47170  Biso   1.000  C
  C3       1.0000 0.45570  0.58450  0.40260  Biso   1.000  C
  H1       1.0000 0.42660  0.64280  0.33900  Biso   1.000  H
  C4       1.0000 0.60350  0.56110  0.42760  Biso   1.000  C
  C5       1.0000 0.71850  0.62170  0.34880  Biso   1.000  C
  C6       1.0000 0.23430  0.14920  0.42080  Biso   1.000  C
  C7       1.0000 0.37250  0.07120  0.46270  Biso   1.000  C
  C8       1.0000 0.50590  0.09140  0.40270  Biso   1.000  C
  H2       1.0000 0.50990  0.15330  0.33830  Biso   1.000  H
  C9       1.0000 0.63700  0.01900  0.43800  Biso   1.000  C
  C10      1.0000 0.78170  0.04680  0.36880  Biso   1.000  C
  C11      1.0000 0.79100  0.49230  0.86480  Biso   1.000  C
  C12      1.0000 0.64240  0.49760  0.94290  Biso   1.000  C
  C13      1.0000 0.37920  0.55850  0.93870  Biso   1.000  C
  C14      1.0000 0.52190  0.55620  0.88290  Biso   1.000  C
  H3       1.0000 0.53730  0.59460  0.80390  Biso   1.000  H
  C15      1.0000 0.25370  0.61320  0.86420  Biso   1.000  C
  O1       1.0000 0.12140  0.17620  0.50010  Biso   1.000  O
  O2       1.0000 0.23200  0.18300  0.30940  Biso   1.000  O
  O3       1.0000 0.27870  0.67440  0.76320  Biso   1.000  O
  O4       1.0000 0.12700  0.58830  0.90000  Biso   1.000  O
  O5       1.0000 0.84090  0.13370  0.40720  Biso   1.000  O
  O6       1.0000 0.84530  0.59230  0.84830  Biso   1.000  O
  O7       1.0000 0.11410  0.63970  0.45550  Biso   1.000  O
  O8       1.0000 0.69360  0.73460  0.30650  Biso   1.000  O
  O9       1.0000 0.84810  0.55760  0.33070  Biso   1.000  O
  O10      1.0000 0.83150  0.98420  0.27340  Biso   1.000  O
  O11      1.0000 0.15930  0.43630  0.40130  Biso   1.000  O
  O12      1.0000 0.83740  0.38790  0.81750  Biso   1.000  O
  Ce3      1.0000 0.96895  0.76005  0.28142  Biso   1.000  Ce
  Ce4      1.0000 0.02241  0.67695  0.68627  Biso   1.000  Ce
  C16      1.0000 0.80420  0.46780  0.55920  Biso   1.000  C
  C17      1.0000 0.64510  0.47850  0.52830  Biso   1.000  C
  C18      1.0000 0.54430  0.41550  0.59740  Biso   1.000  C
  H4       1.0000 0.57340  0.35720  0.66100  Biso   1.000  H
  C19      1.0000 0.39650  0.43890  0.57240  Biso   1.000  C
  C20      1.0000 0.28150  0.37830  0.65120  Biso   1.000  C
  C21      1.0000 0.76570  0.85080  0.57920  Biso   1.000  C
  C22      1.0000 0.62750  0.92880  0.53730  Biso   1.000  C
  C23      1.0000 0.49410  0.90860  0.59730  Biso   1.000  C
  H5       1.0000 0.49010  0.84670  0.66170  Biso   1.000  H
  C24      1.0000 0.36300  0.98100  0.56200  Biso   1.000  C
  C25      1.0000 0.21830  0.95320  0.63120  Biso   1.000  C
  C26      1.0000 0.20900  0.50770  0.13520  Biso   1.000  C
  C27      1.0000 0.35760  0.50240  0.05710  Biso   1.000  C
  C28      1.0000 0.62080  0.44150  0.06130  Biso   1.000  C
  C29      1.0000 0.47810  0.44380  0.11710  Biso   1.000  C
  H6       1.0000 0.46270  0.40540  0.19610  Biso   1.000  H
  C30      1.0000 0.74630  0.38680  0.13580  Biso   1.000  C
  O13      1.0000 0.87860  0.82380  0.49990  Biso   1.000  O
  O14      1.0000 0.76800  0.81700  0.69060  Biso   1.000  O
  O15      1.0000 0.72130  0.32560  0.23680  Biso   1.000  O
  O16      1.0000 0.87300  0.41170  0.10000  Biso   1.000  O
  O17      1.0000 0.15910  0.86630  0.59280  Biso   1.000  O
  O18      1.0000 0.15470  0.40770  0.15170  Biso   1.000  O
  O19      1.0000 0.88590  0.36030  0.54450  Biso   1.000  O
  O20      1.0000 0.30640  0.26540  0.69350  Biso   1.000  O
  O21      1.0000 0.15190  0.44240  0.66930  Biso   1.000  O
  O22      1.0000 0.16850  0.01580  0.72660  Biso   1.000  O
  O23      1.0000 0.84070  0.56370  0.59870  Biso   1.000  O
  O24      1.0000 0.16260  0.61210  0.18250  Biso   1.000  O
