data_image0
_cell_length_a       9.2467
_cell_length_b       10.715
_cell_length_c       10.84
_cell_angle_alpha    86.19
_cell_angle_beta     84.05
_cell_angle_gamma    81.42

_symmetry_space_group_name_H-M    "P 1"
_symmetry_int_tables_number       1

loop_
  _symmetry_equiv_pos_as_xyz
  'x, y, z'

loop_
  _atom_site_label
  _atom_site_occupancy
  _atom_site_fract_x
  _atom_site_fract_y
  _atom_site_fract_z
  _atom_site_thermal_displace_type
  _atom_site_B_iso_or_equiv
  _atom_site_type_symbol
  La1      1.0000 0.53060  0.73954  0.71967  Biso   1.000  La
  La2      1.0000 0.47811  0.82300  0.31405  Biso   1.000  La
  C1       1.0000 0.28920  0.98960  0.86700  Biso   1.000  C
  C2       1.0000 0.14300  0.99490  0.94220  Biso   1.000  C
  C3       1.0000 0.02440  0.05510  0.88250  Biso   1.000  C
  H1       1.0000 0.04050  0.09340  0.80370  Biso   1.000  H
  C4       1.0000 0.88110  0.05930  0.93870  Biso   1.000  C
  C5       1.0000 0.75600  0.11560  0.86290  Biso   1.000  C
  C6       1.0000 0.78210  0.87910  0.65040  Biso   1.000  C
  C7       1.0000 0.89720  0.94000  0.57300  Biso   1.000  C
  C8       1.0000 0.04320  0.91710  0.59880  Biso   1.000  C
  H2       1.0000 0.07160  0.86090  0.66400  Biso   1.000  H
  C9       1.0000 0.14600  0.97870  0.52660  Biso   1.000  C
  C10      1.0000 0.30320  0.96690  0.55930  Biso   1.000  C
  C11      1.0000 0.28060  0.54760  0.36970  Biso   1.000  C
  C12      1.0000 0.13570  0.51880  0.43870  Biso   1.000  C
  C13      1.0000 0.00750  0.59320  0.40490  Biso   1.000  C
  H3       1.0000 0.01260  0.65600  0.34180  Biso   1.000  H
  C14      1.0000 0.87130  0.57340  0.46550  Biso   1.000  C
  C15      1.0000 0.73720  0.65100  0.42190  Biso   1.000  C
  O1       1.0000 0.38350  0.85930  0.54530  Biso   1.000  O
  O2       1.0000 0.62390  0.67690  0.49860  Biso   1.000  O
  O3       1.0000 0.62890  0.09200  0.89970  Biso   1.000  O
  O4       1.0000 0.78150  0.17630  0.76370  Biso   1.000  O
  O5       1.0000 0.34260  0.06030  0.59800  Biso   1.000  O
  O6       1.0000 0.34700  0.08850  0.84850  Biso   1.000  O
  O7       1.0000 0.73550  0.68790  0.31050  Biso   1.000  O
  O8       1.0000 0.80850  0.76740  0.69220  Biso   1.000  O
  O9       1.0000 0.65360  0.94360  0.66840  Biso   1.000  O
  O10      1.0000 0.34160  0.63110  0.40860  Biso   1.000  O
  O11      1.0000 0.32860  0.48600  0.27330  Biso   1.000  O
  O12      1.0000 0.33570  0.88570  0.81750  Biso   1.000  O
  La3      1.0000 0.46940  0.26046  0.28033  Biso   1.000  La
  La4      1.0000 0.52189  0.17700  0.68595  Biso   1.000  La
  C16      1.0000 0.71080  0.01040  0.13300  Biso   1.000  C
  C17      1.0000 0.85700  0.00510  0.05780  Biso   1.000  C
  C18      1.0000 0.97560  0.94490  0.11750  Biso   1.000  C
  H4       1.0000 0.95950  0.90660  0.19630  Biso   1.000  H
  C19      1.0000 0.11890  0.94070  0.06130  Biso   1.000  C
  C20      1.0000 0.24400  0.88440  0.13710  Biso   1.000  C
  C21      1.0000 0.21790  0.12090  0.34960  Biso   1.000  C
  C22      1.0000 0.10280  0.06000  0.42700  Biso   1.000  C
  C23      1.0000 0.95680  0.08290  0.40120  Biso   1.000  C
  H5       1.0000 0.92840  0.13910  0.33600  Biso   1.000  H
  C24      1.0000 0.85400  0.02130  0.47340  Biso   1.000  C
  C25      1.0000 0.69680  0.03310  0.44070  Biso   1.000  C
  C26      1.0000 0.71940  0.45240  0.63030  Biso   1.000  C
  C27      1.0000 0.86430  0.48120  0.56130  Biso   1.000  C
  C28      1.0000 0.99250  0.40680  0.59510  Biso   1.000  C
  H6       1.0000 0.98740  0.34400  0.65820  Biso   1.000  H
  C29      1.0000 0.12870  0.42660  0.53450  Biso   1.000  C
  C30      1.0000 0.26280  0.34900  0.57810  Biso   1.000  C
  O13      1.0000 0.61650  0.14070  0.45470  Biso   1.000  O
  O14      1.0000 0.37610  0.32310  0.50140  Biso   1.000  O
  O15      1.0000 0.37110  0.90800  0.10030  Biso   1.000  O
  O16      1.0000 0.21850  0.82370  0.23630  Biso   1.000  O
  O17      1.0000 0.65740  0.93970  0.40200  Biso   1.000  O
  O18      1.0000 0.65300  0.91150  0.15150  Biso   1.000  O
  O19      1.0000 0.26450  0.31210  0.68950  Biso   1.000  O
  O20      1.0000 0.19150  0.23260  0.30780  Biso   1.000  O
  O21      1.0000 0.34640  0.05640  0.33160  Biso   1.000  O
  O22      1.0000 0.65840  0.36890  0.59140  Biso   1.000  O
  O23      1.0000 0.67140  0.51400  0.72670  Biso   1.000  O
  O24      1.0000 0.66430  0.11430  0.18250  Biso   1.000  O
