data_image0
_cell_length_a       8.3898
_cell_length_b       10.6559
_cell_length_c       14.3877
_cell_angle_alpha    101.964
_cell_angle_beta     102.864
_cell_angle_gamma    102.681

_symmetry_space_group_name_H-M    "P 1"
_symmetry_int_tables_number       1

loop_
  _symmetry_equiv_pos_as_xyz
  'x, y, z'

loop_
  _atom_site_label
  _atom_site_occupancy
  _atom_site_fract_x
  _atom_site_fract_y
  _atom_site_fract_z
  _atom_site_thermal_displace_type
  _atom_site_B_iso_or_equiv
  _atom_site_type_symbol
  Sm1      1.0000 0.34250  0.33938  0.32908  Biso   1.000  Sm
  O1       1.0000 0.33948  0.55500  0.40484  Biso   1.000  O
  O2       1.0000 0.53618  0.71927  0.52487  Biso   1.000  O
  O3       1.0000 0.27130  0.99305  0.10739  Biso   1.000  O
  O4       1.0000 0.42426  0.16695  0.23588  Biso   1.000  O
  O5       1.0000 0.08809  0.35191  0.20852  Biso   1.000  O
  O6       1.0000 0.33346  0.42642  0.17883  Biso   1.000  O
  O7       1.0000 0.12455  0.13114  0.30410  Biso   1.000  O
  O8       1.0000 0.10955  0.30249  0.41526  Biso   1.000  O
  C1       1.0000 0.41120  0.76999  0.37746  Biso   1.000  C
  C2       1.0000 0.28230  0.73057  0.28861  Biso   1.000  C
  H1       1.0000 0.20640  0.64570  0.26900  Biso   1.000  H
  C3       1.0000 0.26620  0.81707  0.22894  Biso   1.000  C
  H2       1.0000 0.18390  0.78800  0.16800  Biso   1.000  H
  C4       1.0000 0.37370  0.94798  0.26042  Biso   1.000  C
  C5       1.0000 0.50080  0.98815  0.34971  Biso   1.000  C
  H3       1.0000 0.57220  0.07490  0.37140  Biso   1.000  H
  C6       1.0000 0.52160  0.89899  0.40694  Biso   1.000  C
  H4       1.0000 0.60980  0.92560  0.46530  Biso   1.000  H
  C7       1.0000 0.43160  0.67448  0.44056  Biso   1.000  C
  C8       1.0000 0.35170  0.04135  0.19519  Biso   1.000  C
  C9       1.0000 0.08390  0.45597  0.07663  Biso   1.000  C
  C10      1.0000 0.90940  0.44150  0.05740  Biso   1.000  C
  H5       1.0000 0.84890  0.40230  0.09580  Biso   1.000  H
  C11      1.0000 0.17420  0.51490  0.01870  Biso   1.000  C
  H6       1.0000 0.29050  0.52480  0.03120  Biso   1.000  H
  C12      1.0000 0.17340  0.40810  0.15877  Biso   1.000  C
  C13      1.0000 0.03600  0.08549  0.44180  Biso   1.000  C
  C14      1.0000 0.06870  0.96110  0.42287  Biso   1.000  C
  H7       1.0000 0.11440  0.93520  0.37110  Biso   1.000  H
  C15      1.0000 0.96700  0.12400  0.51860  Biso   1.000  C
  H8       1.0000 0.94480  0.20670  0.53090  Biso   1.000  H
  C16      1.0000 0.08860  0.17848  0.38260  Biso   1.000  C
  Sm2      1.0000 0.65750  0.66062  0.67092  Biso   1.000  Sm
  O9       1.0000 0.66052  0.44500  0.59516  Biso   1.000  O
  O10      1.0000 0.46382  0.28073  0.47513  Biso   1.000  O
  O11      1.0000 0.72870  0.00695  0.89261  Biso   1.000  O
  O12      1.0000 0.57574  0.83305  0.76412  Biso   1.000  O
  O13      1.0000 0.91191  0.64809  0.79148  Biso   1.000  O
  O14      1.0000 0.66654  0.57358  0.82117  Biso   1.000  O
  O15      1.0000 0.87545  0.86886  0.69590  Biso   1.000  O
  O16      1.0000 0.89045  0.69751  0.58474  Biso   1.000  O
  C17      1.0000 0.58880  0.23001  0.62254  Biso   1.000  C
  C18      1.0000 0.71770  0.26943  0.71139  Biso   1.000  C
  H9       1.0000 0.79360  0.35430  0.73100  Biso   1.000  H
  C19      1.0000 0.73380  0.18293  0.77106  Biso   1.000  C
  H10      1.0000 0.81610  0.21200  0.83200  Biso   1.000  H
  C20      1.0000 0.62630  0.05202  0.73958  Biso   1.000  C
  C21      1.0000 0.49920  0.01185  0.65029  Biso   1.000  C
  H11      1.0000 0.42780  0.92510  0.62860  Biso   1.000  H
  C22      1.0000 0.47840  0.10101  0.59306  Biso   1.000  C
  H12      1.0000 0.39020  0.07440  0.53470  Biso   1.000  H
  C23      1.0000 0.56840  0.32552  0.55944  Biso   1.000  C
  C24      1.0000 0.64830  0.95865  0.80481  Biso   1.000  C
  C25      1.0000 0.91610  0.54403  0.92337  Biso   1.000  C
  C26      1.0000 0.09060  0.55850  0.94260  Biso   1.000  C
  H13      1.0000 0.15110  0.59770  0.90420  Biso   1.000  H
  C27      1.0000 0.82580  0.48510  0.98130  Biso   1.000  C
  H14      1.0000 0.70950  0.47520  0.96880  Biso   1.000  H
  C28      1.0000 0.82660  0.59190  0.84123  Biso   1.000  C
  C29      1.0000 0.96400  0.91451  0.55820  Biso   1.000  C
  C30      1.0000 0.93130  0.03890  0.57713  Biso   1.000  C
  H15      1.0000 0.88560  0.06480  0.62890  Biso   1.000  H
  C31      1.0000 0.03300  0.87600  0.48140  Biso   1.000  C
  H16      1.0000 0.05520  0.79330  0.46910  Biso   1.000  H
  C32      1.0000 0.91140  0.82152  0.61740  Biso   1.000  C
