data_image0
_cell_length_a       8.3734
_cell_length_b       10.574
_cell_length_c       14.3077
_cell_angle_alpha    101.478
_cell_angle_beta     103.12
_cell_angle_gamma    102.247

_symmetry_space_group_name_H-M    "P 1"
_symmetry_int_tables_number       1

loop_
  _symmetry_equiv_pos_as_xyz
  'x, y, z'

loop_
  _atom_site_label
  _atom_site_occupancy
  _atom_site_fract_x
  _atom_site_fract_y
  _atom_site_fract_z
  _atom_site_thermal_displace_type
  _atom_site_B_iso_or_equiv
  _atom_site_type_symbol
  Y1       1.0000 0.65664  0.66015  0.17072  Biso   1.000  Y
  O1       1.0000 0.57780  0.82860  0.26190  Biso   1.000  O
  O2       1.0000 0.72850  0.00210  0.39170  Biso   1.000  O
  O3       1.0000 0.65430  0.44940  0.09558  Biso   1.000  O
  O4       1.0000 0.46440  0.28470  0.97256  Biso   1.000  O
  O5       1.0000 0.86560  0.86430  0.19330  Biso   1.000  O
  O6       1.0000 0.88160  0.69310  0.08238  Biso   1.000  O
  O7       1.0000 0.90880  0.64700  0.28734  Biso   1.000  O
  O8       1.0000 0.66590  0.57510  0.31856  Biso   1.000  O
  C1       1.0000 0.62530  0.05020  0.23820  Biso   1.000  C
  C2       1.0000 0.49870  0.01200  0.14840  Biso   1.000  C
  H1       1.0000 0.42720  0.92530  0.12630  Biso   1.000  H
  C3       1.0000 0.47840  0.10280  0.09150  Biso   1.000  C
  H2       1.0000 0.39140  0.07640  0.03230  Biso   1.000  H
  C4       1.0000 0.58580  0.23230  0.12130  Biso   1.000  C
  C5       1.0000 0.71460  0.27000  0.21130  Biso   1.000  C
  H3       1.0000 0.78930  0.35540  0.23210  Biso   1.000  H
  C6       1.0000 0.73150  0.18080  0.26990  Biso   1.000  C
  H4       1.0000 0.81430  0.20830  0.33080  Biso   1.000  H
  C7       1.0000 0.64850  0.95480  0.30280  Biso   1.000  C
  C8       1.0000 0.56630  0.33010  0.05850  Biso   1.000  C
  C9       1.0000 0.96160  0.91290  0.05730  Biso   1.000  C
  C10      1.0000 0.03070  0.87460  0.98090  Biso   1.000  C
  H5       1.0000 0.05150  0.79070  0.96790  Biso   1.000  H
  C11      1.0000 0.93120  0.03880  0.07620  Biso   1.000  C
  H6       1.0000 0.88480  0.06460  0.12780  Biso   1.000  H
  C12      1.0000 0.90430  0.81780  0.11520  Biso   1.000  C
  C13      1.0000 0.91540  0.54370  0.42180  Biso   1.000  C
  C14      1.0000 0.09030  0.55900  0.44320  Biso   1.000  C
  H7       1.0000 0.15150  0.59890  0.40510  Biso   1.000  H
  C15      1.0000 0.82650  0.48410  0.47990  Biso   1.000  C
  H8       1.0000 0.70970  0.47330  0.46660  Biso   1.000  H
  C16      1.0000 0.82640  0.59170  0.33850  Biso   1.000  C
  Y2       1.0000 0.34336  0.33985  0.82928  Biso   1.000  Y
  O9       1.0000 0.42220  0.17140  0.73810  Biso   1.000  O
  O10      1.0000 0.27150  0.99790  0.60830  Biso   1.000  O
  O11      1.0000 0.34570  0.55060  0.90442  Biso   1.000  O
  O12      1.0000 0.53560  0.71530  0.02744  Biso   1.000  O
  O13      1.0000 0.13440  0.13570  0.80670  Biso   1.000  O
  O14      1.0000 0.11840  0.30690  0.91762  Biso   1.000  O
  O15      1.0000 0.09120  0.35300  0.71266  Biso   1.000  O
  O16      1.0000 0.33410  0.42490  0.68144  Biso   1.000  O
  C17      1.0000 0.37470  0.94980  0.76180  Biso   1.000  C
  C18      1.0000 0.50130  0.98800  0.85160  Biso   1.000  C
  H9       1.0000 0.57280  0.07470  0.87370  Biso   1.000  H
  C19      1.0000 0.52160  0.89720  0.90850  Biso   1.000  C
  H10      1.0000 0.60860  0.92360  0.96770  Biso   1.000  H
  C20      1.0000 0.41420  0.76770  0.87870  Biso   1.000  C
  C21      1.0000 0.28540  0.73000  0.78870  Biso   1.000  C
  H11      1.0000 0.21070  0.64460  0.76790  Biso   1.000  H
  C22      1.0000 0.26850  0.81920  0.73010  Biso   1.000  C
  H12      1.0000 0.18570  0.79170  0.66920  Biso   1.000  H
  C23      1.0000 0.35150  0.04520  0.69720  Biso   1.000  C
  C24      1.0000 0.43370  0.66990  0.94150  Biso   1.000  C
  C25      1.0000 0.03840  0.08710  0.94270  Biso   1.000  C
  C26      1.0000 0.96930  0.12540  0.01910  Biso   1.000  C
  H13      1.0000 0.94850  0.20930  0.03210  Biso   1.000  H
  C27      1.0000 0.06880  0.96120  0.92380  Biso   1.000  C
  H14      1.0000 0.11520  0.93540  0.87220  Biso   1.000  H
  C28      1.0000 0.09570  0.18220  0.88480  Biso   1.000  C
  C29      1.0000 0.08460  0.45630  0.57820  Biso   1.000  C
  C30      1.0000 0.90970  0.44100  0.55680  Biso   1.000  C
  H15      1.0000 0.84850  0.40110  0.59490  Biso   1.000  H
  C31      1.0000 0.17350  0.51590  0.52010  Biso   1.000  C
  H16      1.0000 0.29030  0.52670  0.53340  Biso   1.000  H
  C32      1.0000 0.17360  0.40830  0.66150  Biso   1.000  C
