data_image0
_cell_length_a       8.4034
_cell_length_b       10.5334
_cell_length_c       14.3515
_cell_angle_alpha    100.83
_cell_angle_beta     103.41
_cell_angle_gamma    101.56

_symmetry_space_group_name_H-M    "P 1"
_symmetry_int_tables_number       1

loop_
  _symmetry_equiv_pos_as_xyz
  'x, y, z'

loop_
  _atom_site_label
  _atom_site_occupancy
  _atom_site_fract_x
  _atom_site_fract_y
  _atom_site_fract_z
  _atom_site_thermal_displace_type
  _atom_site_B_iso_or_equiv
  _atom_site_type_symbol
  Yb1      1.0000 0.15434  0.15948  0.17018  Biso   1.000  Yb
  O1       1.0000 0.15240  0.95250  0.09604  Biso   1.000  O
  O2       1.0000 0.96950  0.79040  0.97183  Biso   1.000  O
  O3       1.0000 0.07520  0.32600  0.25876  Biso   1.000  O
  O4       1.0000 0.21980  0.49560  0.38750  Biso   1.000  O
  O5       1.0000 0.16720  0.07590  0.31692  Biso   1.000  O
  O6       1.0000 0.40690  0.14510  0.28506  Biso   1.000  O
  O7       1.0000 0.35430  0.36080  0.18849  Biso   1.000  O
  O8       1.0000 0.37650  0.19170  0.08062  Biso   1.000  O
  C1       1.0000 0.08590  0.73400  0.12080  Biso   1.000  C
  C2       1.0000 0.21160  0.76890  0.21050  Biso   1.000  C
  H1       1.0000 0.28620  0.85350  0.23160  Biso   1.000  H
  C3       1.0000 0.22540  0.67830  0.26780  Biso   1.000  C
  H2       1.0000 0.30620  0.70420  0.32900  Biso   1.000  H
  C4       1.0000 0.12090  0.54860  0.23630  Biso   1.000  C
  C5       1.0000 0.99680  0.51340  0.14600  Biso   1.000  C
  H3       1.0000 0.92620  0.42730  0.12310  Biso   1.000  H
  C6       1.0000 0.97830  0.60660  0.08990  Biso   1.000  C
  H4       1.0000 0.89250  0.58300  0.03080  Biso   1.000  H
  C7       1.0000 0.06720  0.83370  0.05830  Biso   1.000  C
  C8       1.0000 0.14320  0.45040  0.29970  Biso   1.000  C
  C9       1.0000 0.41610  0.04470  0.42120  Biso   1.000  C
  C10      1.0000 0.32670  0.97920  0.47670  Biso   1.000  C
  H5       1.0000 0.20980  0.96530  0.46140  Biso   1.000  H
  C11      1.0000 0.32470  0.09150  0.33710  Biso   1.000  C
  C12      1.0000 0.45810  0.41190  0.05630  Biso   1.000  C
  C13      1.0000 0.53150  0.37460  0.98210  Biso   1.000  C
  H6       1.0000 0.55270  0.29060  0.96990  Biso   1.000  H
  C14      1.0000 0.42660  0.53700  0.07420  Biso   1.000  C
  H7       1.0000 0.37730  0.56200  0.12420  Biso   1.000  H
  C15      1.0000 0.39700  0.31560  0.11240  Biso   1.000  C
  C16      1.0000 0.59010  0.06500  0.44610  Biso   1.000  C
  H8       1.0000 0.65170  0.10900  0.41030  Biso   1.000  H
  Yb2      1.0000 0.84566  0.84052  0.82982  Biso   1.000  Yb
  O9       1.0000 0.84760  0.04750  0.90396  Biso   1.000  O
  O10      1.0000 0.03050  0.20960  0.02817  Biso   1.000  O
  O11      1.0000 0.92480  0.67400  0.74124  Biso   1.000  O
  O12      1.0000 0.78020  0.50440  0.61250  Biso   1.000  O
  O13      1.0000 0.83280  0.92410  0.68308  Biso   1.000  O
  O14      1.0000 0.59310  0.85490  0.71494  Biso   1.000  O
  O15      1.0000 0.64570  0.63920  0.81151  Biso   1.000  O
  O16      1.0000 0.62350  0.80830  0.91938  Biso   1.000  O
  C17      1.0000 0.91410  0.26600  0.87920  Biso   1.000  C
  C18      1.0000 0.78840  0.23110  0.78950  Biso   1.000  C
  H9       1.0000 0.71380  0.14650  0.76840  Biso   1.000  H
  C19      1.0000 0.77460  0.32170  0.73220  Biso   1.000  C
  H10      1.0000 0.69380  0.29580  0.67100  Biso   1.000  H
  C20      1.0000 0.87910  0.45140  0.76370  Biso   1.000  C
  C21      1.0000 0.00320  0.48660  0.85400  Biso   1.000  C
  H11      1.0000 0.07380  0.57270  0.87690  Biso   1.000  H
  C22      1.0000 0.02170  0.39340  0.91010  Biso   1.000  C
  H12      1.0000 0.10750  0.41700  0.96920  Biso   1.000  H
  C23      1.0000 0.93280  0.16630  0.94170  Biso   1.000  C
  C24      1.0000 0.85680  0.54960  0.70030  Biso   1.000  C
  C25      1.0000 0.58390  0.95530  0.57880  Biso   1.000  C
  C26      1.0000 0.67330  0.02080  0.52330  Biso   1.000  C
  H13      1.0000 0.79020  0.03470  0.53860  Biso   1.000  H
  C27      1.0000 0.67530  0.90850  0.66290  Biso   1.000  C
  C28      1.0000 0.54190  0.58810  0.94370  Biso   1.000  C
  C29      1.0000 0.46850  0.62540  0.01790  Biso   1.000  C
  H14      1.0000 0.44730  0.70940  0.03010  Biso   1.000  H
  C30      1.0000 0.57340  0.46300  0.92580  Biso   1.000  C
  H15      1.0000 0.62270  0.43800  0.87580  Biso   1.000  H
  C31      1.0000 0.60300  0.68440  0.88760  Biso   1.000  C
  C32      1.0000 0.40990  0.93500  0.55390  Biso   1.000  C
  H16      1.0000 0.34830  0.89100  0.58970  Biso   1.000  H
