data_SUNJOB01_clean
_audit_creation_date              2014-07-02
_audit_creation_method            'Materials Studio'
_symmetry_space_group_name_H-M    'P1'
_symmetry_Int_Tables_number       1
_symmetry_cell_setting            triclinic
loop_
_symmetry_equiv_pos_as_xyz
  x,y,z
_cell_length_a                    9.8135
_cell_length_b                    10.4310
_cell_length_c                    11.0671
_cell_angle_alpha                 76.8430
_cell_angle_beta                  76.2760
_cell_angle_gamma                 65.9400
loop_
_atom_site_label
_atom_site_type_symbol
_atom_site_fract_x
_atom_site_fract_y
_atom_site_fract_z
_atom_site_U_iso_or_equiv
_atom_site_adp_type
_atom_site_occupancy
Ho1    Ho    0.94486   0.22804   0.82318   0.01267  Uiso   1.00
Ho2    Ho    0.05514   0.77196   0.17682   0.01267  Uiso   1.00
H1     H     0.65000   0.85620   0.14910   0.01267  Uiso   1.00
H2     H     0.59930   0.11620   0.81910   0.01267  Uiso   1.00
H3     H     0.43610   0.41380   0.70800   0.01267  Uiso   1.00
H4     H     0.73990   0.50260   0.42370   0.01267  Uiso   1.00
H5     H     0.30830   0.92310   0.50720   0.01267  Uiso   1.00
H6     H     0.45580   0.18490   0.60420   0.01267  Uiso   1.00
H7     H     0.35000   0.14380   0.85090   0.01267  Uiso   1.00
H8     H     0.40070   0.88380   0.18090   0.01267  Uiso   1.00
H9     H     0.56390   0.58620   0.29200   0.01267  Uiso   1.00
H10    H     0.26010   0.49740   0.57630   0.01267  Uiso   1.00
H11    H     0.69170   0.07690   0.49280   0.01267  Uiso   1.00
H12    H     0.54420   0.81510   0.39580   0.01267  Uiso   1.00
C1     C     0.65160   0.98720   0.98320   0.01267  Uiso   1.00
C2     C     0.58970   0.91500   0.08960   0.01267  Uiso   1.00
C3     C     0.55920   0.07040   0.89230   0.01267  Uiso   1.00
C4     C     0.80970   0.97620   0.96840   0.01267  Uiso   1.00
C5     C     0.60890   0.44780   0.58040   0.01267  Uiso   1.00
C6     C     0.46220   0.44830   0.62420   0.01267  Uiso   1.00
C7     C     0.64370   0.50110   0.45480   0.01267  Uiso   1.00
C8     C     0.35620   0.06510   0.56750   0.01267  Uiso   1.00
C9     C     0.38520   0.95450   0.50460   0.01267  Uiso   1.00
C10    C     0.47310   0.11040   0.56230   0.01267  Uiso   1.00
C11    C     0.20500   0.13220   0.64710   0.01267  Uiso   1.00
C12    C     0.72340   0.38830   0.66440   0.01267  Uiso   1.00
C13    C     0.34840   0.01280   0.01680   0.01267  Uiso   1.00
C14    C     0.41030   0.08500   0.91040   0.01267  Uiso   1.00
C15    C     0.44080   0.92960   0.10770   0.01267  Uiso   1.00
C16    C     0.19030   0.02380   0.03160   0.01267  Uiso   1.00
C17    C     0.39110   0.55220   0.41960   0.01267  Uiso   1.00
C18    C     0.53780   0.55170   0.37580   0.01267  Uiso   1.00
C19    C     0.35630   0.49890   0.54520   0.01267  Uiso   1.00
C20    C     0.64380   0.93490   0.43250   0.01267  Uiso   1.00
C21    C     0.61480   0.04550   0.49540   0.01267  Uiso   1.00
C22    C     0.52690   0.88960   0.43770   0.01267  Uiso   1.00
C23    C     0.79500   0.86780   0.35290   0.01267  Uiso   1.00
C24    C     0.27660   0.61170   0.33560   0.01267  Uiso   1.00
O1     O     0.85760   0.04770   0.87250   0.01267  Uiso   1.00
O2     O     0.88510   0.89810   0.05230   0.01267  Uiso   1.00
O3     O     0.85870   0.37500   0.62430   0.01267  Uiso   1.00
O4     O     0.17190   0.24790   0.68260   0.01267  Uiso   1.00
O5     O     0.11570   0.06510   0.68060   0.01267  Uiso   1.00
O6     O     0.68850   0.35100   0.78090   0.01267  Uiso   1.00
O7     O     0.14240   0.95230   0.12750   0.01267  Uiso   1.00
O8     O     0.11490   0.10190   0.94770   0.01267  Uiso   1.00
O9     O     0.14130   0.62500   0.37570   0.01267  Uiso   1.00
O10    O     0.82810   0.75210   0.31740   0.01267  Uiso   1.00
O11    O     0.88430   0.93490   0.31940   0.01267  Uiso   1.00
O12    O     0.31150   0.64900   0.21910   0.01267  Uiso   1.00
