data_SUNJOB_clean
_audit_creation_date              2014-07-02
_audit_creation_method            'Materials Studio'
_symmetry_space_group_name_H-M    'P1'
_symmetry_Int_Tables_number       1
_symmetry_cell_setting            triclinic
loop_
_symmetry_equiv_pos_as_xyz
  x,y,z
_cell_length_a                    9.8113
_cell_length_b                    10.4188
_cell_length_c                    11.0768
_cell_angle_alpha                 76.7210
_cell_angle_beta                  76.2420
_cell_angle_gamma                 65.9320
loop_
_atom_site_label
_atom_site_type_symbol
_atom_site_fract_x
_atom_site_fract_y
_atom_site_fract_z
_atom_site_U_iso_or_equiv
_atom_site_adp_type
_atom_site_occupancy
Ho1    Ho    0.94522   0.22825   0.32292   0.01267  Uiso   1.00
Ho2    Ho    0.05478   0.77175   0.67708   0.01267  Uiso   1.00
H1     H     0.45530   0.18500   0.10490   0.01267  Uiso   1.00
H2     H     0.30750   0.92220   0.00680   0.01267  Uiso   1.00
H3     H     0.43580   0.41560   0.20900   0.01267  Uiso   1.00
H4     H     0.74080   0.50250   0.92340   0.01267  Uiso   1.00
H5     H     0.39950   0.88240   0.67960   0.01267  Uiso   1.00
H6     H     0.34960   0.14180   0.34970   0.01267  Uiso   1.00
H7     H     0.54470   0.81500   0.89510   0.01267  Uiso   1.00
H8     H     0.69250   0.07780   0.99320   0.01267  Uiso   1.00
H9     H     0.56420   0.58440   0.79100   0.01267  Uiso   1.00
H10    H     0.25920   0.49750   0.07660   0.01267  Uiso   1.00
H11    H     0.60050   0.11760   0.32040   0.01267  Uiso   1.00
H12    H     0.65040   0.85820   0.65030   0.01267  Uiso   1.00
C1     C     0.35650   0.06590   0.06720   0.01267  Uiso   1.00
C2     C     0.47300   0.11080   0.06270   0.01267  Uiso   1.00
C3     C     0.38450   0.95370   0.00410   0.01267  Uiso   1.00
C4     C     0.20520   0.13230   0.14640   0.01267  Uiso   1.00
C5     C     0.60790   0.44830   0.07930   0.01267  Uiso   1.00
C6     C     0.46150   0.44910   0.12490   0.01267  Uiso   1.00
C7     C     0.64460   0.50100   0.95410   0.01267  Uiso   1.00
C8     C     0.72420   0.38950   0.16540   0.01267  Uiso   1.00
C9     C     0.35070   0.01330   0.51680   0.01267  Uiso   1.00
C10    C     0.44020   0.92930   0.60740   0.01267  Uiso   1.00
C11    C     0.40990   0.08480   0.40970   0.01267  Uiso   1.00
C12    C     0.19030   0.02300   0.53280   0.01267  Uiso   1.00
C13    C     0.64350   0.93410   0.93280   0.01267  Uiso   1.00
C14    C     0.52700   0.88920   0.93730   0.01267  Uiso   1.00
C15    C     0.61550   0.04630   0.99590   0.01267  Uiso   1.00
C16    C     0.79480   0.86770   0.85360   0.01267  Uiso   1.00
C17    C     0.39210   0.55170   0.92070   0.01267  Uiso   1.00
C18    C     0.53850   0.55090   0.87510   0.01267  Uiso   1.00
C19    C     0.35540   0.49900   0.04590   0.01267  Uiso   1.00
C20    C     0.27580   0.61050   0.83460   0.01267  Uiso   1.00
C21    C     0.64930   0.98670   0.48320   0.01267  Uiso   1.00
C22    C     0.55980   0.07070   0.39260   0.01267  Uiso   1.00
C23    C     0.59010   0.91520   0.59030   0.01267  Uiso   1.00
C24    C     0.80970   0.97700   0.46720   0.01267  Uiso   1.00
O1     O     0.11570   0.06570   0.17882   0.01267  Uiso   1.00
O2     O     0.17280   0.24810   0.18212   0.01267  Uiso   1.00
O3     O     0.68620   0.35050   0.27942   0.01267  Uiso   1.00
O4     O     0.85910   0.37580   0.12267   0.01267  Uiso   1.00
O5     O     0.14190   0.95200   0.62777   0.01267  Uiso   1.00
O6     O     0.11550   0.10260   0.44864   0.01267  Uiso   1.00
O7     O     0.88430   0.93430   0.82118   0.01267  Uiso   1.00
O8     O     0.82720   0.75190   0.81788   0.01267  Uiso   1.00
O9     O     0.31380   0.64950   0.72058   0.01267  Uiso   1.00
O10    O     0.14090   0.62420   0.87733   0.01267  Uiso   1.00
O11    O     0.85810   0.04800   0.37223   0.01267  Uiso   1.00
O12    O     0.88450   0.89740   0.55136   0.01267  Uiso   1.00
