data_SUNJIV_clean
_audit_creation_date              2014-07-02
_audit_creation_method            'Materials Studio'
_symmetry_space_group_name_H-M    'P1'
_symmetry_Int_Tables_number       1
_symmetry_cell_setting            triclinic
loop_
_symmetry_equiv_pos_as_xyz
  x,y,z
_cell_length_a                    9.8283
_cell_length_b                    10.4362
_cell_length_c                    11.0760
_cell_angle_alpha                 76.8940
_cell_angle_beta                  76.2960
_cell_angle_gamma                 65.9990
loop_
_atom_site_label
_atom_site_type_symbol
_atom_site_fract_x
_atom_site_fract_y
_atom_site_fract_z
_atom_site_U_iso_or_equiv
_atom_site_adp_type
_atom_site_occupancy
Dy1    Dy    0.94493   0.22808   0.82291   0.01267  Uiso   1.00
Dy2    Dy    0.05507   0.77192   0.17709   0.01267  Uiso   1.00
H1     H     0.30780   0.92220   0.50630   0.01267  Uiso   1.00
H2     H     0.45520   0.18490   0.60490   0.01267  Uiso   1.00
H3     H     0.43570   0.41490   0.70900   0.01267  Uiso   1.00
H4     H     0.74000   0.50230   0.42380   0.01267  Uiso   1.00
H5     H     0.60030   0.11820   0.82100   0.01267  Uiso   1.00
H6     H     0.64940   0.85960   0.15010   0.01267  Uiso   1.00
H7     H     0.69220   0.07780   0.49370   0.01267  Uiso   1.00
H8     H     0.54480   0.81510   0.39510   0.01267  Uiso   1.00
H9     H     0.56430   0.58510   0.29100   0.01267  Uiso   1.00
H10    H     0.26000   0.49770   0.57620   0.01267  Uiso   1.00
H11    H     0.39970   0.88180   0.17900   0.01267  Uiso   1.00
H12    H     0.35060   0.14040   0.84990   0.01267  Uiso   1.00
C1     C     0.35690   0.06510   0.56740   0.01267  Uiso   1.00
C2     C     0.38460   0.95350   0.50390   0.01267  Uiso   1.00
C3     C     0.47310   0.11060   0.56270   0.01267  Uiso   1.00
C4     C     0.20540   0.13160   0.64560   0.01267  Uiso   1.00
C5     C     0.60800   0.44860   0.57930   0.01267  Uiso   1.00
C6     C     0.46150   0.44870   0.62510   0.01267  Uiso   1.00
C7     C     0.64390   0.50100   0.45440   0.01267  Uiso   1.00
C8     C     0.72360   0.38930   0.66510   0.01267  Uiso   1.00
C9     C     0.64930   0.98610   0.98300   0.01267  Uiso   1.00
C10    C     0.56000   0.07080   0.89270   0.01267  Uiso   1.00
C11    C     0.58950   0.91590   0.08980   0.01267  Uiso   1.00
C12    C     0.80960   0.97680   0.96690   0.01267  Uiso   1.00
C13    C     0.64310   0.93490   0.43260   0.01267  Uiso   1.00
C14    C     0.61540   0.04650   0.49610   0.01267  Uiso   1.00
C15    C     0.52690   0.88940   0.43730   0.01267  Uiso   1.00
C16    C     0.79460   0.86840   0.35440   0.01267  Uiso   1.00
C17    C     0.39200   0.55140   0.42070   0.01267  Uiso   1.00
C18    C     0.53850   0.55130   0.37490   0.01267  Uiso   1.00
C19    C     0.35610   0.49900   0.54560   0.01267  Uiso   1.00
C20    C     0.27640   0.61070   0.33490   0.01267  Uiso   1.00
C21    C     0.35070   0.01390   0.01700   0.01267  Uiso   1.00
C22    C     0.44000   0.92920   0.10730   0.01267  Uiso   1.00
C23    C     0.41050   0.08410   0.91020   0.01267  Uiso   1.00
C24    C     0.19040   0.02320   0.03310   0.01267  Uiso   1.00
O1     O     0.17234   0.24758   0.68167   0.01267  Uiso   1.00
O2     O     0.11670   0.06470   0.67817   0.01267  Uiso   1.00
O3     O     0.68510   0.35000   0.77960   0.01267  Uiso   1.00
O4     O     0.85800   0.37680   0.62319   0.01267  Uiso   1.00
O5     O     0.85732   0.04738   0.87230   0.01267  Uiso   1.00
O6     O     0.88400   0.89770   0.05058   0.01267  Uiso   1.00
O7     O     0.82766   0.75242   0.31833   0.01267  Uiso   1.00
O8     O     0.88330   0.93530   0.32183   0.01267  Uiso   1.00
O9     O     0.31490   0.65000   0.22040   0.01267  Uiso   1.00
O10    O     0.14200   0.62320   0.37681   0.01267  Uiso   1.00
O11    O     0.14268   0.95262   0.12770   0.01267  Uiso   1.00
O12    O     0.11600   0.10230   0.94942   0.01267  Uiso   1.00
