data_image0
_cell_length_a       13.9508
_cell_length_b       13.9508
_cell_length_c       22.402
_cell_angle_alpha    90
_cell_angle_beta     90
_cell_angle_gamma    120

_symmetry_space_group_name_H-M    "P 1"
_symmetry_int_tables_number       1

loop_
  _symmetry_equiv_pos_as_xyz
  'x, y, z'

loop_
  _atom_site_label
  _atom_site_occupancy
  _atom_site_fract_x
  _atom_site_fract_y
  _atom_site_fract_z
  _atom_site_thermal_displace_type
  _atom_site_B_iso_or_equiv
  _atom_site_type_symbol
  O1       1.0000 0.43240  0.55510  0.09120  Biso   1.000  O
  O2       1.0000 0.24910  0.44050  0.10910  Biso   1.000  O
  C1       1.0000 0.33730  0.46860  0.08280  Biso   1.000  C
  C2       1.0000 0.32930  0.38860  0.03590  Biso   1.000  C
  C3       1.0000 0.25030  0.28960  0.02340  Biso   1.000  C
  H1       1.0000 0.18130  0.25170  0.04170  Biso   1.000  H
  O3       1.0000 0.09907  0.88843  0.42453  Biso   1.000  O
  O4       1.0000 0.91577  0.77383  0.44243  Biso   1.000  O
  C4       1.0000 0.00397  0.80193  0.41613  Biso   1.000  C
  C5       1.0000 0.99597  0.72193  0.36923  Biso   1.000  C
  C6       1.0000 0.91697  0.62293  0.35673  Biso   1.000  C
  H2       1.0000 0.84797  0.58503  0.37503  Biso   1.000  H
  O5       1.0000 0.76573  0.22177  0.75787  Biso   1.000  O
  O6       1.0000 0.58243  0.10717  0.77577  Biso   1.000  O
  C7       1.0000 0.67063  0.13527  0.74947  Biso   1.000  C
  C8       1.0000 0.66263  0.05527  0.70257  Biso   1.000  C
  C9       1.0000 0.58363  0.95627  0.69007  Biso   1.000  C
  H3       1.0000 0.51463  0.91837  0.70837  Biso   1.000  H
  O7       1.0000 0.44490  0.87730  0.09120  Biso   1.000  O
  O8       1.0000 0.55950  0.80860  0.10910  Biso   1.000  O
  C10      1.0000 0.53140  0.86870  0.08280  Biso   1.000  C
  C11      1.0000 0.61140  0.94070  0.03590  Biso   1.000  C
  C12      1.0000 0.71040  0.96070  0.02340  Biso   1.000  C
  H4       1.0000 0.74830  0.92960  0.04170  Biso   1.000  H
  O9       1.0000 0.11157  0.21063  0.42453  Biso   1.000  O
  O10      1.0000 0.22617  0.14193  0.44243  Biso   1.000  O
  C13      1.0000 0.19807  0.20203  0.41613  Biso   1.000  C
  C14      1.0000 0.27807  0.27403  0.36923  Biso   1.000  C
  C15      1.0000 0.37707  0.29403  0.35673  Biso   1.000  C
  H5       1.0000 0.41497  0.26293  0.37503  Biso   1.000  H
  O11      1.0000 0.77823  0.54397  0.75787  Biso   1.000  O
  O12      1.0000 0.89283  0.47527  0.77577  Biso   1.000  O
  C16      1.0000 0.86473  0.53537  0.74947  Biso   1.000  C
  C17      1.0000 0.94473  0.60737  0.70257  Biso   1.000  C
  C18      1.0000 0.04373  0.62737  0.69007  Biso   1.000  C
  H6       1.0000 0.08163  0.59627  0.70837  Biso   1.000  H
  O13      1.0000 0.12270  0.56760  0.09120  Biso   1.000  O
  O14      1.0000 0.19140  0.75090  0.10910  Biso   1.000  O
  C19      1.0000 0.13130  0.66270  0.08280  Biso   1.000  C
  C20      1.0000 0.05930  0.67070  0.03590  Biso   1.000  C
  C21      1.0000 0.03930  0.74970  0.02340  Biso   1.000  C
  H7       1.0000 0.07040  0.81870  0.04170  Biso   1.000  H
  O15      1.0000 0.78937  0.90093  0.42453  Biso   1.000  O
  O16      1.0000 0.85807  0.08423  0.44243  Biso   1.000  O
  C22      1.0000 0.79797  0.99603  0.41613  Biso   1.000  C
  C23      1.0000 0.72597  0.00403  0.36923  Biso   1.000  C
  C24      1.0000 0.70597  0.08303  0.35673  Biso   1.000  C
  H8       1.0000 0.73707  0.15203  0.37503  Biso   1.000  H
  O17      1.0000 0.45603  0.23427  0.75787  Biso   1.000  O
  O18      1.0000 0.52473  0.41757  0.77577  Biso   1.000  O
  C25      1.0000 0.46463  0.32937  0.74947  Biso   1.000  C
  C26      1.0000 0.39263  0.33737  0.70257  Biso   1.000  C
  C27      1.0000 0.37263  0.41637  0.69007  Biso   1.000  C
  H9       1.0000 0.40373  0.48537  0.70837  Biso   1.000  H
  O19      1.0000 0.55510  0.43240  0.90880  Biso   1.000  O
  O20      1.0000 0.44050  0.24910  0.89090  Biso   1.000  O
  C28      1.0000 0.46860  0.33730  0.91720  Biso   1.000  C
  C29      1.0000 0.38860  0.32930  0.96410  Biso   1.000  C
  C30      1.0000 0.28960  0.25030  0.97660  Biso   1.000  C
  H10      1.0000 0.25170  0.18130  0.95830  Biso   1.000  H
  O21      1.0000 0.22177  0.76573  0.24213  Biso   1.000  O
  O22      1.0000 0.10717  0.58243  0.22423  Biso   1.000  O
  C31      1.0000 0.13527  0.67063  0.25053  Biso   1.000  C
  C32      1.0000 0.05527  0.66263  0.29743  Biso   1.000  C
  C33      1.0000 0.95627  0.58363  0.30993  Biso   1.000  C
  H11      1.0000 0.91837  0.51463  0.29163  Biso   1.000  H
  O23      1.0000 0.88843  0.09907  0.57547  Biso   1.000  O
  O24      1.0000 0.77383  0.91577  0.55757  Biso   1.000  O
  C34      1.0000 0.80193  0.00397  0.58387  Biso   1.000  C
  C35      1.0000 0.72193  0.99597  0.63077  Biso   1.000  C
  C36      1.0000 0.62293  0.91697  0.64327  Biso   1.000  C
  H12      1.0000 0.58503  0.84797  0.62497  Biso   1.000  H
  O25      1.0000 0.87730  0.44490  0.90880  Biso   1.000  O
  O26      1.0000 0.80860  0.55950  0.89090  Biso   1.000  O
  C37      1.0000 0.86870  0.53140  0.91720  Biso   1.000  C
  C38      1.0000 0.94070  0.61140  0.96410  Biso   1.000  C
  C39      1.0000 0.96070  0.71040  0.97660  Biso   1.000  C
  H13      1.0000 0.92960  0.74830  0.95830  Biso   1.000  H
  O27      1.0000 0.54397  0.77823  0.24213  Biso   1.000  O
  O28      1.0000 0.47527  0.89283  0.22423  Biso   1.000  O
  C40      1.0000 0.53537  0.86473  0.25053  Biso   1.000  C
  C41      1.0000 0.60737  0.94473  0.29743  Biso   1.000  C
  C42      1.0000 0.62737  0.04373  0.30993  Biso   1.000  C
  H14      1.0000 0.59627  0.08163  0.29163  Biso   1.000  H
  O29      1.0000 0.21063  0.11157  0.57547  Biso   1.000  O
  O30      1.0000 0.14193  0.22617  0.55757  Biso   1.000  O
  C43      1.0000 0.20203  0.19807  0.58387  Biso   1.000  C
  C44      1.0000 0.27403  0.27807  0.63077  Biso   1.000  C
  C45      1.0000 0.29403  0.37707  0.64327  Biso   1.000  C
  H15      1.0000 0.26293  0.41497  0.62497  Biso   1.000  H
  O31      1.0000 0.56760  0.12270  0.90880  Biso   1.000  O
  O32      1.0000 0.75090  0.19140  0.89090  Biso   1.000  O
  C46      1.0000 0.66270  0.13130  0.91720  Biso   1.000  C
  C47      1.0000 0.67070  0.05930  0.96410  Biso   1.000  C
  C48      1.0000 0.74970  0.03930  0.97660  Biso   1.000  C
  H16      1.0000 0.81870  0.07040  0.95830  Biso   1.000  H
  O33      1.0000 0.23427  0.45603  0.24213  Biso   1.000  O
  O34      1.0000 0.41757  0.52473  0.22423  Biso   1.000  O
  C49      1.0000 0.32937  0.46463  0.25053  Biso   1.000  C
  C50      1.0000 0.33737  0.39263  0.29743  Biso   1.000  C
  C51      1.0000 0.41637  0.37263  0.30993  Biso   1.000  C
  H17      1.0000 0.48537  0.40373  0.29163  Biso   1.000  H
  O35      1.0000 0.90093  0.78937  0.57547  Biso   1.000  O
  O36      1.0000 0.08423  0.85807  0.55757  Biso   1.000  O
  C52      1.0000 0.99603  0.79797  0.58387  Biso   1.000  C
  C53      1.0000 0.00403  0.72597  0.63077  Biso   1.000  C
  C54      1.0000 0.08303  0.70597  0.64327  Biso   1.000  C
  H18      1.0000 0.15203  0.73707  0.62497  Biso   1.000  H
  In1      1.0000 0.47962  0.66667  0.16667  Biso   1.000  In
  In2      1.0000 0.14629  0.00000  0.50000  Biso   1.000  In
  In3      1.0000 0.33333  0.81296  0.16667  Biso   1.000  In
  In4      1.0000 0.00000  0.14629  0.50000  Biso   1.000  In
  In5      1.0000 0.18704  0.52038  0.16667  Biso   1.000  In
  In6      1.0000 0.85371  0.85371  0.50000  Biso   1.000  In
  In7      1.0000 0.66667  0.47962  0.83333  Biso   1.000  In
  In8      1.0000 0.81296  0.33333  0.83333  Biso   1.000  In
  In9      1.0000 0.52038  0.18704  0.83333  Biso   1.000  In
  O37      1.0000 0.42150  0.42150  0.00000  Biso   1.000  O
  O38      1.0000 0.08817  0.75483  0.33333  Biso   1.000  O
  O39      1.0000 0.75483  0.08817  0.66667  Biso   1.000  O
  O40      1.0000 0.57850  0.00000  0.00000  Biso   1.000  O
  O41      1.0000 0.24517  0.33333  0.33333  Biso   1.000  O
  O42      1.0000 0.91183  0.66667  0.66667  Biso   1.000  O
  O43      1.0000 0.00000  0.57850  0.00000  Biso   1.000  O
  O44      1.0000 0.66667  0.91183  0.33333  Biso   1.000  O
  O45      1.0000 0.33333  0.24517  0.66667  Biso   1.000  O
  O46      1.0000 0.33333  0.66667  0.16667  Biso   1.000  O
  O47      1.0000 0.00000  0.00000  0.50000  Biso   1.000  O
  O48      1.0000 0.66667  0.33333  0.83333  Biso   1.000  O
