data_image0
_cell_length_a       10.7435
_cell_length_b       21.4819
_cell_length_c       10.7721
_cell_angle_alpha    90
_cell_angle_beta     105.113
_cell_angle_gamma    90

_symmetry_space_group_name_H-M    "P 1"
_symmetry_int_tables_number       1

loop_
  _symmetry_equiv_pos_as_xyz
  'x, y, z'

loop_
  _atom_site_label
  _atom_site_occupancy
  _atom_site_fract_x
  _atom_site_fract_y
  _atom_site_fract_z
  _atom_site_thermal_displace_type
  _atom_site_B_iso_or_equiv
  _atom_site_type_symbol
  In1      1.0000 0.32147  0.05807  0.18607  Biso   1.000  In
  O1       1.0000 0.43910  0.99006  0.30130  Biso   1.000  O
  O2       1.0000 0.20060  0.98990  0.07640  Biso   1.000  O
  O3       1.0000 0.20900  0.06516  0.32430  Biso   1.000  O
  O4       1.0000 0.31690  0.03503  0.52200  Biso   1.000  O
  O5       1.0000 0.03800  0.03902  0.82730  Biso   1.000  O
  O6       1.0000 0.85520  0.09424  0.75790  Biso   1.000  O
  O7       1.0000 0.99740  0.09392  0.07280  Biso   1.000  O
  O8       1.0000 0.19660  0.13321  0.09600  Biso   1.000  O
  O9       1.0000 0.44260  0.13327  0.28690  Biso   1.000  O
  O10      1.0000 0.56320  0.09353  0.47260  Biso   1.000  O
  O11      1.0000 0.10380  0.06302  0.60820  Biso   1.000  O
  C1       1.0000 0.21780  0.05550  0.44110  Biso   1.000  C
  C2       1.0000 0.10110  0.06970  0.48140  Biso   1.000  C
  C3       1.0000 0.98300  0.08690  0.41360  Biso   1.000  C
  H1       1.0000 0.95630  0.09320  0.32520  Biso   1.000  H
  C4       1.0000 0.90700  0.09370  0.50150  Biso   1.000  C
  H2       1.0000 0.82150  0.10650  0.48350  Biso   1.000  H
  C5       1.0000 0.98300  0.07790  0.61530  Biso   1.000  C
  C6       1.0000 0.95550  0.07090  0.74440  Biso   1.000  C
  C7       1.0000 0.07680  0.13720  0.07560  Biso   1.000  C
  C8       1.0000 0.01810  0.19910  0.04970  Biso   1.000  C
  C9       1.0000 0.90080  0.21760  0.96790  Biso   1.000  C
  H3       1.0000 0.83540  0.19170  0.92220  Biso   1.000  H
  C10      1.0000 0.52210  0.13750  0.39520  Biso   1.000  C
  C11      1.0000 0.57450  0.19940  0.44110  Biso   1.000  C
  C12      1.0000 0.66300  0.21750  0.54750  Biso   1.000  C
  H4       1.0000 0.71450  0.19170  0.60940  Biso   1.000  H
  C13      1.0000 0.89580  0.21730  0.06600  Biso   1.000  C
  H5       1.0000 0.82950  0.19120  0.07440  Biso   1.000  H
  In2      1.0000 0.67853  0.55807  0.81393  Biso   1.000  In
  O12      1.0000 0.56090  0.49006  0.69870  Biso   1.000  O
  O13      1.0000 0.79940  0.48990  0.92360  Biso   1.000  O
  O14      1.0000 0.79100  0.56516  0.67570  Biso   1.000  O
  O15      1.0000 0.68310  0.53503  0.47800  Biso   1.000  O
  O16      1.0000 0.96200  0.53902  0.17270  Biso   1.000  O
  O17      1.0000 0.14480  0.59424  0.24210  Biso   1.000  O
  O18      1.0000 0.00260  0.59392  0.92720  Biso   1.000  O
  O19      1.0000 0.80340  0.63321  0.90400  Biso   1.000  O
  O20      1.0000 0.55740  0.63327  0.71310  Biso   1.000  O
  O21      1.0000 0.43680  0.59353  0.52740  Biso   1.000  O
  O22      1.0000 0.89620  0.56302  0.39180  Biso   1.000  O
  C14      1.0000 0.78220  0.55550  0.55890  Biso   1.000  C
  C15      1.0000 0.89890  0.56970  0.51860  Biso   1.000  C
  C16      1.0000 0.01700  0.58690  0.58640  Biso   1.000  C
  H6       1.0000 0.04370  0.59320  0.67480  Biso   1.000  H
  C17      1.0000 0.09300  0.59370  0.49850  Biso   1.000  C
  H7       1.0000 0.17850  0.60650  0.51650  Biso   1.000  H
  C18      1.0000 0.01700  0.57790  0.38470  Biso   1.000  C
  C19      1.0000 0.04450  0.57090  0.25560  Biso   1.000  C
  C20      1.0000 0.92320  0.63720  0.92440  Biso   1.000  C
  C21      1.0000 0.98190  0.69910  0.95030  Biso   1.000  C
  C22      1.0000 0.09920  0.71760  0.03210  Biso   1.000  C
  H8       1.0000 0.16460  0.69170  0.07780  Biso   1.000  H
  C23      1.0000 0.47790  0.63750  0.60480  Biso   1.000  C
  C24      1.0000 0.42550  0.69940  0.55890  Biso   1.000  C
  C25      1.0000 0.33700  0.71750  0.45250  Biso   1.000  C
  H9       1.0000 0.28550  0.69170  0.39060  Biso   1.000  H
  C26      1.0000 0.10420  0.71730  0.93400  Biso   1.000  C
  H10      1.0000 0.17050  0.69120  0.92560  Biso   1.000  H
  In3      1.0000 0.67853  0.94193  0.81393  Biso   1.000  In
  O23      1.0000 0.56090  0.00994  0.69870  Biso   1.000  O
  O24      1.0000 0.79940  0.01010  0.92360  Biso   1.000  O
  O25      1.0000 0.79100  0.93484  0.67570  Biso   1.000  O
  O26      1.0000 0.68310  0.96497  0.47800  Biso   1.000  O
  O27      1.0000 0.96200  0.96098  0.17270  Biso   1.000  O
  O28      1.0000 0.14480  0.90576  0.24210  Biso   1.000  O
  O29      1.0000 0.00260  0.90608  0.92720  Biso   1.000  O
  O30      1.0000 0.80340  0.86679  0.90400  Biso   1.000  O
  O31      1.0000 0.55740  0.86673  0.71310  Biso   1.000  O
  O32      1.0000 0.43680  0.90647  0.52740  Biso   1.000  O
  O33      1.0000 0.89620  0.93698  0.39180  Biso   1.000  O
  C27      1.0000 0.78220  0.94450  0.55890  Biso   1.000  C
  C28      1.0000 0.89890  0.93030  0.51860  Biso   1.000  C
  C29      1.0000 0.01700  0.91310  0.58640  Biso   1.000  C
  H11      1.0000 0.04370  0.90680  0.67480  Biso   1.000  H
  C30      1.0000 0.09300  0.90630  0.49850  Biso   1.000  C
  H12      1.0000 0.17850  0.89350  0.51650  Biso   1.000  H
  C31      1.0000 0.01700  0.92210  0.38470  Biso   1.000  C
  C32      1.0000 0.04450  0.92910  0.25560  Biso   1.000  C
  C33      1.0000 0.92320  0.86280  0.92440  Biso   1.000  C
  C34      1.0000 0.98190  0.80090  0.95030  Biso   1.000  C
  C35      1.0000 0.09920  0.78240  0.03210  Biso   1.000  C
  H13      1.0000 0.16460  0.80830  0.07780  Biso   1.000  H
  C36      1.0000 0.47790  0.86250  0.60480  Biso   1.000  C
  C37      1.0000 0.42550  0.80060  0.55890  Biso   1.000  C
  C38      1.0000 0.33700  0.78250  0.45250  Biso   1.000  C
  H14      1.0000 0.28550  0.80830  0.39060  Biso   1.000  H
  C39      1.0000 0.10420  0.78270  0.93400  Biso   1.000  C
  H15      1.0000 0.17050  0.80880  0.92560  Biso   1.000  H
  In4      1.0000 0.32147  0.44193  0.18607  Biso   1.000  In
  O34      1.0000 0.43910  0.50994  0.30130  Biso   1.000  O
  O35      1.0000 0.20060  0.51010  0.07640  Biso   1.000  O
  O36      1.0000 0.20900  0.43484  0.32430  Biso   1.000  O
  O37      1.0000 0.31690  0.46497  0.52200  Biso   1.000  O
  O38      1.0000 0.03800  0.46098  0.82730  Biso   1.000  O
  O39      1.0000 0.85520  0.40576  0.75790  Biso   1.000  O
  O40      1.0000 0.99740  0.40608  0.07280  Biso   1.000  O
  O41      1.0000 0.19660  0.36679  0.09600  Biso   1.000  O
  O42      1.0000 0.44260  0.36673  0.28690  Biso   1.000  O
  O43      1.0000 0.56320  0.40647  0.47260  Biso   1.000  O
  O44      1.0000 0.10380  0.43698  0.60820  Biso   1.000  O
  C40      1.0000 0.21780  0.44450  0.44110  Biso   1.000  C
  C41      1.0000 0.10110  0.43030  0.48140  Biso   1.000  C
  C42      1.0000 0.98300  0.41310  0.41360  Biso   1.000  C
  H16      1.0000 0.95630  0.40680  0.32520  Biso   1.000  H
  C43      1.0000 0.90700  0.40630  0.50150  Biso   1.000  C
  H17      1.0000 0.82150  0.39350  0.48350  Biso   1.000  H
  C44      1.0000 0.98300  0.42210  0.61530  Biso   1.000  C
  C45      1.0000 0.95550  0.42910  0.74440  Biso   1.000  C
  C46      1.0000 0.07680  0.36280  0.07560  Biso   1.000  C
  C47      1.0000 0.01810  0.30090  0.04970  Biso   1.000  C
  C48      1.0000 0.90080  0.28240  0.96790  Biso   1.000  C
  H18      1.0000 0.83540  0.30830  0.92220  Biso   1.000  H
  C49      1.0000 0.52210  0.36250  0.39520  Biso   1.000  C
  C50      1.0000 0.57450  0.30060  0.44110  Biso   1.000  C
  C51      1.0000 0.66300  0.28250  0.54750  Biso   1.000  C
  H19      1.0000 0.71450  0.30830  0.60940  Biso   1.000  H
  C52      1.0000 0.89580  0.28270  0.06600  Biso   1.000  C
  H20      1.0000 0.82950  0.30880  0.07440  Biso   1.000  H
  In5      1.0000 0.00000  0.00000  0.00000  Biso   1.000  In
  In6      1.0000 0.00000  0.50000  0.00000  Biso   1.000  In
  In7      1.0000 0.50000  0.00000  0.50000  Biso   1.000  In
  In8      1.0000 0.50000  0.50000  0.50000  Biso   1.000  In
  O45      1.0000 0.09540  0.25000  0.08010  Biso   1.000  O
  O46      1.0000 0.51750  0.25000  0.37130  Biso   1.000  O
  O47      1.0000 0.90460  0.75000  0.91990  Biso   1.000  O
  O48      1.0000 0.48250  0.75000  0.62870  Biso   1.000  O
