data_image0
_cell_length_a       26.323
_cell_length_b       14.696
_cell_length_c       26.63
_cell_angle_alpha    90
_cell_angle_beta     157.747
_cell_angle_gamma    90

_symmetry_space_group_name_H-M    "P 1"
_symmetry_int_tables_number       1

loop_
  _symmetry_equiv_pos_as_xyz
  'x, y, z'

loop_
  _atom_site_label
  _atom_site_occupancy
  _atom_site_fract_x
  _atom_site_fract_y
  _atom_site_fract_z
  _atom_site_thermal_displace_type
  _atom_site_B_iso_or_equiv
  _atom_site_type_symbol
  Co1      1.0000 0.40553  0.45311  0.47665  Biso   1.000  Co
  O1       1.0000 0.28130  0.40310  0.31180  Biso   1.000  O
  O2       1.0000 0.13730  0.45170  0.23780  Biso   1.000  O
  O3       1.0000 0.58380  0.42190  0.61220  Biso   1.000  O
  O4       1.0000 0.64910  0.46180  0.74840  Biso   1.000  O
  N1       1.0000 0.37290  0.37140  0.50720  Biso   1.000  N
  N2       1.0000 0.06950  0.22650  0.96210  Biso   1.000  N
  N3       1.0000 0.10960  0.08050  0.01150  Biso   1.000  N
  C1       1.0000 0.16220  0.41820  0.21900  Biso   1.000  C
  C2       1.0000 0.04990  0.39560  0.08040  Biso   1.000  C
  C3       1.0000 0.91850  0.41700  0.97330  Biso   1.000  C
  H1       1.0000 0.90040  0.44130  0.98830  Biso   1.000  H
  C4       1.0000 0.81440  0.40230  0.84450  Biso   1.000  C
  C5       1.0000 0.67330  0.43180  0.72830  Biso   1.000  C
  C6       1.0000 0.84310  0.36660  0.82420  Biso   1.000  C
  H2       1.0000 0.77320  0.35650  0.73780  Biso   1.000  H
  C7       1.0000 0.97290  0.34520  0.92830  Biso   1.000  C
  C8       1.0000 0.07530  0.36120  0.05690  Biso   1.000  C
  H3       1.0000 0.16340  0.34790  0.12850  Biso   1.000  H
  C9       1.0000 0.00410  0.31560  0.90440  Biso   1.000  C
  H4       1.0000 0.92150  0.31320  0.80960  Biso   1.000  H
  H5       1.0000 0.06220  0.36040  0.94190  Biso   1.000  H
  C10      1.0000 0.17580  0.20360  0.02930  Biso   1.000  C
  H6       1.0000 0.22210  0.24170  0.04990  Biso   1.000  H
  C11      1.0000 0.19950  0.11480  0.05960  Biso   1.000  C
  H7       1.0000 0.26760  0.08120  0.10670  Biso   1.000  H
  C12      1.0000 0.03280  0.15180  0.95290  Biso   1.000  C
  H8       1.0000 0.96190  0.14940  0.91080  Biso   1.000  H
  C13      1.0000 0.31600  0.29000  0.45040  Biso   1.000  C
  H9       1.0000 0.30890  0.26490  0.41190  Biso   1.000  H
  C14      1.0000 0.26700  0.24110  0.44580  Biso   1.000  C
  H10      1.0000 0.22730  0.18470  0.40400  Biso   1.000  H
  C15      1.0000 0.27660  0.27520  0.50260  Biso   1.000  C
  C16      1.0000 0.33950  0.35720  0.56490  Biso   1.000  C
  H11      1.0000 0.35110  0.38250  0.60720  Biso   1.000  H
  C17      1.0000 0.38580  0.40270  0.56580  Biso   1.000  C
  H12      1.0000 0.42850  0.45840  0.60950  Biso   1.000  H
  Co2      1.0000 0.09447  0.95311  0.02335  Biso   1.000  Co
  O5       1.0000 0.21870  0.90310  0.18820  Biso   1.000  O
  O6       1.0000 0.36270  0.95170  0.26220  Biso   1.000  O
  O7       1.0000 0.91620  0.92190  0.88780  Biso   1.000  O
  O8       1.0000 0.85090  0.96180  0.75160  Biso   1.000  O
  N4       1.0000 0.12710  0.87140  0.99280  Biso   1.000  N
  N5       1.0000 0.43050  0.72650  0.53790  Biso   1.000  N
  N6       1.0000 0.39040  0.58050  0.48850  Biso   1.000  N
  C18      1.0000 0.33780  0.91820  0.28100  Biso   1.000  C
  C19      1.0000 0.45010  0.89560  0.41960  Biso   1.000  C
  C20      1.0000 0.58150  0.91700  0.52670  Biso   1.000  C
  H13      1.0000 0.59960  0.94130  0.51170  Biso   1.000  H
  C21      1.0000 0.68560  0.90230  0.65550  Biso   1.000  C
  C22      1.0000 0.82670  0.93180  0.77170  Biso   1.000  C
  C23      1.0000 0.65690  0.86660  0.67580  Biso   1.000  C
  H14      1.0000 0.72680  0.85650  0.76220  Biso   1.000  H
  C24      1.0000 0.52710  0.84520  0.57170  Biso   1.000  C
  C25      1.0000 0.42470  0.86120  0.44310  Biso   1.000  C
  H15      1.0000 0.33660  0.84790  0.37150  Biso   1.000  H
  C26      1.0000 0.49590  0.81560  0.59560  Biso   1.000  C
  H16      1.0000 0.57850  0.81320  0.69040  Biso   1.000  H
  H17      1.0000 0.43780  0.86040  0.55810  Biso   1.000  H
  C27      1.0000 0.32420  0.70360  0.47070  Biso   1.000  C
  H18      1.0000 0.27790  0.74170  0.45010  Biso   1.000  H
  C28      1.0000 0.30050  0.61480  0.44040  Biso   1.000  C
  H19      1.0000 0.23240  0.58120  0.39330  Biso   1.000  H
  C29      1.0000 0.46720  0.65180  0.54710  Biso   1.000  C
  H20      1.0000 0.53810  0.64940  0.58920  Biso   1.000  H
  C30      1.0000 0.18400  0.79000  0.04960  Biso   1.000  C
  H21      1.0000 0.19110  0.76490  0.08810  Biso   1.000  H
  C31      1.0000 0.23300  0.74110  0.05420  Biso   1.000  C
  H22      1.0000 0.27270  0.68470  0.09600  Biso   1.000  H
  C32      1.0000 0.22340  0.77520  0.99740  Biso   1.000  C
  C33      1.0000 0.16050  0.85720  0.93510  Biso   1.000  C
  H23      1.0000 0.14890  0.88250  0.89280  Biso   1.000  H
  C34      1.0000 0.11420  0.90270  0.93420  Biso   1.000  C
  H24      1.0000 0.07150  0.95840  0.89050  Biso   1.000  H
  Co3      1.0000 0.09447  0.04689  0.52335  Biso   1.000  Co
  O9       1.0000 0.21870  0.09690  0.68820  Biso   1.000  O
  O10      1.0000 0.36270  0.04830  0.76220  Biso   1.000  O
  O11      1.0000 0.91620  0.07810  0.38780  Biso   1.000  O
  O12      1.0000 0.85090  0.03820  0.25160  Biso   1.000  O
  N7       1.0000 0.12710  0.12860  0.49280  Biso   1.000  N
  N8       1.0000 0.43050  0.27350  0.03790  Biso   1.000  N
  N9       1.0000 0.39040  0.41950  0.98850  Biso   1.000  N
  C35      1.0000 0.33780  0.08180  0.78100  Biso   1.000  C
  C36      1.0000 0.45010  0.10440  0.91960  Biso   1.000  C
  C37      1.0000 0.58150  0.08300  0.02670  Biso   1.000  C
  H25      1.0000 0.59960  0.05870  0.01170  Biso   1.000  H
  C38      1.0000 0.68560  0.09770  0.15550  Biso   1.000  C
  C39      1.0000 0.82670  0.06820  0.27170  Biso   1.000  C
  C40      1.0000 0.65690  0.13340  0.17580  Biso   1.000  C
  H26      1.0000 0.72680  0.14350  0.26220  Biso   1.000  H
  C41      1.0000 0.52710  0.15480  0.07170  Biso   1.000  C
  C42      1.0000 0.42470  0.13880  0.94310  Biso   1.000  C
  H27      1.0000 0.33660  0.15210  0.87150  Biso   1.000  H
  C43      1.0000 0.49590  0.18440  0.09560  Biso   1.000  C
  H28      1.0000 0.57850  0.18680  0.19040  Biso   1.000  H
  H29      1.0000 0.43780  0.13960  0.05810  Biso   1.000  H
  C44      1.0000 0.32420  0.29640  0.97070  Biso   1.000  C
  H30      1.0000 0.27790  0.25830  0.95010  Biso   1.000  H
  C45      1.0000 0.30050  0.38520  0.94040  Biso   1.000  C
  H31      1.0000 0.23240  0.41880  0.89330  Biso   1.000  H
  C46      1.0000 0.46720  0.34820  0.04710  Biso   1.000  C
  H32      1.0000 0.53810  0.35060  0.08920  Biso   1.000  H
  C47      1.0000 0.18400  0.21000  0.54960  Biso   1.000  C
  H33      1.0000 0.19110  0.23510  0.58810  Biso   1.000  H
  C48      1.0000 0.23300  0.25890  0.55420  Biso   1.000  C
  H34      1.0000 0.27270  0.31530  0.59600  Biso   1.000  H
  C49      1.0000 0.22340  0.22480  0.49740  Biso   1.000  C
  C50      1.0000 0.16050  0.14280  0.43510  Biso   1.000  C
  H35      1.0000 0.14890  0.11750  0.39280  Biso   1.000  H
  C51      1.0000 0.11420  0.09730  0.43420  Biso   1.000  C
  H36      1.0000 0.07150  0.04160  0.39050  Biso   1.000  H
  Co4      1.0000 0.40553  0.54689  0.97665  Biso   1.000  Co
  O13      1.0000 0.28130  0.59690  0.81180  Biso   1.000  O
  O14      1.0000 0.13730  0.54830  0.73780  Biso   1.000  O
  O15      1.0000 0.58380  0.57810  0.11220  Biso   1.000  O
  O16      1.0000 0.64910  0.53820  0.24840  Biso   1.000  O
  N10      1.0000 0.37290  0.62860  0.00720  Biso   1.000  N
  N11      1.0000 0.06950  0.77350  0.46210  Biso   1.000  N
  N12      1.0000 0.10960  0.91950  0.51150  Biso   1.000  N
  C52      1.0000 0.16220  0.58180  0.71900  Biso   1.000  C
  C53      1.0000 0.04990  0.60440  0.58040  Biso   1.000  C
  C54      1.0000 0.91850  0.58300  0.47330  Biso   1.000  C
  H37      1.0000 0.90040  0.55870  0.48830  Biso   1.000  H
  C55      1.0000 0.81440  0.59770  0.34450  Biso   1.000  C
  C56      1.0000 0.67330  0.56820  0.22830  Biso   1.000  C
  C57      1.0000 0.84310  0.63340  0.32420  Biso   1.000  C
  H38      1.0000 0.77320  0.64350  0.23780  Biso   1.000  H
  C58      1.0000 0.97290  0.65480  0.42830  Biso   1.000  C
  C59      1.0000 0.07530  0.63880  0.55690  Biso   1.000  C
  H39      1.0000 0.16340  0.65210  0.62850  Biso   1.000  H
  C60      1.0000 0.00410  0.68440  0.40440  Biso   1.000  C
  H40      1.0000 0.92150  0.68680  0.30960  Biso   1.000  H
  H41      1.0000 0.06220  0.63960  0.44190  Biso   1.000  H
  C61      1.0000 0.17580  0.79640  0.52930  Biso   1.000  C
  H42      1.0000 0.22210  0.75830  0.54990  Biso   1.000  H
  C62      1.0000 0.19950  0.88520  0.55960  Biso   1.000  C
  H43      1.0000 0.26760  0.91880  0.60670  Biso   1.000  H
  C63      1.0000 0.03280  0.84820  0.45290  Biso   1.000  C
  H44      1.0000 0.96190  0.85060  0.41080  Biso   1.000  H
  C64      1.0000 0.31600  0.71000  0.95040  Biso   1.000  C
  H45      1.0000 0.30890  0.73510  0.91190  Biso   1.000  H
  C65      1.0000 0.26700  0.75890  0.94580  Biso   1.000  C
  H46      1.0000 0.22730  0.81530  0.90400  Biso   1.000  H
  C66      1.0000 0.27660  0.72480  0.00260  Biso   1.000  C
  C67      1.0000 0.33950  0.64280  0.06490  Biso   1.000  C
  H47      1.0000 0.35110  0.61750  0.10720  Biso   1.000  H
  C68      1.0000 0.38580  0.59730  0.06580  Biso   1.000  C
  H48      1.0000 0.42850  0.54160  0.10950  Biso   1.000  H
  Co5      1.0000 0.90553  0.95311  0.47665  Biso   1.000  Co
  O17      1.0000 0.78130  0.90310  0.31180  Biso   1.000  O
  O18      1.0000 0.63730  0.95170  0.23780  Biso   1.000  O
  O19      1.0000 0.08380  0.92190  0.61220  Biso   1.000  O
  O20      1.0000 0.14910  0.96180  0.74840  Biso   1.000  O
  N13      1.0000 0.87290  0.87140  0.50720  Biso   1.000  N
  N14      1.0000 0.56950  0.72650  0.96210  Biso   1.000  N
  N15      1.0000 0.60960  0.58050  0.01150  Biso   1.000  N
  C69      1.0000 0.66220  0.91820  0.21900  Biso   1.000  C
  C70      1.0000 0.54990  0.89560  0.08040  Biso   1.000  C
  C71      1.0000 0.41850  0.91700  0.97330  Biso   1.000  C
  H49      1.0000 0.40040  0.94130  0.98830  Biso   1.000  H
  C72      1.0000 0.31440  0.90230  0.84450  Biso   1.000  C
  C73      1.0000 0.17330  0.93180  0.72830  Biso   1.000  C
  C74      1.0000 0.34310  0.86660  0.82420  Biso   1.000  C
  H50      1.0000 0.27320  0.85650  0.73780  Biso   1.000  H
  C75      1.0000 0.47290  0.84520  0.92830  Biso   1.000  C
  C76      1.0000 0.57530  0.86120  0.05690  Biso   1.000  C
  H51      1.0000 0.66340  0.84790  0.12850  Biso   1.000  H
  C77      1.0000 0.50410  0.81560  0.90440  Biso   1.000  C
  H52      1.0000 0.42150  0.81320  0.80960  Biso   1.000  H
  H53      1.0000 0.56220  0.86040  0.94190  Biso   1.000  H
  C78      1.0000 0.67580  0.70360  0.02930  Biso   1.000  C
  H54      1.0000 0.72210  0.74170  0.04990  Biso   1.000  H
  C79      1.0000 0.69950  0.61480  0.05960  Biso   1.000  C
  H55      1.0000 0.76760  0.58120  0.10670  Biso   1.000  H
  C80      1.0000 0.53280  0.65180  0.95290  Biso   1.000  C
  H56      1.0000 0.46190  0.64940  0.91080  Biso   1.000  H
  C81      1.0000 0.81600  0.79000  0.45040  Biso   1.000  C
  H57      1.0000 0.80890  0.76490  0.41190  Biso   1.000  H
  C82      1.0000 0.76700  0.74110  0.44580  Biso   1.000  C
  H58      1.0000 0.72730  0.68470  0.40400  Biso   1.000  H
  C83      1.0000 0.77660  0.77520  0.50260  Biso   1.000  C
  C84      1.0000 0.83950  0.85720  0.56490  Biso   1.000  C
  H59      1.0000 0.85110  0.88250  0.60720  Biso   1.000  H
  C85      1.0000 0.88580  0.90270  0.56580  Biso   1.000  C
  H60      1.0000 0.92850  0.95840  0.60950  Biso   1.000  H
  Co6      1.0000 0.59447  0.45311  0.02335  Biso   1.000  Co
  O21      1.0000 0.71870  0.40310  0.18820  Biso   1.000  O
  O22      1.0000 0.86270  0.45170  0.26220  Biso   1.000  O
  O23      1.0000 0.41620  0.42190  0.88780  Biso   1.000  O
  O24      1.0000 0.35090  0.46180  0.75160  Biso   1.000  O
  N16      1.0000 0.62710  0.37140  0.99280  Biso   1.000  N
  N17      1.0000 0.93050  0.22650  0.53790  Biso   1.000  N
  N18      1.0000 0.89040  0.08050  0.48850  Biso   1.000  N
  C86      1.0000 0.83780  0.41820  0.28100  Biso   1.000  C
  C87      1.0000 0.95010  0.39560  0.41960  Biso   1.000  C
  C88      1.0000 0.08150  0.41700  0.52670  Biso   1.000  C
  H61      1.0000 0.09960  0.44130  0.51170  Biso   1.000  H
  C89      1.0000 0.18560  0.40230  0.65550  Biso   1.000  C
  C90      1.0000 0.32670  0.43180  0.77170  Biso   1.000  C
  C91      1.0000 0.15690  0.36660  0.67580  Biso   1.000  C
  H62      1.0000 0.22680  0.35650  0.76220  Biso   1.000  H
  C92      1.0000 0.02710  0.34520  0.57170  Biso   1.000  C
  C93      1.0000 0.92470  0.36120  0.44310  Biso   1.000  C
  H63      1.0000 0.83660  0.34790  0.37150  Biso   1.000  H
  C94      1.0000 0.99590  0.31560  0.59560  Biso   1.000  C
  H64      1.0000 0.07850  0.31320  0.69040  Biso   1.000  H
  H65      1.0000 0.93780  0.36040  0.55810  Biso   1.000  H
  C95      1.0000 0.82420  0.20360  0.47070  Biso   1.000  C
  H66      1.0000 0.77790  0.24170  0.45010  Biso   1.000  H
  C96      1.0000 0.80050  0.11480  0.44040  Biso   1.000  C
  H67      1.0000 0.73240  0.08120  0.39330  Biso   1.000  H
  C97      1.0000 0.96720  0.15180  0.54710  Biso   1.000  C
  H68      1.0000 0.03810  0.14940  0.58920  Biso   1.000  H
  C98      1.0000 0.68400  0.29000  0.04960  Biso   1.000  C
  H69      1.0000 0.69110  0.26490  0.08810  Biso   1.000  H
  C99      1.0000 0.73300  0.24110  0.05420  Biso   1.000  C
  H70      1.0000 0.77270  0.18470  0.09600  Biso   1.000  H
  C100     1.0000 0.72340  0.27520  0.99740  Biso   1.000  C
  C101     1.0000 0.66050  0.35720  0.93510  Biso   1.000  C
  H71      1.0000 0.64890  0.38250  0.89280  Biso   1.000  H
  C102     1.0000 0.61420  0.40270  0.93420  Biso   1.000  C
  H72      1.0000 0.57150  0.45840  0.89050  Biso   1.000  H
  Co7      1.0000 0.59447  0.54689  0.52335  Biso   1.000  Co
  O25      1.0000 0.71870  0.59690  0.68820  Biso   1.000  O
  O26      1.0000 0.86270  0.54830  0.76220  Biso   1.000  O
  O27      1.0000 0.41620  0.57810  0.38780  Biso   1.000  O
  O28      1.0000 0.35090  0.53820  0.25160  Biso   1.000  O
  N19      1.0000 0.62710  0.62860  0.49280  Biso   1.000  N
  N20      1.0000 0.93050  0.77350  0.03790  Biso   1.000  N
  N21      1.0000 0.89040  0.91950  0.98850  Biso   1.000  N
  C103     1.0000 0.83780  0.58180  0.78100  Biso   1.000  C
  C104     1.0000 0.95010  0.60440  0.91960  Biso   1.000  C
  C105     1.0000 0.08150  0.58300  0.02670  Biso   1.000  C
  H73      1.0000 0.09960  0.55870  0.01170  Biso   1.000  H
  C106     1.0000 0.18560  0.59770  0.15550  Biso   1.000  C
  C107     1.0000 0.32670  0.56820  0.27170  Biso   1.000  C
  C108     1.0000 0.15690  0.63340  0.17580  Biso   1.000  C
  H74      1.0000 0.22680  0.64350  0.26220  Biso   1.000  H
  C109     1.0000 0.02710  0.65480  0.07170  Biso   1.000  C
  C110     1.0000 0.92470  0.63880  0.94310  Biso   1.000  C
  H75      1.0000 0.83660  0.65210  0.87150  Biso   1.000  H
  C111     1.0000 0.99590  0.68440  0.09560  Biso   1.000  C
  H76      1.0000 0.07850  0.68680  0.19040  Biso   1.000  H
  H77      1.0000 0.93780  0.63960  0.05810  Biso   1.000  H
  C112     1.0000 0.82420  0.79640  0.97070  Biso   1.000  C
  H78      1.0000 0.77790  0.75830  0.95010  Biso   1.000  H
  C113     1.0000 0.80050  0.88520  0.94040  Biso   1.000  C
  H79      1.0000 0.73240  0.91880  0.89330  Biso   1.000  H
  C114     1.0000 0.96720  0.84820  0.04710  Biso   1.000  C
  H80      1.0000 0.03810  0.85060  0.08920  Biso   1.000  H
  C115     1.0000 0.68400  0.71000  0.54960  Biso   1.000  C
  H81      1.0000 0.69110  0.73510  0.58810  Biso   1.000  H
  C116     1.0000 0.73300  0.75890  0.55420  Biso   1.000  C
  H82      1.0000 0.77270  0.81530  0.59600  Biso   1.000  H
  C117     1.0000 0.72340  0.72480  0.49740  Biso   1.000  C
  C118     1.0000 0.66050  0.64280  0.43510  Biso   1.000  C
  H83      1.0000 0.64890  0.61750  0.39280  Biso   1.000  H
  C119     1.0000 0.61420  0.59730  0.43420  Biso   1.000  C
  H84      1.0000 0.57150  0.54160  0.39050  Biso   1.000  H
  Co8      1.0000 0.90553  0.04689  0.97665  Biso   1.000  Co
  O29      1.0000 0.78130  0.09690  0.81180  Biso   1.000  O
  O30      1.0000 0.63730  0.04830  0.73780  Biso   1.000  O
  O31      1.0000 0.08380  0.07810  0.11220  Biso   1.000  O
  O32      1.0000 0.14910  0.03820  0.24840  Biso   1.000  O
  N22      1.0000 0.87290  0.12860  0.00720  Biso   1.000  N
  N23      1.0000 0.56950  0.27350  0.46210  Biso   1.000  N
  N24      1.0000 0.60960  0.41950  0.51150  Biso   1.000  N
  C120     1.0000 0.66220  0.08180  0.71900  Biso   1.000  C
  C121     1.0000 0.54990  0.10440  0.58040  Biso   1.000  C
  C122     1.0000 0.41850  0.08300  0.47330  Biso   1.000  C
  H85      1.0000 0.40040  0.05870  0.48830  Biso   1.000  H
  C123     1.0000 0.31440  0.09770  0.34450  Biso   1.000  C
  C124     1.0000 0.17330  0.06820  0.22830  Biso   1.000  C
  C125     1.0000 0.34310  0.13340  0.32420  Biso   1.000  C
  H86      1.0000 0.27320  0.14350  0.23780  Biso   1.000  H
  C126     1.0000 0.47290  0.15480  0.42830  Biso   1.000  C
  C127     1.0000 0.57530  0.13880  0.55690  Biso   1.000  C
  H87      1.0000 0.66340  0.15210  0.62850  Biso   1.000  H
  C128     1.0000 0.50410  0.18440  0.40440  Biso   1.000  C
  H88      1.0000 0.42150  0.18680  0.30960  Biso   1.000  H
  H89      1.0000 0.56220  0.13960  0.44190  Biso   1.000  H
  C129     1.0000 0.67580  0.29640  0.52930  Biso   1.000  C
  H90      1.0000 0.72210  0.25830  0.54990  Biso   1.000  H
  C130     1.0000 0.69950  0.38520  0.55960  Biso   1.000  C
  H91      1.0000 0.76760  0.41880  0.60670  Biso   1.000  H
  C131     1.0000 0.53280  0.34820  0.45290  Biso   1.000  C
  H92      1.0000 0.46190  0.35060  0.41080  Biso   1.000  H
  C132     1.0000 0.81600  0.21000  0.95040  Biso   1.000  C
  H93      1.0000 0.80890  0.23510  0.91190  Biso   1.000  H
  C133     1.0000 0.76700  0.25890  0.94580  Biso   1.000  C
  H94      1.0000 0.72730  0.31530  0.90400  Biso   1.000  H
  C134     1.0000 0.77660  0.22480  0.00260  Biso   1.000  C
  C135     1.0000 0.83950  0.14280  0.06490  Biso   1.000  C
  H95      1.0000 0.85110  0.11750  0.10720  Biso   1.000  H
  C136     1.0000 0.88580  0.09730  0.06580  Biso   1.000  C
  H96      1.0000 0.92850  0.04160  0.10950  Biso   1.000  H
