data_image0
_cell_length_a       14.7953
_cell_length_b       27.3634
_cell_length_c       8.3446
_cell_angle_alpha    90
_cell_angle_beta     90
_cell_angle_gamma    90

_symmetry_space_group_name_H-M    "P 1"
_symmetry_int_tables_number       1

loop_
  _symmetry_equiv_pos_as_xyz
  'x, y, z'

loop_
  _atom_site_label
  _atom_site_occupancy
  _atom_site_fract_x
  _atom_site_fract_y
  _atom_site_fract_z
  _atom_site_thermal_displace_type
  _atom_site_B_iso_or_equiv
  _atom_site_type_symbol
  P1       1.0000 0.09770  0.78324  0.66700  Biso   1.000  P
  P2       1.0000 0.90590  0.66998  0.66310  Biso   1.000  P
  P3       1.0000 0.77990  0.86111  0.65630  Biso   1.000  P
  P4       1.0000 0.10220  0.94771  0.65630  Biso   1.000  P
  Al1      1.0000 0.90670  0.77968  0.78780  Biso   1.000  Al
  Al2      1.0000 0.10010  0.67376  0.78380  Biso   1.000  Al
  Al3      1.0000 0.90690  0.94522  0.77770  Biso   1.000  Al
  Al4      1.0000 0.22920  0.86639  0.78380  Biso   1.000  Al
  O1       1.0000 0.11470  0.73362  0.74000  Biso   1.000  O
  O2       1.0000 0.00880  0.80303  0.72930  Biso   1.000  O
  O3       1.0000 0.17570  0.81536  0.71840  Biso   1.000  O
  O4       1.0000 0.10020  0.78070  0.48910  Biso   1.000  O
  O5       1.0000 0.89310  0.72135  0.72180  Biso   1.000  O
  O6       1.0000 0.84010  0.63490  0.74320  Biso   1.000  O
  O7       1.0000 0.89730  0.66701  0.48540  Biso   1.000  O
  O8       1.0000 0.00040  0.65230  0.70780  Biso   1.000  O
  O9       1.0000 0.68150  0.86265  0.70240  Biso   1.000  O
  O10      1.0000 0.82250  0.81291  0.70010  Biso   1.000  O
  O11      1.0000 0.78770  0.87180  0.48240  Biso   1.000  O
  O12      1.0000 0.82670  0.90280  0.73980  Biso   1.000  O
  O13      1.0000 0.01410  0.92835  0.72260  Biso   1.000  O
  O14      1.0000 0.12190  0.99909  0.70770  Biso   1.000  O
  O15      1.0000 0.18300  0.91617  0.69290  Biso   1.000  O
  O16      1.0000 0.09090  0.95125  0.47990  Biso   1.000  O
  P5       1.0000 0.59770  0.28324  0.16700  Biso   1.000  P
  P6       1.0000 0.40590  0.16998  0.16310  Biso   1.000  P
  P7       1.0000 0.27990  0.36111  0.15630  Biso   1.000  P
  P8       1.0000 0.60220  0.44771  0.15630  Biso   1.000  P
  Al5      1.0000 0.40670  0.27968  0.28780  Biso   1.000  Al
  Al6      1.0000 0.60010  0.17376  0.28380  Biso   1.000  Al
  Al7      1.0000 0.40690  0.44522  0.27770  Biso   1.000  Al
  Al8      1.0000 0.72920  0.36639  0.28380  Biso   1.000  Al
  O17      1.0000 0.61470  0.23362  0.24000  Biso   1.000  O
  O18      1.0000 0.50880  0.30303  0.22930  Biso   1.000  O
  O19      1.0000 0.67570  0.31536  0.21840  Biso   1.000  O
  O20      1.0000 0.60020  0.28070  0.98910  Biso   1.000  O
  O21      1.0000 0.39310  0.22135  0.22180  Biso   1.000  O
  O22      1.0000 0.34010  0.13490  0.24320  Biso   1.000  O
  O23      1.0000 0.39730  0.16701  0.98540  Biso   1.000  O
  O24      1.0000 0.50040  0.15230  0.20780  Biso   1.000  O
  O25      1.0000 0.18150  0.36265  0.20240  Biso   1.000  O
  O26      1.0000 0.32250  0.31291  0.20010  Biso   1.000  O
  O27      1.0000 0.28770  0.37180  0.98240  Biso   1.000  O
  O28      1.0000 0.32670  0.40280  0.23980  Biso   1.000  O
  O29      1.0000 0.51410  0.42835  0.22260  Biso   1.000  O
  O30      1.0000 0.62190  0.49909  0.20770  Biso   1.000  O
  O31      1.0000 0.68300  0.41617  0.19290  Biso   1.000  O
  O32      1.0000 0.59090  0.45125  0.97990  Biso   1.000  O
  P9       1.0000 0.90230  0.21676  0.66700  Biso   1.000  P
  P10      1.0000 0.09410  0.33002  0.66310  Biso   1.000  P
  P11      1.0000 0.22010  0.13889  0.65630  Biso   1.000  P
  P12      1.0000 0.89780  0.05229  0.65630  Biso   1.000  P
  Al9      1.0000 0.09330  0.22032  0.78780  Biso   1.000  Al
  Al10     1.0000 0.89990  0.32624  0.78380  Biso   1.000  Al
  Al11     1.0000 0.09310  0.05478  0.77770  Biso   1.000  Al
  Al12     1.0000 0.77080  0.13361  0.78380  Biso   1.000  Al
  O33      1.0000 0.88530  0.26638  0.74000  Biso   1.000  O
  O34      1.0000 0.99120  0.19697  0.72930  Biso   1.000  O
  O35      1.0000 0.82430  0.18464  0.71840  Biso   1.000  O
  O36      1.0000 0.89980  0.21930  0.48910  Biso   1.000  O
  O37      1.0000 0.10690  0.27865  0.72180  Biso   1.000  O
  O38      1.0000 0.15990  0.36510  0.74320  Biso   1.000  O
  O39      1.0000 0.10270  0.33299  0.48540  Biso   1.000  O
  O40      1.0000 0.99960  0.34770  0.70780  Biso   1.000  O
  O41      1.0000 0.31850  0.13735  0.70240  Biso   1.000  O
  O42      1.0000 0.17750  0.18709  0.70010  Biso   1.000  O
  O43      1.0000 0.21230  0.12820  0.48240  Biso   1.000  O
  O44      1.0000 0.17330  0.09720  0.73980  Biso   1.000  O
  O45      1.0000 0.98590  0.07165  0.72260  Biso   1.000  O
  O46      1.0000 0.87810  0.00091  0.70770  Biso   1.000  O
  O47      1.0000 0.81700  0.08383  0.69290  Biso   1.000  O
  O48      1.0000 0.90910  0.04875  0.47990  Biso   1.000  O
  P13      1.0000 0.40230  0.71676  0.16700  Biso   1.000  P
  P14      1.0000 0.59410  0.83002  0.16310  Biso   1.000  P
  P15      1.0000 0.72010  0.63889  0.15630  Biso   1.000  P
  P16      1.0000 0.39780  0.55229  0.15630  Biso   1.000  P
  Al13     1.0000 0.59330  0.72032  0.28780  Biso   1.000  Al
  Al14     1.0000 0.39990  0.82624  0.28380  Biso   1.000  Al
  Al15     1.0000 0.59310  0.55478  0.27770  Biso   1.000  Al
  Al16     1.0000 0.27080  0.63361  0.28380  Biso   1.000  Al
  O49      1.0000 0.38530  0.76638  0.24000  Biso   1.000  O
  O50      1.0000 0.49120  0.69697  0.22930  Biso   1.000  O
  O51      1.0000 0.32430  0.68464  0.21840  Biso   1.000  O
  O52      1.0000 0.39980  0.71930  0.98910  Biso   1.000  O
  O53      1.0000 0.60690  0.77865  0.22180  Biso   1.000  O
  O54      1.0000 0.65990  0.86510  0.24320  Biso   1.000  O
  O55      1.0000 0.60270  0.83299  0.98540  Biso   1.000  O
  O56      1.0000 0.49960  0.84770  0.20780  Biso   1.000  O
  O57      1.0000 0.81850  0.63735  0.20240  Biso   1.000  O
  O58      1.0000 0.67750  0.68709  0.20010  Biso   1.000  O
  O59      1.0000 0.71230  0.62820  0.98240  Biso   1.000  O
  O60      1.0000 0.67330  0.59720  0.23980  Biso   1.000  O
  O61      1.0000 0.48590  0.57165  0.22260  Biso   1.000  O
  O62      1.0000 0.37810  0.50091  0.20770  Biso   1.000  O
  O63      1.0000 0.31700  0.58383  0.19290  Biso   1.000  O
  O64      1.0000 0.40910  0.54875  0.97990  Biso   1.000  O
  P17      1.0000 0.59770  0.71676  0.66700  Biso   1.000  P
  P18      1.0000 0.40590  0.83002  0.66310  Biso   1.000  P
  P19      1.0000 0.27990  0.63889  0.65630  Biso   1.000  P
  P20      1.0000 0.60220  0.55229  0.65630  Biso   1.000  P
  Al17     1.0000 0.40670  0.72032  0.78780  Biso   1.000  Al
  Al18     1.0000 0.60010  0.82624  0.78380  Biso   1.000  Al
  Al19     1.0000 0.40690  0.55478  0.77770  Biso   1.000  Al
  Al20     1.0000 0.72920  0.63361  0.78380  Biso   1.000  Al
  O65      1.0000 0.61470  0.76638  0.74000  Biso   1.000  O
  O66      1.0000 0.50880  0.69697  0.72930  Biso   1.000  O
  O67      1.0000 0.67570  0.68464  0.71840  Biso   1.000  O
  O68      1.0000 0.60020  0.71930  0.48910  Biso   1.000  O
  O69      1.0000 0.39310  0.77865  0.72180  Biso   1.000  O
  O70      1.0000 0.34010  0.86510  0.74320  Biso   1.000  O
  O71      1.0000 0.39730  0.83299  0.48540  Biso   1.000  O
  O72      1.0000 0.50040  0.84770  0.70780  Biso   1.000  O
  O73      1.0000 0.18150  0.63735  0.70240  Biso   1.000  O
  O74      1.0000 0.32250  0.68709  0.70010  Biso   1.000  O
  O75      1.0000 0.28770  0.62820  0.48240  Biso   1.000  O
  O76      1.0000 0.32670  0.59720  0.73980  Biso   1.000  O
  O77      1.0000 0.51410  0.57165  0.72260  Biso   1.000  O
  O78      1.0000 0.62190  0.50091  0.70770  Biso   1.000  O
  O79      1.0000 0.68300  0.58383  0.69290  Biso   1.000  O
  O80      1.0000 0.59090  0.54875  0.47990  Biso   1.000  O
  P21      1.0000 0.09770  0.21676  0.16700  Biso   1.000  P
  P22      1.0000 0.90590  0.33002  0.16310  Biso   1.000  P
  P23      1.0000 0.77990  0.13889  0.15630  Biso   1.000  P
  P24      1.0000 0.10220  0.05229  0.15630  Biso   1.000  P
  Al21     1.0000 0.90670  0.22032  0.28780  Biso   1.000  Al
  Al22     1.0000 0.10010  0.32624  0.28380  Biso   1.000  Al
  Al23     1.0000 0.90690  0.05478  0.27770  Biso   1.000  Al
  Al24     1.0000 0.22920  0.13361  0.28380  Biso   1.000  Al
  O81      1.0000 0.11470  0.26638  0.24000  Biso   1.000  O
  O82      1.0000 0.00880  0.19697  0.22930  Biso   1.000  O
  O83      1.0000 0.17570  0.18464  0.21840  Biso   1.000  O
  O84      1.0000 0.10020  0.21930  0.98910  Biso   1.000  O
  O85      1.0000 0.89310  0.27865  0.22180  Biso   1.000  O
  O86      1.0000 0.84010  0.36510  0.24320  Biso   1.000  O
  O87      1.0000 0.89730  0.33299  0.98540  Biso   1.000  O
  O88      1.0000 0.00040  0.34770  0.20780  Biso   1.000  O
  O89      1.0000 0.68150  0.13735  0.20240  Biso   1.000  O
  O90      1.0000 0.82250  0.18709  0.20010  Biso   1.000  O
  O91      1.0000 0.78770  0.12820  0.98240  Biso   1.000  O
  O92      1.0000 0.82670  0.09720  0.23980  Biso   1.000  O
  O93      1.0000 0.01410  0.07165  0.22260  Biso   1.000  O
  O94      1.0000 0.12190  0.00091  0.20770  Biso   1.000  O
  O95      1.0000 0.18300  0.08383  0.19290  Biso   1.000  O
  O96      1.0000 0.09090  0.04875  0.97990  Biso   1.000  O
  P25      1.0000 0.40230  0.28324  0.66700  Biso   1.000  P
  P26      1.0000 0.59410  0.16998  0.66310  Biso   1.000  P
  P27      1.0000 0.72010  0.36111  0.65630  Biso   1.000  P
  P28      1.0000 0.39780  0.44771  0.65630  Biso   1.000  P
  Al25     1.0000 0.59330  0.27968  0.78780  Biso   1.000  Al
  Al26     1.0000 0.39990  0.17376  0.78380  Biso   1.000  Al
  Al27     1.0000 0.59310  0.44522  0.77770  Biso   1.000  Al
  Al28     1.0000 0.27080  0.36639  0.78380  Biso   1.000  Al
  O97      1.0000 0.38530  0.23362  0.74000  Biso   1.000  O
  O98      1.0000 0.49120  0.30303  0.72930  Biso   1.000  O
  O99      1.0000 0.32430  0.31536  0.71840  Biso   1.000  O
  O100     1.0000 0.39980  0.28070  0.48910  Biso   1.000  O
  O101     1.0000 0.60690  0.22135  0.72180  Biso   1.000  O
  O102     1.0000 0.65990  0.13490  0.74320  Biso   1.000  O
  O103     1.0000 0.60270  0.16701  0.48540  Biso   1.000  O
  O104     1.0000 0.49960  0.15230  0.70780  Biso   1.000  O
  O105     1.0000 0.81850  0.36265  0.70240  Biso   1.000  O
  O106     1.0000 0.67750  0.31291  0.70010  Biso   1.000  O
  O107     1.0000 0.71230  0.37180  0.48240  Biso   1.000  O
  O108     1.0000 0.67330  0.40280  0.73980  Biso   1.000  O
  O109     1.0000 0.48590  0.42835  0.72260  Biso   1.000  O
  O110     1.0000 0.37810  0.49909  0.70770  Biso   1.000  O
  O111     1.0000 0.31700  0.41617  0.69290  Biso   1.000  O
  O112     1.0000 0.40910  0.45125  0.47990  Biso   1.000  O
  P29      1.0000 0.90230  0.78324  0.16700  Biso   1.000  P
  P30      1.0000 0.09410  0.66998  0.16310  Biso   1.000  P
  P31      1.0000 0.22010  0.86111  0.15630  Biso   1.000  P
  P32      1.0000 0.89780  0.94771  0.15630  Biso   1.000  P
  Al29     1.0000 0.09330  0.77968  0.28780  Biso   1.000  Al
  Al30     1.0000 0.89990  0.67376  0.28380  Biso   1.000  Al
  Al31     1.0000 0.09310  0.94522  0.27770  Biso   1.000  Al
  Al32     1.0000 0.77080  0.86639  0.28380  Biso   1.000  Al
  O113     1.0000 0.88530  0.73362  0.24000  Biso   1.000  O
  O114     1.0000 0.99120  0.80303  0.22930  Biso   1.000  O
  O115     1.0000 0.82430  0.81536  0.21840  Biso   1.000  O
  O116     1.0000 0.89980  0.78070  0.98910  Biso   1.000  O
  O117     1.0000 0.10690  0.72135  0.22180  Biso   1.000  O
  O118     1.0000 0.15990  0.63490  0.24320  Biso   1.000  O
  O119     1.0000 0.10270  0.66701  0.98540  Biso   1.000  O
  O120     1.0000 0.99960  0.65230  0.20780  Biso   1.000  O
  O121     1.0000 0.31850  0.86265  0.20240  Biso   1.000  O
  O122     1.0000 0.17750  0.81291  0.20010  Biso   1.000  O
  O123     1.0000 0.21230  0.87180  0.98240  Biso   1.000  O
  O124     1.0000 0.17330  0.90280  0.23980  Biso   1.000  O
  O125     1.0000 0.98590  0.92835  0.22260  Biso   1.000  O
  O126     1.0000 0.87810  0.99909  0.20770  Biso   1.000  O
  O127     1.0000 0.81700  0.91617  0.19290  Biso   1.000  O
  O128     1.0000 0.90910  0.95125  0.97990  Biso   1.000  O
