data_image0
_cell_length_a       14.8022
_cell_length_b       27.3307
_cell_length_c       8.3487
_cell_angle_alpha    90
_cell_angle_beta     90
_cell_angle_gamma    90

_symmetry_space_group_name_H-M    "P 1"
_symmetry_int_tables_number       1

loop_
  _symmetry_equiv_pos_as_xyz
  'x, y, z'

loop_
  _atom_site_label
  _atom_site_occupancy
  _atom_site_fract_x
  _atom_site_fract_y
  _atom_site_fract_z
  _atom_site_thermal_displace_type
  _atom_site_B_iso_or_equiv
  _atom_site_type_symbol
  P1       1.0000 0.90205  0.78204  0.14240  Biso   1.000  P
  P2       1.0000 0.09497  0.67065  0.13870  Biso   1.000  P
  P3       1.0000 0.21995  0.86048  0.13770  Biso   1.000  P
  P4       1.0000 0.89889  0.94715  0.14280  Biso   1.000  P
  Al1      1.0000 0.09360  0.77866  0.26820  Biso   1.000  Al
  Al2      1.0000 0.90026  0.67455  0.26100  Biso   1.000  Al
  Al3      1.0000 0.09319  0.94453  0.26480  Biso   1.000  Al
  Al4      1.0000 0.77381  0.86478  0.26320  Biso   1.000  Al
  O1       1.0000 0.87950  0.73410  0.22110  Biso   1.000  O
  O2       1.0000 0.99200  0.80195  0.20370  Biso   1.000  O
  O3       1.0000 0.82810  0.81880  0.16700  Biso   1.000  O
  O4       1.0000 0.90870  0.77217  0.96790  Biso   1.000  O
  O5       1.0000 0.11190  0.72198  0.19060  Biso   1.000  O
  O6       1.0000 0.16185  0.63464  0.21000  Biso   1.000  O
  O7       1.0000 0.10250  0.66898  0.96170  Biso   1.000  O
  O8       1.0000 0.00050  0.65426  0.18470  Biso   1.000  O
  O9       1.0000 0.31861  0.86383  0.18790  Biso   1.000  O
  O10      1.0000 0.17950  0.81546  0.21100  Biso   1.000  O
  O11      1.0000 0.21490  0.85531  0.96080  Biso   1.000  O
  O12      1.0000 0.17480  0.90633  0.19330  Biso   1.000  O
  O13      1.0000 0.98700  0.92498  0.20760  Biso   1.000  O
  O14      1.0000 0.88620  0.99914  0.19230  Biso   1.000  O
  O15      1.0000 0.81850  0.91939  0.20860  Biso   1.000  O
  O16      1.0000 0.89890  0.94528  0.96570  Biso   1.000  O
  P5       1.0000 0.40205  0.28204  0.64240  Biso   1.000  P
  P6       1.0000 0.59497  0.17065  0.63870  Biso   1.000  P
  P7       1.0000 0.71995  0.36048  0.63770  Biso   1.000  P
  P8       1.0000 0.39889  0.44715  0.64280  Biso   1.000  P
  Al5      1.0000 0.59360  0.27866  0.76820  Biso   1.000  Al
  Al6      1.0000 0.40026  0.17455  0.76100  Biso   1.000  Al
  Al7      1.0000 0.59319  0.44453  0.76480  Biso   1.000  Al
  Al8      1.0000 0.27381  0.36478  0.76320  Biso   1.000  Al
  O17      1.0000 0.37950  0.23410  0.72110  Biso   1.000  O
  O18      1.0000 0.49200  0.30195  0.70370  Biso   1.000  O
  O19      1.0000 0.32810  0.31880  0.66700  Biso   1.000  O
  O20      1.0000 0.40870  0.27217  0.46790  Biso   1.000  O
  O21      1.0000 0.61190  0.22198  0.69060  Biso   1.000  O
  O22      1.0000 0.66185  0.13464  0.71000  Biso   1.000  O
  O23      1.0000 0.60250  0.16898  0.46170  Biso   1.000  O
  O24      1.0000 0.50050  0.15426  0.68470  Biso   1.000  O
  O25      1.0000 0.81861  0.36383  0.68790  Biso   1.000  O
  O26      1.0000 0.67950  0.31546  0.71100  Biso   1.000  O
  O27      1.0000 0.71490  0.35531  0.46080  Biso   1.000  O
  O28      1.0000 0.67480  0.40633  0.69330  Biso   1.000  O
  O29      1.0000 0.48700  0.42498  0.70760  Biso   1.000  O
  O30      1.0000 0.38620  0.49914  0.69230  Biso   1.000  O
  O31      1.0000 0.31850  0.41939  0.70860  Biso   1.000  O
  O32      1.0000 0.39890  0.44528  0.46570  Biso   1.000  O
  P9       1.0000 0.09795  0.21796  0.14240  Biso   1.000  P
  P10      1.0000 0.90503  0.32935  0.13870  Biso   1.000  P
  P11      1.0000 0.78005  0.13952  0.13770  Biso   1.000  P
  P12      1.0000 0.10111  0.05285  0.14280  Biso   1.000  P
  Al9      1.0000 0.90640  0.22134  0.26820  Biso   1.000  Al
  Al10     1.0000 0.09974  0.32545  0.26100  Biso   1.000  Al
  Al11     1.0000 0.90681  0.05547  0.26480  Biso   1.000  Al
  Al12     1.0000 0.22619  0.13522  0.26320  Biso   1.000  Al
  O33      1.0000 0.12050  0.26590  0.22110  Biso   1.000  O
  O34      1.0000 0.00800  0.19805  0.20370  Biso   1.000  O
  O35      1.0000 0.17190  0.18120  0.16700  Biso   1.000  O
  O36      1.0000 0.09130  0.22783  0.96790  Biso   1.000  O
  O37      1.0000 0.88810  0.27802  0.19060  Biso   1.000  O
  O38      1.0000 0.83815  0.36536  0.21000  Biso   1.000  O
  O39      1.0000 0.89750  0.33102  0.96170  Biso   1.000  O
  O40      1.0000 0.99950  0.34574  0.18470  Biso   1.000  O
  O41      1.0000 0.68139  0.13617  0.18790  Biso   1.000  O
  O42      1.0000 0.82050  0.18454  0.21100  Biso   1.000  O
  O43      1.0000 0.78510  0.14469  0.96080  Biso   1.000  O
  O44      1.0000 0.82520  0.09367  0.19330  Biso   1.000  O
  O45      1.0000 0.01300  0.07502  0.20760  Biso   1.000  O
  O46      1.0000 0.11380  0.00086  0.19230  Biso   1.000  O
  O47      1.0000 0.18150  0.08061  0.20860  Biso   1.000  O
  O48      1.0000 0.10110  0.05472  0.96570  Biso   1.000  O
  P13      1.0000 0.59795  0.71796  0.64240  Biso   1.000  P
  P14      1.0000 0.40503  0.82935  0.63870  Biso   1.000  P
  P15      1.0000 0.28005  0.63952  0.63770  Biso   1.000  P
  P16      1.0000 0.60111  0.55285  0.64280  Biso   1.000  P
  Al13     1.0000 0.40640  0.72134  0.76820  Biso   1.000  Al
  Al14     1.0000 0.59974  0.82545  0.76100  Biso   1.000  Al
  Al15     1.0000 0.40681  0.55547  0.76480  Biso   1.000  Al
  Al16     1.0000 0.72619  0.63522  0.76320  Biso   1.000  Al
  O49      1.0000 0.62050  0.76590  0.72110  Biso   1.000  O
  O50      1.0000 0.50800  0.69805  0.70370  Biso   1.000  O
  O51      1.0000 0.67190  0.68120  0.66700  Biso   1.000  O
  O52      1.0000 0.59130  0.72783  0.46790  Biso   1.000  O
  O53      1.0000 0.38810  0.77802  0.69060  Biso   1.000  O
  O54      1.0000 0.33815  0.86536  0.71000  Biso   1.000  O
  O55      1.0000 0.39750  0.83102  0.46170  Biso   1.000  O
  O56      1.0000 0.49950  0.84574  0.68470  Biso   1.000  O
  O57      1.0000 0.18139  0.63617  0.68790  Biso   1.000  O
  O58      1.0000 0.32050  0.68454  0.71100  Biso   1.000  O
  O59      1.0000 0.28510  0.64469  0.46080  Biso   1.000  O
  O60      1.0000 0.32520  0.59367  0.69330  Biso   1.000  O
  O61      1.0000 0.51300  0.57502  0.70760  Biso   1.000  O
  O62      1.0000 0.61380  0.50086  0.69230  Biso   1.000  O
  O63      1.0000 0.68150  0.58061  0.70860  Biso   1.000  O
  O64      1.0000 0.60110  0.55472  0.46570  Biso   1.000  O
  P17      1.0000 0.40205  0.71796  0.14240  Biso   1.000  P
  P18      1.0000 0.59497  0.82935  0.13870  Biso   1.000  P
  P19      1.0000 0.71995  0.63952  0.13770  Biso   1.000  P
  P20      1.0000 0.39889  0.55285  0.14280  Biso   1.000  P
  Al17     1.0000 0.59360  0.72134  0.26820  Biso   1.000  Al
  Al18     1.0000 0.40026  0.82545  0.26100  Biso   1.000  Al
  Al19     1.0000 0.59319  0.55547  0.26480  Biso   1.000  Al
  Al20     1.0000 0.27381  0.63522  0.26320  Biso   1.000  Al
  O65      1.0000 0.37950  0.76590  0.22110  Biso   1.000  O
  O66      1.0000 0.49200  0.69805  0.20370  Biso   1.000  O
  O67      1.0000 0.32810  0.68120  0.16700  Biso   1.000  O
  O68      1.0000 0.40870  0.72783  0.96790  Biso   1.000  O
  O69      1.0000 0.61190  0.77802  0.19060  Biso   1.000  O
  O70      1.0000 0.66185  0.86536  0.21000  Biso   1.000  O
  O71      1.0000 0.60250  0.83102  0.96170  Biso   1.000  O
  O72      1.0000 0.50050  0.84574  0.18470  Biso   1.000  O
  O73      1.0000 0.81861  0.63617  0.18790  Biso   1.000  O
  O74      1.0000 0.67950  0.68454  0.21100  Biso   1.000  O
  O75      1.0000 0.71490  0.64469  0.96080  Biso   1.000  O
  O76      1.0000 0.67480  0.59367  0.19330  Biso   1.000  O
  O77      1.0000 0.48700  0.57502  0.20760  Biso   1.000  O
  O78      1.0000 0.38620  0.50086  0.19230  Biso   1.000  O
  O79      1.0000 0.31850  0.58061  0.20860  Biso   1.000  O
  O80      1.0000 0.39890  0.55472  0.96570  Biso   1.000  O
  P21      1.0000 0.90205  0.21796  0.64240  Biso   1.000  P
  P22      1.0000 0.09497  0.32935  0.63870  Biso   1.000  P
  P23      1.0000 0.21995  0.13952  0.63770  Biso   1.000  P
  P24      1.0000 0.89889  0.05285  0.64280  Biso   1.000  P
  Al21     1.0000 0.09360  0.22134  0.76820  Biso   1.000  Al
  Al22     1.0000 0.90026  0.32545  0.76100  Biso   1.000  Al
  Al23     1.0000 0.09319  0.05547  0.76480  Biso   1.000  Al
  Al24     1.0000 0.77381  0.13522  0.76320  Biso   1.000  Al
  O81      1.0000 0.87950  0.26590  0.72110  Biso   1.000  O
  O82      1.0000 0.99200  0.19805  0.70370  Biso   1.000  O
  O83      1.0000 0.82810  0.18120  0.66700  Biso   1.000  O
  O84      1.0000 0.90870  0.22783  0.46790  Biso   1.000  O
  O85      1.0000 0.11190  0.27802  0.69060  Biso   1.000  O
  O86      1.0000 0.16185  0.36536  0.71000  Biso   1.000  O
  O87      1.0000 0.10250  0.33102  0.46170  Biso   1.000  O
  O88      1.0000 0.00050  0.34574  0.68470  Biso   1.000  O
  O89      1.0000 0.31861  0.13617  0.68790  Biso   1.000  O
  O90      1.0000 0.17950  0.18454  0.71100  Biso   1.000  O
  O91      1.0000 0.21490  0.14469  0.46080  Biso   1.000  O
  O92      1.0000 0.17480  0.09367  0.69330  Biso   1.000  O
  O93      1.0000 0.98700  0.07502  0.70760  Biso   1.000  O
  O94      1.0000 0.88620  0.00086  0.69230  Biso   1.000  O
  O95      1.0000 0.81850  0.08061  0.70860  Biso   1.000  O
  O96      1.0000 0.89890  0.05472  0.46570  Biso   1.000  O
  P25      1.0000 0.59795  0.28204  0.14240  Biso   1.000  P
  P26      1.0000 0.40503  0.17065  0.13870  Biso   1.000  P
  P27      1.0000 0.28005  0.36048  0.13770  Biso   1.000  P
  P28      1.0000 0.60111  0.44715  0.14280  Biso   1.000  P
  Al25     1.0000 0.40640  0.27866  0.26820  Biso   1.000  Al
  Al26     1.0000 0.59974  0.17455  0.26100  Biso   1.000  Al
  Al27     1.0000 0.40681  0.44453  0.26480  Biso   1.000  Al
  Al28     1.0000 0.72619  0.36478  0.26320  Biso   1.000  Al
  O97      1.0000 0.62050  0.23410  0.22110  Biso   1.000  O
  O98      1.0000 0.50800  0.30195  0.20370  Biso   1.000  O
  O99      1.0000 0.67190  0.31880  0.16700  Biso   1.000  O
  O100     1.0000 0.59130  0.27217  0.96790  Biso   1.000  O
  O101     1.0000 0.38810  0.22198  0.19060  Biso   1.000  O
  O102     1.0000 0.33815  0.13464  0.21000  Biso   1.000  O
  O103     1.0000 0.39750  0.16898  0.96170  Biso   1.000  O
  O104     1.0000 0.49950  0.15426  0.18470  Biso   1.000  O
  O105     1.0000 0.18139  0.36383  0.18790  Biso   1.000  O
  O106     1.0000 0.32050  0.31546  0.21100  Biso   1.000  O
  O107     1.0000 0.28510  0.35531  0.96080  Biso   1.000  O
  O108     1.0000 0.32520  0.40633  0.19330  Biso   1.000  O
  O109     1.0000 0.51300  0.42498  0.20760  Biso   1.000  O
  O110     1.0000 0.61380  0.49914  0.19230  Biso   1.000  O
  O111     1.0000 0.68150  0.41939  0.20860  Biso   1.000  O
  O112     1.0000 0.60110  0.44528  0.96570  Biso   1.000  O
  P29      1.0000 0.09795  0.78204  0.64240  Biso   1.000  P
  P30      1.0000 0.90503  0.67065  0.63870  Biso   1.000  P
  P31      1.0000 0.78005  0.86048  0.63770  Biso   1.000  P
  P32      1.0000 0.10111  0.94715  0.64280  Biso   1.000  P
  Al29     1.0000 0.90640  0.77866  0.76820  Biso   1.000  Al
  Al30     1.0000 0.09974  0.67455  0.76100  Biso   1.000  Al
  Al31     1.0000 0.90681  0.94453  0.76480  Biso   1.000  Al
  Al32     1.0000 0.22619  0.86478  0.76320  Biso   1.000  Al
  O113     1.0000 0.12050  0.73410  0.72110  Biso   1.000  O
  O114     1.0000 0.00800  0.80195  0.70370  Biso   1.000  O
  O115     1.0000 0.17190  0.81880  0.66700  Biso   1.000  O
  O116     1.0000 0.09130  0.77217  0.46790  Biso   1.000  O
  O117     1.0000 0.88810  0.72198  0.69060  Biso   1.000  O
  O118     1.0000 0.83815  0.63464  0.71000  Biso   1.000  O
  O119     1.0000 0.89750  0.66898  0.46170  Biso   1.000  O
  O120     1.0000 0.99950  0.65426  0.68470  Biso   1.000  O
  O121     1.0000 0.68139  0.86383  0.68790  Biso   1.000  O
  O122     1.0000 0.82050  0.81546  0.71100  Biso   1.000  O
  O123     1.0000 0.78510  0.85531  0.46080  Biso   1.000  O
  O124     1.0000 0.82520  0.90633  0.69330  Biso   1.000  O
  O125     1.0000 0.01300  0.92498  0.70760  Biso   1.000  O
  O126     1.0000 0.11380  0.99914  0.69230  Biso   1.000  O
  O127     1.0000 0.18150  0.91939  0.70860  Biso   1.000  O
  O128     1.0000 0.10110  0.94528  0.46570  Biso   1.000  O
