data_image0
_cell_length_a       13.89
_cell_length_b       14.33
_cell_length_c       19.017
_cell_angle_alpha    68.31
_cell_angle_beta     75.83
_cell_angle_gamma    84.36

_symmetry_space_group_name_H-M    "P 1"
_symmetry_int_tables_number       1

loop_
  _symmetry_equiv_pos_as_xyz
  'x, y, z'

loop_
  _atom_site_label
  _atom_site_occupancy
  _atom_site_fract_x
  _atom_site_fract_y
  _atom_site_fract_z
  _atom_site_thermal_displace_type
  _atom_site_B_iso_or_equiv
  _atom_site_type_symbol
  Ni1      1.0000 0.42223  0.62370  0.21767  Biso   1.000  Ni
  Ni2      1.0000 0.17112  0.86447  0.61185  Biso   1.000  Ni
  O1       1.0000 0.72025  0.42460  0.77468  Biso   1.000  O
  O2       1.0000 0.70500  0.58530  0.72910  Biso   1.000  O
  O3       1.0000 0.36221  0.77089  0.18956  Biso   1.000  O
  O4       1.0000 0.36136  0.67571  0.31043  Biso   1.000  O
  O5       1.0000 0.14110  0.72463  0.69702  Biso   1.000  O
  O6       1.0000 0.02526  0.79244  0.63331  Biso   1.000  O
  O7       1.0000 0.21985  0.80999  0.52025  Biso   1.000  O
  O8       1.0000 0.18047  0.96775  0.49519  Biso   1.000  O
  O9       1.0000 0.02605  0.37970  0.88059  Biso   1.000  O
  O10      1.0000 0.22812  0.10168  0.19544  Biso   1.000  O
  N1       1.0000 0.47471  0.60800  0.11171  Biso   1.000  N
  N2       1.0000 0.50230  0.64210  0.98469  Biso   1.000  N
  N3       1.0000 0.46991  0.86800  0.62385  Biso   1.000  N
  N4       1.0000 0.31412  0.89114  0.60915  Biso   1.000  N
  N5       1.0000 0.55860  0.69180  0.20500  Biso   1.000  N
  N6       1.0000 0.68170  0.74960  0.23090  Biso   1.000  N
  N7       1.0000 0.97410  0.95650  0.25845  Biso   1.000  N
  N8       1.0000 0.88572  0.05910  0.31471  Biso   1.000  N
  C1       1.0000 0.62750  0.50120  0.13100  Biso   1.000  C
  H1       1.0000 0.61660  0.48780  0.18400  Biso   1.000  H
  C2       1.0000 0.56280  0.56090  0.08836  Biso   1.000  C
  C3       1.0000 0.57960  0.58250  0.00910  Biso   1.000  C
  C4       1.0000 0.66270  0.54380  0.96980  Biso   1.000  C
  H2       1.0000 0.67430  0.55850  0.91650  Biso   1.000  H
  C5       1.0000 0.72620  0.48330  0.01290  Biso   1.000  C
  H3       1.0000 0.78190  0.45610  0.98840  Biso   1.000  H
  C6       1.0000 0.70920  0.46160  0.09270  Biso   1.000  C
  H4       1.0000 0.75340  0.42010  0.12050  Biso   1.000  H
  C7       1.0000 0.43990  0.65650  0.04794  Biso   1.000  C
  C8       1.0000 0.34860  0.71810  0.04420  Biso   1.000  C
  H5       1.0000 0.31640  0.71700  0.09530  Biso   1.000  H
  H6       1.0000 0.30480  0.69140  0.02450  Biso   1.000  H
  H7       1.0000 0.36520  0.78600  0.01040  Biso   1.000  H
  C9       1.0000 0.48930  0.68470  0.90441  Biso   1.000  C
  H8       1.0000 0.41890  0.68990  0.90520  Biso   1.000  H
  H9       1.0000 0.51910  0.63960  0.87740  Biso   1.000  H
  C10      1.0000 0.53620  0.78890  0.85970  Biso   1.000  C
  H10      1.0000 0.50810  0.83340  0.88770  Biso   1.000  H
  H11      1.0000 0.60700  0.78330  0.85740  Biso   1.000  H
  C11      1.0000 0.51980  0.83500  0.77740  Biso   1.000  C
  H12      1.0000 0.44940  0.84860  0.78010  Biso   1.000  H
  H13      1.0000 0.55410  0.89870  0.75140  Biso   1.000  H
  C12      1.0000 0.55500  0.77020  0.72980  Biso   1.000  C
  H14      1.0000 0.51050  0.71350  0.75010  Biso   1.000  H
  H15      1.0000 0.61990  0.74370  0.73810  Biso   1.000  H
  C13      1.0000 0.56300  0.81780  0.64201  Biso   1.000  C
  H16      1.0000 0.61620  0.86640  0.61900  Biso   1.000  H
  H17      1.0000 0.57940  0.76620  0.61930  Biso   1.000  H
  C14      1.0000 0.45180  0.96960  0.60275  Biso   1.000  C
  C15      1.0000 0.51100  0.05100  0.58960  Biso   1.000  C
  H18      1.0000 0.57580  0.04120  0.59620  Biso   1.000  H
  C16      1.0000 0.47040  0.14450  0.56670  Biso   1.000  C
  H19      1.0000 0.50790  0.19940  0.55860  Biso   1.000  H
  C17      1.0000 0.37320  0.16050  0.55490  Biso   1.000  C
  H20      1.0000 0.34850  0.22560  0.53700  Biso   1.000  H
  C18      1.0000 0.31460  0.08100  0.56960  Biso   1.000  C
  H21      1.0000 0.24950  0.09140  0.56350  Biso   1.000  H
  C19      1.0000 0.35400  0.98470  0.59354  Biso   1.000  C
  C20      1.0000 0.38600  0.82400  0.62580  Biso   1.000  C
  C21      1.0000 0.37820  0.71600  0.64360  Biso   1.000  C
  H22      1.0000 0.32630  0.70440  0.62250  Biso   1.000  H
  H23      1.0000 0.36320  0.68160  0.69890  Biso   1.000  H
  H24      1.0000 0.44010  0.69120  0.62100  Biso   1.000  H
  C22      1.0000 0.57490  0.82660  0.07030  Biso   1.000  C
  H25      1.0000 0.51960  0.80800  0.05920  Biso   1.000  H
  C23      1.0000 0.63150  0.90560  0.01690  Biso   1.000  C
  H26      1.0000 0.61570  0.93900  0.96890  Biso   1.000  H
  C24      1.0000 0.70950  0.93560  0.03280  Biso   1.000  C
  H27      1.0000 0.74790  0.98830  0.99470  Biso   1.000  H
  C25      1.0000 0.73440  0.89180  0.10240  Biso   1.000  C
  H28      1.0000 0.78560  0.91620  0.11420  Biso   1.000  H
  C26      1.0000 0.67930  0.80780  0.15590  Biso   1.000  C
  C27      1.0000 0.59980  0.77460  0.14040  Biso   1.000  C
  C28      1.0000 0.61150  0.67840  0.25530  Biso   1.000  C
  C29      1.0000 0.59770  0.59520  0.33420  Biso   1.000  C
  H29      1.0000 0.52980  0.57390  0.35180  Biso   1.000  H
  H30      1.0000 0.61440  0.61940  0.37050  Biso   1.000  H
  H31      1.0000 0.64020  0.53940  0.33030  Biso   1.000  H
  C30      1.0000 0.74650  0.77030  0.27590  Biso   1.000  C
  H32      1.0000 0.77180  0.83810  0.24950  Biso   1.000  H
  H33      1.0000 0.70760  0.76500  0.32710  Biso   1.000  H
  C31      1.0000 0.82790  0.70040  0.28350  Biso   1.000  C
  H34      1.0000 0.85600  0.69240  0.23400  Biso   1.000  H
  H35      1.0000 0.80440  0.63550  0.32130  Biso   1.000  H
  C32      1.0000 0.91140  0.73920  0.31040  Biso   1.000  C
  H36      1.0000 0.88250  0.78370  0.33810  Biso   1.000  H
  H37      1.0000 0.94250  0.68290  0.34460  Biso   1.000  H
  C33      1.0000 0.98770  0.79490  0.23720  Biso   1.000  C
  H38      1.0000 0.03630  0.74720  0.22390  Biso   1.000  H
  H39      1.0000 0.95470  0.82570  0.19460  Biso   1.000  H
  C34      1.0000 0.04080  0.87570  0.24710  Biso   1.000  C
  H40      1.0000 0.07090  0.84540  0.29150  Biso   1.000  H
  H41      1.0000 0.09360  0.90340  0.20140  Biso   1.000  H
  C35      1.0000 0.98310  0.92680  0.39600  Biso   1.000  C
  H42      1.0000 0.97560  0.96910  0.42620  Biso   1.000  H
  H43      1.0000 0.05190  0.90890  0.38290  Biso   1.000  H
  H44      1.0000 0.94480  0.86700  0.42570  Biso   1.000  H
  C36      1.0000 0.94760  0.98150  0.32360  Biso   1.000  C
  C37      1.0000 0.92510  0.02410  0.20380  Biso   1.000  C
  C38      1.0000 0.92740  0.03670  0.12680  Biso   1.000  C
  H45      1.0000 0.96520  0.99480  0.10290  Biso   1.000  H
  C39      1.0000 0.87160  0.11270  0.08880  Biso   1.000  C
  H46      1.0000 0.87260  0.12500  0.03710  Biso   1.000  H
  C40      1.0000 0.81390  0.17170  0.12540  Biso   1.000  C
  H47      1.0000 0.77420  0.22090  0.09810  Biso   1.000  H
  C41      1.0000 0.81150  0.16210  0.20170  Biso   1.000  C
  H48      1.0000 0.77290  0.20390  0.22510  Biso   1.000  H
  C42      1.0000 0.87050  0.08570  0.24004  Biso   1.000  C
  C43      1.0000 0.75200  0.50950  0.75530  Biso   1.000  C
  C44      1.0000 0.85490  0.52310  0.76280  Biso   1.000  C
  C45      1.0000 0.89810  0.44600  0.81446  Biso   1.000  C
  H49      1.0000 0.86500  0.38550  0.84240  Biso   1.000  H
  C46      1.0000 0.99000  0.45820  0.82497  Biso   1.000  C
  C47      1.0000 0.04140  0.54730  0.78130  Biso   1.000  C
  H50      1.0000 0.10400  0.55500  0.78770  Biso   1.000  H
  C48      1.0000 0.99920  0.62460  0.72814  Biso   1.000  C
  C49      1.0000 0.90540  0.61290  0.71895  Biso   1.000  C
  H51      1.0000 0.87650  0.66470  0.68380  Biso   1.000  H
  C50      1.0000 0.05740  0.71950  0.68268  Biso   1.000  C
  C51      1.0000 0.11660  0.39600  0.89700  Biso   1.000  C
  H52      1.0000 0.17220  0.39520  0.85480  Biso   1.000  H
  H53      1.0000 0.11460  0.46090  0.90250  Biso   1.000  H
  C52      1.0000 0.12920  0.31330  0.97180  Biso   1.000  C
  H54      1.0000 0.19610  0.31550  0.97790  Biso   1.000  H
  H55      1.0000 0.12100  0.24890  0.96820  Biso   1.000  H
  C53      1.0000 0.34420  0.75930  0.26041  Biso   1.000  C
  C54      1.0000 0.30340  0.84570  0.28540  Biso   1.000  C
  C55      1.0000 0.28660  0.93750  0.23080  Biso   1.000  C
  H56      1.0000 0.30280  0.94620  0.17830  Biso   1.000  H
  C56      1.0000 0.24600  0.01600  0.25380  Biso   1.000  C
  C57      1.0000 0.22470  0.00480  0.33208  Biso   1.000  C
  H57      1.0000 0.19950  0.05860  0.34750  Biso   1.000  H
  C58      1.0000 0.24150  0.91240  0.38675  Biso   1.000  C
  C59      1.0000 0.28060  0.83310  0.36399  Biso   1.000  C
  H58      1.0000 0.29170  0.77140  0.40090  Biso   1.000  H
  C60      1.0000 0.21210  0.89670  0.47157  Biso   1.000  C
  C61      1.0000 0.18370  0.18550  0.21616  Biso   1.000  C
  H59      1.0000 0.22830  0.21110  0.23680  Biso   1.000  H
  H60      1.0000 0.12200  0.16600  0.25500  Biso   1.000  H
  C62      1.0000 0.16450  0.26420  0.14179  Biso   1.000  C
  H61      1.0000 0.22260  0.26880  0.10020  Biso   1.000  H
  H62      1.0000 0.15500  0.32880  0.14810  Biso   1.000  H
  C63      1.0000 0.07480  0.24260  0.11840  Biso   1.000  C
  H63      1.0000 0.01650  0.23890  0.15960  Biso   1.000  H
  H64      1.0000 0.08390  0.17750  0.11280  Biso   1.000  H
  C64      1.0000 0.05640  0.32170  0.04220  Biso   1.000  C
  H65      1.0000 0.98960  0.31400  0.03800  Biso   1.000  H
  H66      1.0000 0.06090  0.38810  0.04350  Biso   1.000  H
  Ni3      1.0000 0.57777  0.37630  0.78233  Biso   1.000  Ni
  Ni4      1.0000 0.82888  0.13553  0.38815  Biso   1.000  Ni
  O11      1.0000 0.27975  0.57540  0.22532  Biso   1.000  O
  O12      1.0000 0.29500  0.41470  0.27090  Biso   1.000  O
  O13      1.0000 0.63779  0.22911  0.81044  Biso   1.000  O
  O14      1.0000 0.63864  0.32429  0.68957  Biso   1.000  O
  O15      1.0000 0.85890  0.27537  0.30298  Biso   1.000  O
  O16      1.0000 0.97474  0.20756  0.36669  Biso   1.000  O
  O17      1.0000 0.78015  0.19001  0.47975  Biso   1.000  O
  O18      1.0000 0.81953  0.03225  0.50481  Biso   1.000  O
  O19      1.0000 0.97395  0.62030  0.11941  Biso   1.000  O
  O20      1.0000 0.77188  0.89832  0.80456  Biso   1.000  O
  N9       1.0000 0.52529  0.39200  0.88829  Biso   1.000  N
  N10      1.0000 0.49770  0.35790  0.01531  Biso   1.000  N
  N11      1.0000 0.53009  0.13200  0.37615  Biso   1.000  N
  N12      1.0000 0.68588  0.10886  0.39085  Biso   1.000  N
  N13      1.0000 0.44140  0.30820  0.79500  Biso   1.000  N
  N14      1.0000 0.31830  0.25040  0.76910  Biso   1.000  N
  N15      1.0000 0.02590  0.04350  0.74155  Biso   1.000  N
  N16      1.0000 0.11428  0.94090  0.68529  Biso   1.000  N
  C65      1.0000 0.37250  0.49880  0.86900  Biso   1.000  C
  H67      1.0000 0.38340  0.51220  0.81600  Biso   1.000  H
  C66      1.0000 0.43720  0.43910  0.91164  Biso   1.000  C
  C67      1.0000 0.42040  0.41750  0.99090  Biso   1.000  C
  C68      1.0000 0.33730  0.45620  0.03020  Biso   1.000  C
  H68      1.0000 0.32570  0.44150  0.08350  Biso   1.000  H
  C69      1.0000 0.27380  0.51670  0.98710  Biso   1.000  C
  H69      1.0000 0.21810  0.54390  0.01160  Biso   1.000  H
  C70      1.0000 0.29080  0.53840  0.90730  Biso   1.000  C
  H70      1.0000 0.24660  0.57990  0.87950  Biso   1.000  H
  C71      1.0000 0.56010  0.34350  0.95206  Biso   1.000  C
  C72      1.0000 0.65140  0.28190  0.95580  Biso   1.000  C
  H71      1.0000 0.68360  0.28300  0.90470  Biso   1.000  H
  H72      1.0000 0.69520  0.30860  0.97550  Biso   1.000  H
  H73      1.0000 0.63480  0.21400  0.98960  Biso   1.000  H
  C73      1.0000 0.51070  0.31530  0.09559  Biso   1.000  C
  H74      1.0000 0.58110  0.31010  0.09480  Biso   1.000  H
  H75      1.0000 0.48090  0.36040  0.12260  Biso   1.000  H
  C74      1.0000 0.46380  0.21110  0.14030  Biso   1.000  C
  H76      1.0000 0.49190  0.16660  0.11230  Biso   1.000  H
  H77      1.0000 0.39300  0.21670  0.14260  Biso   1.000  H
  C75      1.0000 0.48020  0.16500  0.22260  Biso   1.000  C
  H78      1.0000 0.55060  0.15140  0.21990  Biso   1.000  H
  H79      1.0000 0.44590  0.10130  0.24860  Biso   1.000  H
  C76      1.0000 0.44500  0.22980  0.27020  Biso   1.000  C
  H80      1.0000 0.48950  0.28650  0.24990  Biso   1.000  H
  H81      1.0000 0.38010  0.25630  0.26190  Biso   1.000  H
  C77      1.0000 0.43700  0.18220  0.35799  Biso   1.000  C
  H82      1.0000 0.38380  0.13360  0.38100  Biso   1.000  H
  H83      1.0000 0.42060  0.23380  0.38070  Biso   1.000  H
  C78      1.0000 0.54820  0.03040  0.39725  Biso   1.000  C
  C79      1.0000 0.48900  0.94900  0.41040  Biso   1.000  C
  H84      1.0000 0.42420  0.95880  0.40380  Biso   1.000  H
  C80      1.0000 0.52960  0.85550  0.43330  Biso   1.000  C
  H85      1.0000 0.49210  0.80060  0.44140  Biso   1.000  H
  C81      1.0000 0.62680  0.83950  0.44510  Biso   1.000  C
  H86      1.0000 0.65150  0.77440  0.46300  Biso   1.000  H
  C82      1.0000 0.68540  0.91900  0.43040  Biso   1.000  C
  H87      1.0000 0.75050  0.90860  0.43650  Biso   1.000  H
  C83      1.0000 0.64600  0.01530  0.40646  Biso   1.000  C
  C84      1.0000 0.61400  0.17600  0.37420  Biso   1.000  C
  C85      1.0000 0.62180  0.28400  0.35640  Biso   1.000  C
  H88      1.0000 0.67370  0.29560  0.37750  Biso   1.000  H
  H89      1.0000 0.63680  0.31840  0.30110  Biso   1.000  H
  H90      1.0000 0.55990  0.30880  0.37900  Biso   1.000  H
  C86      1.0000 0.42510  0.17340  0.92970  Biso   1.000  C
  H91      1.0000 0.48040  0.19200  0.94080  Biso   1.000  H
  C87      1.0000 0.36850  0.09440  0.98310  Biso   1.000  C
  H92      1.0000 0.38430  0.06100  0.03110  Biso   1.000  H
  C88      1.0000 0.29050  0.06440  0.96720  Biso   1.000  C
  H93      1.0000 0.25210  0.01170  0.00530  Biso   1.000  H
  C89      1.0000 0.26560  0.10820  0.89760  Biso   1.000  C
  H94      1.0000 0.21440  0.08380  0.88580  Biso   1.000  H
  C90      1.0000 0.32070  0.19220  0.84410  Biso   1.000  C
  C91      1.0000 0.40020  0.22540  0.85960  Biso   1.000  C
  C92      1.0000 0.38850  0.32160  0.74470  Biso   1.000  C
  C93      1.0000 0.40230  0.40480  0.66580  Biso   1.000  C
  H95      1.0000 0.47020  0.42610  0.64820  Biso   1.000  H
  H96      1.0000 0.38560  0.38060  0.62950  Biso   1.000  H
  H97      1.0000 0.35980  0.46060  0.66970  Biso   1.000  H
  C94      1.0000 0.25350  0.22970  0.72410  Biso   1.000  C
  H98      1.0000 0.22820  0.16190  0.75050  Biso   1.000  H
  H99      1.0000 0.29240  0.23500  0.67290  Biso   1.000  H
  C95      1.0000 0.17210  0.29960  0.71650  Biso   1.000  C
  H100     1.0000 0.14400  0.30760  0.76600  Biso   1.000  H
  H101     1.0000 0.19560  0.36450  0.67870  Biso   1.000  H
  C96      1.0000 0.08860  0.26080  0.68960  Biso   1.000  C
  H102     1.0000 0.11750  0.21630  0.66190  Biso   1.000  H
  H103     1.0000 0.05750  0.31710  0.65540  Biso   1.000  H
  C97      1.0000 0.01230  0.20510  0.76280  Biso   1.000  C
  H104     1.0000 0.96370  0.25280  0.77610  Biso   1.000  H
  H105     1.0000 0.04530  0.17430  0.80540  Biso   1.000  H
  C98      1.0000 0.95920  0.12430  0.75290  Biso   1.000  C
  H106     1.0000 0.92910  0.15460  0.70850  Biso   1.000  H
  H107     1.0000 0.90640  0.09660  0.79860  Biso   1.000  H
  C99      1.0000 0.01690  0.07320  0.60400  Biso   1.000  C
  H108     1.0000 0.02440  0.03090  0.57380  Biso   1.000  H
  H109     1.0000 0.94810  0.09110  0.61710  Biso   1.000  H
  H110     1.0000 0.05520  0.13300  0.57430  Biso   1.000  H
  C100     1.0000 0.05240  0.01850  0.67640  Biso   1.000  C
  C101     1.0000 0.07490  0.97590  0.79620  Biso   1.000  C
  C102     1.0000 0.07260  0.96330  0.87320  Biso   1.000  C
  H111     1.0000 0.03480  0.00520  0.89710  Biso   1.000  H
  C103     1.0000 0.12840  0.88730  0.91120  Biso   1.000  C
  H112     1.0000 0.12740  0.87500  0.96290  Biso   1.000  H
  C104     1.0000 0.18610  0.82830  0.87460  Biso   1.000  C
  H113     1.0000 0.22580  0.77910  0.90190  Biso   1.000  H
  C105     1.0000 0.18850  0.83790  0.79830  Biso   1.000  C
  H114     1.0000 0.22710  0.79610  0.77490  Biso   1.000  H
  C106     1.0000 0.12950  0.91430  0.75996  Biso   1.000  C
  C107     1.0000 0.24800  0.49050  0.24470  Biso   1.000  C
  C108     1.0000 0.14510  0.47690  0.23720  Biso   1.000  C
  C109     1.0000 0.10190  0.55400  0.18554  Biso   1.000  C
  H115     1.0000 0.13500  0.61450  0.15760  Biso   1.000  H
  C110     1.0000 0.01000  0.54180  0.17503  Biso   1.000  C
  C111     1.0000 0.95860  0.45270  0.21870  Biso   1.000  C
  H116     1.0000 0.89600  0.44500  0.21230  Biso   1.000  H
  C112     1.0000 0.00080  0.37540  0.27186  Biso   1.000  C
  C113     1.0000 0.09460  0.38710  0.28105  Biso   1.000  C
  H117     1.0000 0.12350  0.33530  0.31620  Biso   1.000  H
  C114     1.0000 0.94260  0.28050  0.31732  Biso   1.000  C
  C115     1.0000 0.88340  0.60400  0.10300  Biso   1.000  C
  H118     1.0000 0.82780  0.60480  0.14520  Biso   1.000  H
  H119     1.0000 0.88540  0.53910  0.09750  Biso   1.000  H
  C116     1.0000 0.87080  0.68670  0.02820  Biso   1.000  C
  H120     1.0000 0.80390  0.68450  0.02210  Biso   1.000  H
  H121     1.0000 0.87900  0.75110  0.03180  Biso   1.000  H
  C117     1.0000 0.65580  0.24070  0.73959  Biso   1.000  C
  C118     1.0000 0.69660  0.15430  0.71460  Biso   1.000  C
  C119     1.0000 0.71340  0.06250  0.76920  Biso   1.000  C
  H122     1.0000 0.69720  0.05380  0.82170  Biso   1.000  H
  C120     1.0000 0.75400  0.98400  0.74620  Biso   1.000  C
  C121     1.0000 0.77530  0.99520  0.66792  Biso   1.000  C
  H123     1.0000 0.80050  0.94140  0.65250  Biso   1.000  H
  C122     1.0000 0.75850  0.08760  0.61325  Biso   1.000  C
  C123     1.0000 0.71940  0.16690  0.63601  Biso   1.000  C
  H124     1.0000 0.70830  0.22860  0.59910  Biso   1.000  H
  C124     1.0000 0.78790  0.10330  0.52843  Biso   1.000  C
  C125     1.0000 0.81630  0.81450  0.78384  Biso   1.000  C
  H125     1.0000 0.77170  0.78890  0.76320  Biso   1.000  H
  H126     1.0000 0.87800  0.83400  0.74500  Biso   1.000  H
  C126     1.0000 0.83550  0.73580  0.85821  Biso   1.000  C
  H127     1.0000 0.77740  0.73120  0.89980  Biso   1.000  H
  H128     1.0000 0.84500  0.67120  0.85190  Biso   1.000  H
  C127     1.0000 0.92520  0.75740  0.88160  Biso   1.000  C
  H129     1.0000 0.98350  0.76110  0.84040  Biso   1.000  H
  H130     1.0000 0.91610  0.82250  0.88720  Biso   1.000  H
  C128     1.0000 0.94360  0.67830  0.95780  Biso   1.000  C
  H131     1.0000 0.01040  0.68600  0.96200  Biso   1.000  H
  H132     1.0000 0.93910  0.61190  0.95650  Biso   1.000  H
