data_image0
_cell_length_a       6.4041
_cell_length_b       17.6252
_cell_length_c       7.7271
_cell_angle_alpha    90
_cell_angle_beta     95.586
_cell_angle_gamma    90

_symmetry_space_group_name_H-M    "P 1"
_symmetry_int_tables_number       1

loop_
  _symmetry_equiv_pos_as_xyz
  'x, y, z'

loop_
  _atom_site_label
  _atom_site_occupancy
  _atom_site_fract_x
  _atom_site_fract_y
  _atom_site_fract_z
  _atom_site_thermal_displace_type
  _atom_site_B_iso_or_equiv
  _atom_site_type_symbol
  V1       1.0000 0.48840  0.43330  0.68210  Biso   1.000  V
  V2       1.0000 0.01610  0.25110  0.81870  Biso   1.000  V
  P1       1.0000 0.00610  0.42990  0.75530  Biso   1.000  P
  P2       1.0000 0.50300  0.25510  0.74350  Biso   1.000  P
  O1       1.0000 0.04750  0.36040  0.87400  Biso   1.000  O
  O2       1.0000 0.46380  0.32440  0.62370  Biso   1.000  O
  O3       1.0000 0.79510  0.42640  0.64880  Biso   1.000  O
  O4       1.0000 0.71220  0.25800  0.85360  Biso   1.000  O
  O5       1.0000 0.17110  0.44260  0.63130  Biso   1.000  O
  O6       1.0000 0.32620  0.24700  0.86350  Biso   1.000  O
  O7       1.0000 0.97590  0.71750  0.87870  Biso   1.000  O
  O8       1.0000 0.99660  0.64090  0.10170  Biso   1.000  O
  O9       1.0000 0.53190  0.96440  0.61770  Biso   1.000  O
  O10      1.0000 0.50360  0.04420  0.40450  Biso   1.000  O
  C1       1.0000 0.00850  0.50880  0.90180  Biso   1.000  C
  C2       1.0000 0.49810  0.17440  0.59950  Biso   1.000  C
  C3       1.0000 0.51390  0.09530  0.68750  Biso   1.000  C
  C4       1.0000 0.99110  0.58410  0.80950  Biso   1.000  C
  C5       1.0000 0.51290  0.03170  0.56480  Biso   1.000  C
  C6       1.0000 0.98140  0.65100  0.93590  Biso   1.000  C
  H1       1.0000 0.89260  0.50370  0.97300  Biso   1.000  H
  H2       1.0000 0.13770  0.50780  0.97860  Biso   1.000  H
  H3       1.0000 0.36890  0.17620  0.52290  Biso   1.000  H
  H4       1.0000 0.61340  0.17940  0.52760  Biso   1.000  H
  H5       1.0000 0.64210  0.09320  0.76530  Biso   1.000  H
  H6       1.0000 0.39710  0.08930  0.75730  Biso   1.000  H
  H7       1.0000 0.86580  0.58420  0.72820  Biso   1.000  H
  H8       1.0000 0.11110  0.59060  0.74340  Biso   1.000  H
  V3       1.0000 0.51160  0.93330  0.31790  Biso   1.000  V
  V4       1.0000 0.98390  0.75110  0.18130  Biso   1.000  V
  P3       1.0000 0.99390  0.92990  0.24470  Biso   1.000  P
  P4       1.0000 0.49700  0.75510  0.25650  Biso   1.000  P
  O11      1.0000 0.95250  0.86040  0.12600  Biso   1.000  O
  O12      1.0000 0.53620  0.82440  0.37630  Biso   1.000  O
  O13      1.0000 0.20490  0.92640  0.35120  Biso   1.000  O
  O14      1.0000 0.28780  0.75800  0.14640  Biso   1.000  O
  O15      1.0000 0.82890  0.94260  0.36870  Biso   1.000  O
  O16      1.0000 0.67380  0.74700  0.13650  Biso   1.000  O
  O17      1.0000 0.02410  0.21750  0.12130  Biso   1.000  O
  O18      1.0000 0.00340  0.14090  0.89830  Biso   1.000  O
  O19      1.0000 0.46810  0.46440  0.38230  Biso   1.000  O
  O20      1.0000 0.49640  0.54420  0.59550  Biso   1.000  O
  C7       1.0000 0.99150  0.00880  0.09820  Biso   1.000  C
  C8       1.0000 0.50190  0.67440  0.40050  Biso   1.000  C
  C9       1.0000 0.48610  0.59530  0.31250  Biso   1.000  C
  C10      1.0000 0.00890  0.08410  0.19050  Biso   1.000  C
  C11      1.0000 0.48710  0.53170  0.43520  Biso   1.000  C
  C12      1.0000 0.01860  0.15100  0.06410  Biso   1.000  C
  H9       1.0000 0.10740  0.00370  0.02700  Biso   1.000  H
  H10      1.0000 0.86230  0.00780  0.02140  Biso   1.000  H
  H11      1.0000 0.63110  0.67620  0.47710  Biso   1.000  H
  H12      1.0000 0.38660  0.67940  0.47240  Biso   1.000  H
  H13      1.0000 0.35790  0.59320  0.23470  Biso   1.000  H
  H14      1.0000 0.60290  0.58930  0.24270  Biso   1.000  H
  H15      1.0000 0.13420  0.08420  0.27180  Biso   1.000  H
  H16      1.0000 0.88890  0.09060  0.25660  Biso   1.000  H
