data_image0
_cell_length_a       8.9711
_cell_length_b       14.1439
_cell_length_c       19.8782
_cell_angle_alpha    82.151
_cell_angle_beta     82.397
_cell_angle_gamma    74.901

_symmetry_space_group_name_H-M    "P 1"
_symmetry_int_tables_number       1

loop_
  _symmetry_equiv_pos_as_xyz
  'x, y, z'

loop_
  _atom_site_label
  _atom_site_occupancy
  _atom_site_fract_x
  _atom_site_fract_y
  _atom_site_fract_z
  _atom_site_thermal_displace_type
  _atom_site_B_iso_or_equiv
  _atom_site_type_symbol
  Zn1      1.0000 0.38289  0.48184  0.63663  Biso   1.000  Zn
  Zn2      1.0000 0.49046  0.02607  0.88311  Biso   1.000  Zn
  V1       1.0000 0.99130  0.55990  0.58255  Biso   1.000  V
  V2       1.0000 0.77908  0.41481  0.69276  Biso   1.000  V
  V3       1.0000 0.97273  0.19668  0.74761  Biso   1.000  V
  V4       1.0000 0.83282  0.10977  0.90050  Biso   1.000  V
  V5       1.0000 0.84390  0.07187  0.06392  Biso   1.000  V
  C1       1.0000 0.97930  0.53210  0.93150  Biso   1.000  C
  C2       1.0000 0.99970  0.43260  0.95480  Biso   1.000  C
  C3       1.0000 0.01820  0.40110  0.02400  Biso   1.000  C
  C4       1.0000 0.39300  0.06320  0.54240  Biso   1.000  C
  C5       1.0000 0.45410  0.96530  0.56650  Biso   1.000  C
  C6       1.0000 0.55990  0.90160  0.52460  Biso   1.000  C
  C7       1.0000 0.95120  0.56770  0.85880  Biso   1.000  C
  H1       1.0000 0.88270  0.53310  0.84440  Biso   1.000  H
  H2       1.0000 0.89980  0.63740  0.85530  Biso   1.000  H
  C8       1.0000 0.32040  0.55900  0.77510  Biso   1.000  C
  H3       1.0000 0.41890  0.57040  0.77020  Biso   1.000  H
  C9       1.0000 0.13000  0.51490  0.75460  Biso   1.000  C
  H4       1.0000 0.06350  0.48880  0.73470  Biso   1.000  H
  C10      1.0000 0.00230  0.35730  0.90570  Biso   1.000  C
  H5       1.0000 0.93170  0.31700  0.92520  Biso   1.000  H
  H6       1.0000 0.96630  0.39190  0.86300  Biso   1.000  H
  C11      1.0000 0.39250  0.25130  0.85940  Biso   1.000  C
  H7       1.0000 0.49300  0.25360  0.84190  Biso   1.000  H
  C12      1.0000 0.20240  0.19870  0.90230  Biso   1.000  C
  H8       1.0000 0.13810  0.15780  0.92120  Biso   1.000  H
  C13      1.0000 0.02730  0.29420  0.05120  Biso   1.000  C
  H9       1.0000 0.96980  0.29180  0.09600  Biso   1.000  H
  H10      1.0000 0.97810  0.26540  0.02140  Biso   1.000  H
  C14      1.0000 0.42720  0.18880  0.04160  Biso   1.000  C
  H11      1.0000 0.53070  0.18830  0.02820  Biso   1.000  H
  C15      1.0000 0.23270  0.14100  0.08120  Biso   1.000  C
  H12      1.0000 0.16600  0.10210  0.10090  Biso   1.000  H
  C16      1.0000 0.28150  0.13090  0.58840  Biso   1.000  C
  H13      1.0000 0.19050  0.16460  0.56530  Biso   1.000  H
  H14      1.0000 0.24810  0.09270  0.62920  Biso   1.000  H
  C17      1.0000 0.30520  0.30090  0.60140  Biso   1.000  C
  H15      1.0000 0.21620  0.33690  0.58170  Biso   1.000  H
  C18      1.0000 0.51040  0.25840  0.64950  Biso   1.000  C
  H16      1.0000 0.59570  0.26270  0.66980  Biso   1.000  H
  C19      1.0000 0.39870  0.92460  0.63780  Biso   1.000  C
  H17      1.0000 0.28690  0.94860  0.64580  Biso   1.000  H
  H18      1.0000 0.42280  0.85330  0.64070  Biso   1.000  H
  C20      1.0000 0.40920  0.98970  0.74770  Biso   1.000  C
  H19      1.0000 0.30320  0.00730  0.76090  Biso   1.000  H
  C21      1.0000 0.64670  0.96680  0.74250  Biso   1.000  C
  H20      1.0000 0.74450  0.96470  0.75430  Biso   1.000  H
  C22      1.0000 0.63500  0.79860  0.55390  Biso   1.000  C
  H21      1.0000 0.73080  0.77370  0.52590  Biso   1.000  H
  H22      1.0000 0.66110  0.80070  0.59940  Biso   1.000  H
  N1       1.0000 0.43960  0.60350  0.58080  Biso   1.000  N
  N2       1.0000 0.41030  0.74950  0.52020  Biso   1.000  N
  N3       1.0000 0.09710  0.55230  0.81250  Biso   1.000  N
  N4       1.0000 0.22200  0.58050  0.82790  Biso   1.000  N
  N5       1.0000 0.26970  0.51910  0.72830  Biso   1.000  N
  N6       1.0000 0.15760  0.29390  0.89220  Biso   1.000  N
  N7       1.0000 0.27760  0.33130  0.86390  Biso   1.000  N
  N8       1.0000 0.35290  0.16710  0.88180  Biso   1.000  N
  N9       1.0000 0.18790  0.23480  0.05630  Biso   1.000  N
  N10      1.0000 0.31210  0.26720  0.02980  Biso   1.000  N
  N11      1.0000 0.38310  0.11140  0.07410  Biso   1.000  N
  N12      1.0000 0.35480  0.20390  0.60750  Biso   1.000  N
  N13      1.0000 0.48540  0.17490  0.63990  Biso   1.000  N
  N14      1.0000 0.40100  0.33850  0.62740  Biso   1.000  N
  N15      1.0000 0.47170  0.95360  0.69040  Biso   1.000  N
  N16      1.0000 0.62800  0.94050  0.68650  Biso   1.000  N
  N17      1.0000 0.51630  0.99780  0.78390  Biso   1.000  N
  N18      1.0000 0.53280  0.73000  0.55750  Biso   1.000  N
  C23      1.0000 0.54700  0.64540  0.59140  Biso   1.000  C
  H23      1.0000 0.62430  0.61700  0.62010  Biso   1.000  H
  C24      1.0000 0.35970  0.67000  0.53630  Biso   1.000  C
  H24      1.0000 0.27490  0.66060  0.51820  Biso   1.000  H
  O1       1.0000 0.17680  0.51790  0.58730  Biso   1.000  O
  O2       1.0000 0.93910  0.59560  0.50910  Biso   1.000  O
  O3       1.0000 0.89430  0.47890  0.63260  Biso   1.000  O
  O4       1.0000 0.84680  0.28450  0.69440  Biso   1.000  O
  O5       1.0000 0.89060  0.19410  0.83610  Biso   1.000  O
  O6       1.0000 0.67370  0.08000  0.89240  Biso   1.000  O
  O7       1.0000 0.98420  0.00340  0.90130  Biso   1.000  O
  O8       1.0000 0.83620  0.14740  0.98060  Biso   1.000  O
  O9       1.0000 0.70400  0.01970  0.07950  Biso   1.000  O
  O10      1.0000 0.94290  0.66650  0.60910  Biso   1.000  O
  O11      1.0000 0.60120  0.44490  0.67340  Biso   1.000  O
  V6       1.0000 0.01310  0.51560  0.56089  Biso   1.000  V
  Zn3      1.0000 0.61711  0.51816  0.36337  Biso   1.000  Zn
  Zn4      1.0000 0.50954  0.97393  0.11689  Biso   1.000  Zn
  V7       1.0000 0.00870  0.44010  0.41745  Biso   1.000  V
  V8       1.0000 0.22092  0.58519  0.30724  Biso   1.000  V
  V9       1.0000 0.02727  0.80332  0.25239  Biso   1.000  V
  V10      1.0000 0.16718  0.89023  0.09950  Biso   1.000  V
  V11      1.0000 0.15610  0.92813  0.93608  Biso   1.000  V
  C25      1.0000 0.02070  0.46790  0.06850  Biso   1.000  C
  C26      1.0000 0.00030  0.56740  0.04520  Biso   1.000  C
  C27      1.0000 0.98180  0.59890  0.97600  Biso   1.000  C
  C28      1.0000 0.60700  0.93680  0.45760  Biso   1.000  C
  C29      1.0000 0.54590  0.03470  0.43350  Biso   1.000  C
  C30      1.0000 0.44010  0.09840  0.47540  Biso   1.000  C
  C31      1.0000 0.04880  0.43230  0.14120  Biso   1.000  C
  H25      1.0000 0.11730  0.46690  0.15560  Biso   1.000  H
  H26      1.0000 0.10020  0.36260  0.14470  Biso   1.000  H
  C32      1.0000 0.67960  0.44100  0.22490  Biso   1.000  C
  H27      1.0000 0.58110  0.42960  0.22980  Biso   1.000  H
  C33      1.0000 0.87000  0.48510  0.24540  Biso   1.000  C
  H28      1.0000 0.93650  0.51120  0.26530  Biso   1.000  H
  C34      1.0000 0.99770  0.64270  0.09430  Biso   1.000  C
  H29      1.0000 0.06830  0.68300  0.07480  Biso   1.000  H
  H30      1.0000 0.03370  0.60810  0.13700  Biso   1.000  H
  C35      1.0000 0.60750  0.74870  0.14060  Biso   1.000  C
  H31      1.0000 0.50700  0.74640  0.15810  Biso   1.000  H
  C36      1.0000 0.79760  0.80130  0.09770  Biso   1.000  C
  H32      1.0000 0.86190  0.84220  0.07880  Biso   1.000  H
  C37      1.0000 0.97270  0.70580  0.94880  Biso   1.000  C
  H33      1.0000 0.03020  0.70820  0.90400  Biso   1.000  H
  H34      1.0000 0.02190  0.73460  0.97860  Biso   1.000  H
  C38      1.0000 0.57280  0.81120  0.95840  Biso   1.000  C
  H35      1.0000 0.46930  0.81170  0.97180  Biso   1.000  H
  C39      1.0000 0.76730  0.85900  0.91880  Biso   1.000  C
  H36      1.0000 0.83400  0.89790  0.89910  Biso   1.000  H
  C40      1.0000 0.71850  0.86910  0.41160  Biso   1.000  C
  H37      1.0000 0.80950  0.83540  0.43470  Biso   1.000  H
  H38      1.0000 0.75190  0.90730  0.37080  Biso   1.000  H
  C41      1.0000 0.69480  0.69910  0.39860  Biso   1.000  C
  H39      1.0000 0.78380  0.66310  0.41830  Biso   1.000  H
  C42      1.0000 0.48960  0.74160  0.35050  Biso   1.000  C
  H40      1.0000 0.40430  0.73730  0.33020  Biso   1.000  H
  C43      1.0000 0.60130  0.07540  0.36220  Biso   1.000  C
  H41      1.0000 0.71310  0.05140  0.35420  Biso   1.000  H
  H42      1.0000 0.57720  0.14670  0.35930  Biso   1.000  H
  C44      1.0000 0.59080  0.01030  0.25230  Biso   1.000  C
  H43      1.0000 0.69680  0.99270  0.23910  Biso   1.000  H
  C45      1.0000 0.35330  0.03320  0.25750  Biso   1.000  C
  H44      1.0000 0.25550  0.03530  0.24570  Biso   1.000  H
  C46      1.0000 0.36500  0.20140  0.44610  Biso   1.000  C
  H45      1.0000 0.26920  0.22630  0.47410  Biso   1.000  H
  H46      1.0000 0.33890  0.19930  0.40060  Biso   1.000  H
  N19      1.0000 0.56040  0.39650  0.41920  Biso   1.000  N
  N20      1.0000 0.58970  0.25050  0.47980  Biso   1.000  N
  N21      1.0000 0.90290  0.44770  0.18750  Biso   1.000  N
  N22      1.0000 0.77800  0.41950  0.17210  Biso   1.000  N
  N23      1.0000 0.73030  0.48090  0.27170  Biso   1.000  N
  N24      1.0000 0.84240  0.70610  0.10780  Biso   1.000  N
  N25      1.0000 0.72240  0.66870  0.13610  Biso   1.000  N
  N26      1.0000 0.64710  0.83290  0.11820  Biso   1.000  N
  N27      1.0000 0.81210  0.76520  0.94370  Biso   1.000  N
  N28      1.0000 0.68790  0.73280  0.97020  Biso   1.000  N
  N29      1.0000 0.61690  0.88860  0.92590  Biso   1.000  N
  N30      1.0000 0.64520  0.79610  0.39250  Biso   1.000  N
  N31      1.0000 0.51460  0.82510  0.36010  Biso   1.000  N
  N32      1.0000 0.59900  0.66150  0.37260  Biso   1.000  N
  N33      1.0000 0.52830  0.04640  0.30960  Biso   1.000  N
  N34      1.0000 0.37200  0.05950  0.31350  Biso   1.000  N
  N35      1.0000 0.48370  0.00220  0.21610  Biso   1.000  N
  N36      1.0000 0.46720  0.27000  0.44250  Biso   1.000  N
  C47      1.0000 0.45300  0.35460  0.40860  Biso   1.000  C
  H47      1.0000 0.37570  0.38300  0.37990  Biso   1.000  H
  C48      1.0000 0.64030  0.33000  0.46370  Biso   1.000  C
  H48      1.0000 0.72510  0.33940  0.48180  Biso   1.000  H
  O12      1.0000 0.82320  0.48210  0.41270  Biso   1.000  O
  O13      1.0000 0.06090  0.40440  0.49090  Biso   1.000  O
  O14      1.0000 0.10570  0.52110  0.36740  Biso   1.000  O
  O15      1.0000 0.15320  0.71550  0.30560  Biso   1.000  O
  O16      1.0000 0.10940  0.80590  0.16390  Biso   1.000  O
  O17      1.0000 0.32630  0.92000  0.10760  Biso   1.000  O
  O18      1.0000 0.01580  0.99660  0.09870  Biso   1.000  O
  O19      1.0000 0.16380  0.85260  0.01940  Biso   1.000  O
  O20      1.0000 0.29600  0.98030  0.92050  Biso   1.000  O
  O21      1.0000 0.05710  0.33350  0.39090  Biso   1.000  O
  O22      1.0000 0.39880  0.55510  0.32660  Biso   1.000  O
  V12      1.0000 0.98690  0.48440  0.43911  Biso   1.000  V
