data_image0
_cell_length_a       13.0737
_cell_length_b       20.2192
_cell_length_c       19.6196
_cell_angle_alpha    90
_cell_angle_beta     115.529
_cell_angle_gamma    90

_symmetry_space_group_name_H-M    "P 1"
_symmetry_int_tables_number       1

loop_
  _symmetry_equiv_pos_as_xyz
  'x, y, z'

loop_
  _atom_site_label
  _atom_site_occupancy
  _atom_site_fract_x
  _atom_site_fract_y
  _atom_site_fract_z
  _atom_site_thermal_displace_type
  _atom_site_B_iso_or_equiv
  _atom_site_type_symbol
  Zn1      1.0000 0.14444  0.62658  0.82507  Biso   1.000  Zn
  Zn2      1.0000 0.89755  0.46495  0.75113  Biso   1.000  Zn
  V1       1.0000 0.16455  0.55212  0.99149  Biso   1.000  V
  V2       1.0000 0.03656  0.41448  0.95075  Biso   1.000  V
  V3       1.0000 0.78478  0.52927  0.55939  Biso   1.000  V
  V4       1.0000 0.02341  0.61231  0.63993  Biso   1.000  V
  V5       1.0000 0.17942  0.58792  0.54875  Biso   1.000  V
  C1       1.0000 0.75380  0.79170  0.85220  Biso   1.000  C
  C2       1.0000 0.68930  0.73390  0.83490  Biso   1.000  C
  C3       1.0000 0.57390  0.73580  0.78530  Biso   1.000  C
  C4       1.0000 0.52230  0.79610  0.75570  Biso   1.000  C
  C5       1.0000 0.58660  0.85390  0.77400  Biso   1.000  C
  C6       1.0000 0.70300  0.85160  0.82210  Biso   1.000  C
  C7       1.0000 0.87890  0.78860  0.90240  Biso   1.000  C
  H1       1.0000 0.90690  0.83280  0.91980  Biso   1.000  H
  H2       1.0000 0.89200  0.76170  0.94640  Biso   1.000  H
  C8       1.0000 0.99660  0.74980  0.77790  Biso   1.000  C
  H3       1.0000 0.00630  0.75540  0.73400  Biso   1.000  H
  C9       1.0000 0.01360  0.71170  0.88320  Biso   1.000  C
  H4       1.0000 0.03530  0.68710  0.92720  Biso   1.000  H
  C10      1.0000 0.74280  0.66860  0.86990  Biso   1.000  C
  H5       1.0000 0.80970  0.67680  0.91660  Biso   1.000  H
  H6       1.0000 0.68970  0.64340  0.88200  Biso   1.000  H
  C11      1.0000 0.80970  0.60850  0.72740  Biso   1.000  C
  H7       1.0000 0.81650  0.61210  0.68230  Biso   1.000  H
  C12      1.0000 0.81660  0.56960  0.82800  Biso   1.000  C
  H8       1.0000 0.82840  0.54220  0.86880  Biso   1.000  H
  C13      1.0000 0.50760  0.67190  0.76300  Biso   1.000  C
  H9       1.0000 0.46130  0.67150  0.70890  Biso   1.000  H
  H10      1.0000 0.55980  0.63490  0.77560  Biso   1.000  H
  C14      1.0000 0.39020  0.65900  0.89090  Biso   1.000  C
  H11      1.0000 0.39340  0.66020  0.93920  Biso   1.000  H
  C15      1.0000 0.32710  0.64890  0.77370  Biso   1.000  C
  H12      1.0000 0.28020  0.64180  0.72280  Biso   1.000  H
  C16      1.0000 0.39680  0.79850  0.70350  Biso   1.000  C
  H13      1.0000 0.38530  0.82290  0.65820  Biso   1.000  H
  H14      1.0000 0.36890  0.75390  0.68860  Biso   1.000  H
  C17      1.0000 0.27040  0.84890  0.81870  Biso   1.000  C
  H15      1.0000 0.25910  0.84770  0.86240  Biso   1.000  H
  C18      1.0000 0.25810  0.87780  0.71290  Biso   1.000  C
  H16      1.0000 0.23790  0.89870  0.66670  Biso   1.000  H
  C19      1.0000 0.53130  0.91910  0.74050  Biso   1.000  C
  H17      1.0000 0.58170  0.94460  0.72610  Biso   1.000  H
  H18      1.0000 0.46190  0.91100  0.69540  Biso   1.000  H
  C20      1.0000 0.51950  0.94140  0.86370  Biso   1.000  C
  H19      1.0000 0.54830  0.90150  0.88790  Biso   1.000  H
  C21      1.0000 0.45240  0.03630  0.83820  Biso   1.000  C
  H20      1.0000 0.42460  0.07740  0.84310  Biso   1.000  H
  C22      1.0000 0.77040  0.91580  0.84120  Biso   1.000  C
  H21      1.0000 0.71950  0.95260  0.83480  Biso   1.000  H
  H22      1.0000 0.82570  0.91480  0.89360  Biso   1.000  H
  C23      1.0000 0.84890  0.93960  0.69420  Biso   1.000  C
  H23      1.0000 0.83400  0.94390  0.64360  Biso   1.000  H
  C24      1.0000 0.93770  0.93220  0.81190  Biso   1.000  C
  H24      1.0000 0.99450  0.93040  0.86100  Biso   1.000  H
  N1       1.0000 0.94080  0.76063  0.86260  Biso   1.000  N
  N2       1.0000 0.92840  0.78650  0.79540  Biso   1.000  N
  N3       1.0000 0.05160  0.70280  0.83060  Biso   1.000  N
  N4       1.0000 0.77440  0.63005  0.81870  Biso   1.000  N
  N5       1.0000 0.77030  0.65601  0.75420  Biso   1.000  N
  N6       1.0000 0.83960  0.55374  0.77060  Biso   1.000  N
  N7       1.0000 0.43530  0.66425  0.80160  Biso   1.000  N
  N8       1.0000 0.47770  0.67070  0.87700  Biso   1.000  N
  N9       1.0000 0.29500  0.64510  0.82860  Biso   1.000  N
  N10      1.0000 0.33230  0.82993  0.73960  Biso   1.000  N
  N11      1.0000 0.34010  0.80930  0.80710  Biso   1.000  N
  N12      1.0000 0.21620  0.89178  0.76190  Biso   1.000  N
  N13      1.0000 0.50550  0.95670  0.79460  Biso   1.000  N
  N14      1.0000 0.46110  0.01820  0.77660  Biso   1.000  N
  N15      1.0000 0.48650  0.99114  0.89320  Biso   1.000  N
  N16      1.0000 0.82890  0.92595  0.79290  Biso   1.000  N
  N17      1.0000 0.76980  0.93120  0.71710  Biso   1.000  N
  N18      1.0000 0.95430  0.94162  0.75090  Biso   1.000  N
  O1       1.0000 0.16690  0.57331  0.91100  Biso   1.000  O
  O2       1.0000 0.04190  0.58775  0.99430  Biso   1.000  O
  O3       1.0000 0.15980  0.46420  0.00060  Biso   1.000  O
  O4       1.0000 0.96300  0.44850  0.86873  Biso   1.000  O
  O5       1.0000 0.83140  0.48220  0.63437  Biso   1.000  O
  O6       1.0000 0.65610  0.55297  0.54060  Biso   1.000  O
  O7       1.0000 0.87530  0.60067  0.57980  Biso   1.000  O
  O8       1.0000 0.05410  0.58798  0.72780  Biso   1.000  O
  O9       1.0000 0.11040  0.56820  0.60850  Biso   1.000  O
  O10      1.0000 0.21840  0.51170  0.51990  Biso   1.000  O
  Zn3      1.0000 0.85556  0.12658  0.67493  Biso   1.000  Zn
  Zn4      1.0000 0.10245  0.96495  0.74887  Biso   1.000  Zn
  V6       1.0000 0.83545  0.05212  0.50851  Biso   1.000  V
  V7       1.0000 0.96344  0.91448  0.54925  Biso   1.000  V
  V8       1.0000 0.21522  0.02927  0.94061  Biso   1.000  V
  V9       1.0000 0.97659  0.11231  0.86007  Biso   1.000  V
  V10      1.0000 0.82058  0.08792  0.95125  Biso   1.000  V
  C25      1.0000 0.24620  0.29170  0.64780  Biso   1.000  C
  C26      1.0000 0.31070  0.23390  0.66510  Biso   1.000  C
  C27      1.0000 0.42610  0.23580  0.71470  Biso   1.000  C
  C28      1.0000 0.47770  0.29610  0.74430  Biso   1.000  C
  C29      1.0000 0.41340  0.35390  0.72600  Biso   1.000  C
  C30      1.0000 0.29700  0.35160  0.67790  Biso   1.000  C
  C31      1.0000 0.12110  0.28860  0.59760  Biso   1.000  C
  H25      1.0000 0.09310  0.33280  0.58020  Biso   1.000  H
  H26      1.0000 0.10800  0.26170  0.55360  Biso   1.000  H
  C32      1.0000 0.00340  0.24980  0.72210  Biso   1.000  C
  H27      1.0000 0.99370  0.25540  0.76600  Biso   1.000  H
  C33      1.0000 0.98640  0.21170  0.61680  Biso   1.000  C
  H28      1.0000 0.96470  0.18710  0.57280  Biso   1.000  H
  C34      1.0000 0.25720  0.16860  0.63010  Biso   1.000  C
  H29      1.0000 0.19030  0.17680  0.58340  Biso   1.000  H
  H30      1.0000 0.31030  0.14340  0.61800  Biso   1.000  H
  C35      1.0000 0.19030  0.10850  0.77260  Biso   1.000  C
  H31      1.0000 0.18350  0.11210  0.81770  Biso   1.000  H
  C36      1.0000 0.18340  0.06960  0.67200  Biso   1.000  C
  H32      1.0000 0.17160  0.04220  0.63120  Biso   1.000  H
  C37      1.0000 0.49240  0.17190  0.73700  Biso   1.000  C
  H33      1.0000 0.53870  0.17150  0.79110  Biso   1.000  H
  H34      1.0000 0.44020  0.13490  0.72440  Biso   1.000  H
  C38      1.0000 0.60980  0.15900  0.60910  Biso   1.000  C
  H35      1.0000 0.60660  0.16020  0.56080  Biso   1.000  H
  C39      1.0000 0.67290  0.14890  0.72630  Biso   1.000  C
  H36      1.0000 0.71980  0.14180  0.77720  Biso   1.000  H
  C40      1.0000 0.60320  0.29850  0.79650  Biso   1.000  C
  H37      1.0000 0.61470  0.32290  0.84180  Biso   1.000  H
  H38      1.0000 0.63110  0.25390  0.81140  Biso   1.000  H
  C41      1.0000 0.72960  0.34890  0.68130  Biso   1.000  C
  H39      1.0000 0.74090  0.34770  0.63760  Biso   1.000  H
  C42      1.0000 0.74190  0.37780  0.78710  Biso   1.000  C
  H40      1.0000 0.76210  0.39870  0.83330  Biso   1.000  H
  C43      1.0000 0.46870  0.41910  0.75950  Biso   1.000  C
  H41      1.0000 0.41830  0.44460  0.77390  Biso   1.000  H
  H42      1.0000 0.53810  0.41100  0.80460  Biso   1.000  H
  C44      1.0000 0.48050  0.44140  0.63630  Biso   1.000  C
  H43      1.0000 0.45170  0.40150  0.61210  Biso   1.000  H
  C45      1.0000 0.54760  0.53630  0.66180  Biso   1.000  C
  H44      1.0000 0.57540  0.57740  0.65690  Biso   1.000  H
  C46      1.0000 0.22960  0.41580  0.65880  Biso   1.000  C
  H45      1.0000 0.28050  0.45260  0.66520  Biso   1.000  H
  H46      1.0000 0.17430  0.41480  0.60640  Biso   1.000  H
  C47      1.0000 0.15110  0.43960  0.80580  Biso   1.000  C
  H47      1.0000 0.16600  0.44390  0.85640  Biso   1.000  H
  C48      1.0000 0.06230  0.43220  0.68810  Biso   1.000  C
  H48      1.0000 0.00550  0.43040  0.63900  Biso   1.000  H
  N19      1.0000 0.05920  0.26063  0.63740  Biso   1.000  N
  N20      1.0000 0.07160  0.28650  0.70460  Biso   1.000  N
  N21      1.0000 0.94840  0.20280  0.66940  Biso   1.000  N
  N22      1.0000 0.22560  0.13005  0.68130  Biso   1.000  N
  N23      1.0000 0.22970  0.15601  0.74580  Biso   1.000  N
  N24      1.0000 0.16040  0.05374  0.72940  Biso   1.000  N
  N25      1.0000 0.56470  0.16425  0.69840  Biso   1.000  N
  N26      1.0000 0.52230  0.17070  0.62300  Biso   1.000  N
  N27      1.0000 0.70500  0.14510  0.67140  Biso   1.000  N
  N28      1.0000 0.66770  0.32993  0.76040  Biso   1.000  N
  N29      1.0000 0.65990  0.30930  0.69290  Biso   1.000  N
  N30      1.0000 0.78380  0.39178  0.73810  Biso   1.000  N
  N31      1.0000 0.49450  0.45670  0.70540  Biso   1.000  N
  N32      1.0000 0.53890  0.51820  0.72340  Biso   1.000  N
  N33      1.0000 0.51350  0.49114  0.60680  Biso   1.000  N
  N34      1.0000 0.17110  0.42595  0.70710  Biso   1.000  N
  N35      1.0000 0.23020  0.43120  0.78290  Biso   1.000  N
  N36      1.0000 0.04570  0.44162  0.74910  Biso   1.000  N
  O11      1.0000 0.83310  0.07331  0.58900  Biso   1.000  O
  O12      1.0000 0.95810  0.08775  0.50570  Biso   1.000  O
  O13      1.0000 0.84020  0.96420  0.49940  Biso   1.000  O
  O14      1.0000 0.03700  0.94850  0.63127  Biso   1.000  O
  O15      1.0000 0.16860  0.98220  0.86563  Biso   1.000  O
  O16      1.0000 0.34390  0.05297  0.95940  Biso   1.000  O
  O17      1.0000 0.12470  0.10067  0.92020  Biso   1.000  O
  O18      1.0000 0.94590  0.08798  0.77220  Biso   1.000  O
  O19      1.0000 0.88960  0.06820  0.89150  Biso   1.000  O
  O20      1.0000 0.78160  0.01170  0.98010  Biso   1.000  O
  Zn5      1.0000 0.85556  0.37342  0.17493  Biso   1.000  Zn
  Zn6      1.0000 0.10245  0.53505  0.24887  Biso   1.000  Zn
  V11      1.0000 0.83545  0.44788  0.00851  Biso   1.000  V
  V12      1.0000 0.96344  0.58552  0.04925  Biso   1.000  V
  V13      1.0000 0.21522  0.47073  0.44061  Biso   1.000  V
  V14      1.0000 0.97659  0.38769  0.36007  Biso   1.000  V
  V15      1.0000 0.82058  0.41208  0.45125  Biso   1.000  V
  C49      1.0000 0.24620  0.20830  0.14780  Biso   1.000  C
  C50      1.0000 0.31070  0.26610  0.16510  Biso   1.000  C
  C51      1.0000 0.42610  0.26420  0.21470  Biso   1.000  C
  C52      1.0000 0.47770  0.20390  0.24430  Biso   1.000  C
  C53      1.0000 0.41340  0.14610  0.22600  Biso   1.000  C
  C54      1.0000 0.29700  0.14840  0.17790  Biso   1.000  C
  C55      1.0000 0.12110  0.21140  0.09760  Biso   1.000  C
  H49      1.0000 0.09310  0.16720  0.08020  Biso   1.000  H
  H50      1.0000 0.10800  0.23830  0.05360  Biso   1.000  H
  C56      1.0000 0.00340  0.25020  0.22210  Biso   1.000  C
  H51      1.0000 0.99370  0.24460  0.26600  Biso   1.000  H
  C57      1.0000 0.98640  0.28830  0.11680  Biso   1.000  C
  H52      1.0000 0.96470  0.31290  0.07280  Biso   1.000  H
  C58      1.0000 0.25720  0.33140  0.13010  Biso   1.000  C
  H53      1.0000 0.19030  0.32320  0.08340  Biso   1.000  H
  H54      1.0000 0.31030  0.35660  0.11800  Biso   1.000  H
  C59      1.0000 0.19030  0.39150  0.27260  Biso   1.000  C
  H55      1.0000 0.18350  0.38790  0.31770  Biso   1.000  H
  C60      1.0000 0.18340  0.43040  0.17200  Biso   1.000  C
  H56      1.0000 0.17160  0.45780  0.13120  Biso   1.000  H
  C61      1.0000 0.49240  0.32810  0.23700  Biso   1.000  C
  H57      1.0000 0.53870  0.32850  0.29110  Biso   1.000  H
  H58      1.0000 0.44020  0.36510  0.22440  Biso   1.000  H
  C62      1.0000 0.60980  0.34100  0.10910  Biso   1.000  C
  H59      1.0000 0.60660  0.33980  0.06080  Biso   1.000  H
  C63      1.0000 0.67290  0.35110  0.22630  Biso   1.000  C
  H60      1.0000 0.71980  0.35820  0.27720  Biso   1.000  H
  C64      1.0000 0.60320  0.20150  0.29650  Biso   1.000  C
  H61      1.0000 0.61470  0.17710  0.34180  Biso   1.000  H
  H62      1.0000 0.63110  0.24610  0.31140  Biso   1.000  H
  C65      1.0000 0.72960  0.15110  0.18130  Biso   1.000  C
  H63      1.0000 0.74090  0.15230  0.13760  Biso   1.000  H
  C66      1.0000 0.74190  0.12220  0.28710  Biso   1.000  C
  H64      1.0000 0.76210  0.10130  0.33330  Biso   1.000  H
  C67      1.0000 0.46870  0.08090  0.25950  Biso   1.000  C
  H65      1.0000 0.41830  0.05540  0.27390  Biso   1.000  H
  H66      1.0000 0.53810  0.08900  0.30460  Biso   1.000  H
  C68      1.0000 0.48050  0.05860  0.13630  Biso   1.000  C
  H67      1.0000 0.45170  0.09850  0.11210  Biso   1.000  H
  C69      1.0000 0.54760  0.96370  0.16180  Biso   1.000  C
  H68      1.0000 0.57540  0.92260  0.15690  Biso   1.000  H
  C70      1.0000 0.22960  0.08420  0.15880  Biso   1.000  C
  H69      1.0000 0.28050  0.04740  0.16520  Biso   1.000  H
  H70      1.0000 0.17430  0.08520  0.10640  Biso   1.000  H
  C71      1.0000 0.15110  0.06040  0.30580  Biso   1.000  C
  H71      1.0000 0.16600  0.05610  0.35640  Biso   1.000  H
  C72      1.0000 0.06230  0.06780  0.18810  Biso   1.000  C
  H72      1.0000 0.00550  0.06960  0.13900  Biso   1.000  H
  N37      1.0000 0.05920  0.23937  0.13740  Biso   1.000  N
  N38      1.0000 0.07160  0.21350  0.20460  Biso   1.000  N
  N39      1.0000 0.94840  0.29720  0.16940  Biso   1.000  N
  N40      1.0000 0.22560  0.36995  0.18130  Biso   1.000  N
  N41      1.0000 0.22970  0.34399  0.24580  Biso   1.000  N
  N42      1.0000 0.16040  0.44626  0.22940  Biso   1.000  N
  N43      1.0000 0.56470  0.33575  0.19840  Biso   1.000  N
  N44      1.0000 0.52230  0.32930  0.12300  Biso   1.000  N
  N45      1.0000 0.70500  0.35490  0.17140  Biso   1.000  N
  N46      1.0000 0.66770  0.17007  0.26040  Biso   1.000  N
  N47      1.0000 0.65990  0.19070  0.19290  Biso   1.000  N
  N48      1.0000 0.78380  0.10822  0.23810  Biso   1.000  N
  N49      1.0000 0.49450  0.04330  0.20540  Biso   1.000  N
  N50      1.0000 0.53890  0.98180  0.22340  Biso   1.000  N
  N51      1.0000 0.51350  0.00886  0.10680  Biso   1.000  N
  N52      1.0000 0.17110  0.07405  0.20710  Biso   1.000  N
  N53      1.0000 0.23020  0.06880  0.28290  Biso   1.000  N
  N54      1.0000 0.04570  0.05838  0.24910  Biso   1.000  N
  O21      1.0000 0.83310  0.42669  0.08900  Biso   1.000  O
  O22      1.0000 0.95810  0.41225  0.00570  Biso   1.000  O
  O23      1.0000 0.84020  0.53580  0.99940  Biso   1.000  O
  O24      1.0000 0.03700  0.55150  0.13127  Biso   1.000  O
  O25      1.0000 0.16860  0.51780  0.36563  Biso   1.000  O
  O26      1.0000 0.34390  0.44703  0.45940  Biso   1.000  O
  O27      1.0000 0.12470  0.39933  0.42020  Biso   1.000  O
  O28      1.0000 0.94590  0.41202  0.27220  Biso   1.000  O
  O29      1.0000 0.88960  0.43180  0.39150  Biso   1.000  O
  O30      1.0000 0.78160  0.48830  0.48010  Biso   1.000  O
  Zn7      1.0000 0.14444  0.87342  0.32507  Biso   1.000  Zn
  Zn8      1.0000 0.89755  0.03505  0.25113  Biso   1.000  Zn
  V16      1.0000 0.16455  0.94788  0.49149  Biso   1.000  V
  V17      1.0000 0.03656  0.08552  0.45075  Biso   1.000  V
  V18      1.0000 0.78478  0.97073  0.05939  Biso   1.000  V
  V19      1.0000 0.02341  0.88769  0.13993  Biso   1.000  V
  V20      1.0000 0.17942  0.91208  0.04875  Biso   1.000  V
  C73      1.0000 0.75380  0.70830  0.35220  Biso   1.000  C
  C74      1.0000 0.68930  0.76610  0.33490  Biso   1.000  C
  C75      1.0000 0.57390  0.76420  0.28530  Biso   1.000  C
  C76      1.0000 0.52230  0.70390  0.25570  Biso   1.000  C
  C77      1.0000 0.58660  0.64610  0.27400  Biso   1.000  C
  C78      1.0000 0.70300  0.64840  0.32210  Biso   1.000  C
  C79      1.0000 0.87890  0.71140  0.40240  Biso   1.000  C
  H73      1.0000 0.90690  0.66720  0.41980  Biso   1.000  H
  H74      1.0000 0.89200  0.73830  0.44640  Biso   1.000  H
  C80      1.0000 0.99660  0.75020  0.27790  Biso   1.000  C
  H75      1.0000 0.00630  0.74460  0.23400  Biso   1.000  H
  C81      1.0000 0.01360  0.78830  0.38320  Biso   1.000  C
  H76      1.0000 0.03530  0.81290  0.42720  Biso   1.000  H
  C82      1.0000 0.74280  0.83140  0.36990  Biso   1.000  C
  H77      1.0000 0.80970  0.82320  0.41660  Biso   1.000  H
  H78      1.0000 0.68970  0.85660  0.38200  Biso   1.000  H
  C83      1.0000 0.80970  0.89150  0.22740  Biso   1.000  C
  H79      1.0000 0.81650  0.88790  0.18230  Biso   1.000  H
  C84      1.0000 0.81660  0.93040  0.32800  Biso   1.000  C
  H80      1.0000 0.82840  0.95780  0.36880  Biso   1.000  H
  C85      1.0000 0.50760  0.82810  0.26300  Biso   1.000  C
  H81      1.0000 0.46130  0.82850  0.20890  Biso   1.000  H
  H82      1.0000 0.55980  0.86510  0.27560  Biso   1.000  H
  C86      1.0000 0.39020  0.84100  0.39090  Biso   1.000  C
  H83      1.0000 0.39340  0.83980  0.43920  Biso   1.000  H
  C87      1.0000 0.32710  0.85110  0.27370  Biso   1.000  C
  H84      1.0000 0.28020  0.85820  0.22280  Biso   1.000  H
  C88      1.0000 0.39680  0.70150  0.20350  Biso   1.000  C
  H85      1.0000 0.38530  0.67710  0.15820  Biso   1.000  H
  H86      1.0000 0.36890  0.74610  0.18860  Biso   1.000  H
  C89      1.0000 0.27040  0.65110  0.31870  Biso   1.000  C
  H87      1.0000 0.25910  0.65230  0.36240  Biso   1.000  H
  C90      1.0000 0.25810  0.62220  0.21290  Biso   1.000  C
  H88      1.0000 0.23790  0.60130  0.16670  Biso   1.000  H
  C91      1.0000 0.53130  0.58090  0.24050  Biso   1.000  C
  H89      1.0000 0.58170  0.55540  0.22610  Biso   1.000  H
  H90      1.0000 0.46190  0.58900  0.19540  Biso   1.000  H
  C92      1.0000 0.51950  0.55860  0.36370  Biso   1.000  C
  H91      1.0000 0.54830  0.59850  0.38790  Biso   1.000  H
  C93      1.0000 0.45240  0.46370  0.33820  Biso   1.000  C
  H92      1.0000 0.42460  0.42260  0.34310  Biso   1.000  H
  C94      1.0000 0.77040  0.58420  0.34120  Biso   1.000  C
  H93      1.0000 0.71950  0.54740  0.33480  Biso   1.000  H
  H94      1.0000 0.82570  0.58520  0.39360  Biso   1.000  H
  C95      1.0000 0.84890  0.56040  0.19420  Biso   1.000  C
  H95      1.0000 0.83400  0.55610  0.14360  Biso   1.000  H
  C96      1.0000 0.93770  0.56780  0.31190  Biso   1.000  C
  H96      1.0000 0.99450  0.56960  0.36100  Biso   1.000  H
  N55      1.0000 0.94080  0.73937  0.36260  Biso   1.000  N
  N56      1.0000 0.92840  0.71350  0.29540  Biso   1.000  N
  N57      1.0000 0.05160  0.79720  0.33060  Biso   1.000  N
  N58      1.0000 0.77440  0.86995  0.31870  Biso   1.000  N
  N59      1.0000 0.77030  0.84399  0.25420  Biso   1.000  N
  N60      1.0000 0.83960  0.94626  0.27060  Biso   1.000  N
  N61      1.0000 0.43530  0.83575  0.30160  Biso   1.000  N
  N62      1.0000 0.47770  0.82930  0.37700  Biso   1.000  N
  N63      1.0000 0.29500  0.85490  0.32860  Biso   1.000  N
  N64      1.0000 0.33230  0.67007  0.23960  Biso   1.000  N
  N65      1.0000 0.34010  0.69070  0.30710  Biso   1.000  N
  N66      1.0000 0.21620  0.60822  0.26190  Biso   1.000  N
  N67      1.0000 0.50550  0.54330  0.29460  Biso   1.000  N
  N68      1.0000 0.46110  0.48180  0.27660  Biso   1.000  N
  N69      1.0000 0.48650  0.50886  0.39320  Biso   1.000  N
  N70      1.0000 0.82890  0.57405  0.29290  Biso   1.000  N
  N71      1.0000 0.76980  0.56880  0.21710  Biso   1.000  N
  N72      1.0000 0.95430  0.55838  0.25090  Biso   1.000  N
  O31      1.0000 0.16690  0.92669  0.41100  Biso   1.000  O
  O32      1.0000 0.04190  0.91225  0.49430  Biso   1.000  O
  O33      1.0000 0.15980  0.03580  0.50060  Biso   1.000  O
  O34      1.0000 0.96300  0.05150  0.36873  Biso   1.000  O
  O35      1.0000 0.83140  0.01780  0.13437  Biso   1.000  O
  O36      1.0000 0.65610  0.94703  0.04060  Biso   1.000  O
  O37      1.0000 0.87530  0.89933  0.07980  Biso   1.000  O
  O38      1.0000 0.05410  0.91202  0.22780  Biso   1.000  O
  O39      1.0000 0.11040  0.93180  0.10850  Biso   1.000  O
  O40      1.0000 0.21840  0.98830  0.01990  Biso   1.000  O
  Zn9      1.0000 0.50000  0.50000  0.50000  Biso   1.000  Zn
  Zn10     1.0000 0.50000  0.00000  0.00000  Biso   1.000  Zn
