data_image0
_cell_length_a       10.5197
_cell_length_b       10.5197
_cell_length_c       66.084
_cell_angle_alpha    90
_cell_angle_beta     90
_cell_angle_gamma    120

_symmetry_space_group_name_H-M    "P 1"
_symmetry_int_tables_number       1

loop_
  _symmetry_equiv_pos_as_xyz
  'x, y, z'

loop_
  _atom_site_label
  _atom_site_occupancy
  _atom_site_fract_x
  _atom_site_fract_y
  _atom_site_fract_z
  _atom_site_thermal_displace_type
  _atom_site_B_iso_or_equiv
  _atom_site_type_symbol
  C1       1.0000 0.85500  0.88350  0.50011  Biso   1.000  C
  C2       1.0000 0.69860  0.75960  0.50113  Biso   1.000  C
  H1       1.0000 0.69560  0.67890  0.50860  Biso   1.000  H
  H2       1.0000 0.64060  0.79260  0.50850  Biso   1.000  H
  C3       1.0000 0.46990  0.57550  0.46047  Biso   1.000  C
  H3       1.0000 0.38120  0.50520  0.45490  Biso   1.000  H
  C4       1.0000 0.68400  0.74110  0.46299  Biso   1.000  C
  H4       1.0000 0.77870  0.81610  0.46010  Biso   1.000  H
  N1       1.0000 0.63180  0.70610  0.48119  Biso   1.000  N
  N2       1.0000 0.48820  0.60000  0.48004  Biso   1.000  N
  N3       1.0000 0.58940  0.66000  0.44911  Biso   1.000  N
  C5       1.0000 0.52167  0.21683  0.83344  Biso   1.000  C
  C6       1.0000 0.36527  0.09293  0.83446  Biso   1.000  C
  H5       1.0000 0.36227  0.01223  0.84193  Biso   1.000  H
  H6       1.0000 0.30727  0.12593  0.84183  Biso   1.000  H
  C7       1.0000 0.13657  0.90883  0.79380  Biso   1.000  C
  H7       1.0000 0.04787  0.83853  0.78823  Biso   1.000  H
  C8       1.0000 0.35067  0.07443  0.79632  Biso   1.000  C
  H8       1.0000 0.44537  0.14943  0.79343  Biso   1.000  H
  N4       1.0000 0.29847  0.03943  0.81452  Biso   1.000  N
  N5       1.0000 0.15487  0.93333  0.81337  Biso   1.000  N
  N6       1.0000 0.25607  0.99333  0.78244  Biso   1.000  N
  C9       1.0000 0.18833  0.55017  0.16678  Biso   1.000  C
  C10      1.0000 0.03193  0.42627  0.16780  Biso   1.000  C
  H9       1.0000 0.02893  0.34557  0.17527  Biso   1.000  H
  H10      1.0000 0.97393  0.45927  0.17517  Biso   1.000  H
  C11      1.0000 0.80323  0.24217  0.12714  Biso   1.000  C
  H11      1.0000 0.71453  0.17187  0.12157  Biso   1.000  H
  C12      1.0000 0.01733  0.40777  0.12966  Biso   1.000  C
  H12      1.0000 0.11203  0.48277  0.12677  Biso   1.000  H
  N7       1.0000 0.96513  0.37277  0.14786  Biso   1.000  N
  N8       1.0000 0.82153  0.26667  0.14671  Biso   1.000  N
  N9       1.0000 0.92273  0.32667  0.11578  Biso   1.000  N
  C13      1.0000 0.11650  0.97150  0.50011  Biso   1.000  C
  C14      1.0000 0.24040  0.93900  0.50113  Biso   1.000  C
  H13      1.0000 0.32110  0.01670  0.50860  Biso   1.000  H
  H14      1.0000 0.20740  0.84800  0.50850  Biso   1.000  H
  C15      1.0000 0.42450  0.89440  0.46047  Biso   1.000  C
  H15      1.0000 0.49480  0.87600  0.45490  Biso   1.000  H
  C16      1.0000 0.25890  0.94290  0.46299  Biso   1.000  C
  H16      1.0000 0.18390  0.96260  0.46010  Biso   1.000  H
  N10      1.0000 0.29390  0.92570  0.48119  Biso   1.000  N
  N11      1.0000 0.40000  0.88820  0.48004  Biso   1.000  N
  N12      1.0000 0.34000  0.92940  0.44911  Biso   1.000  N
  C17      1.0000 0.78317  0.30483  0.83344  Biso   1.000  C
  C18      1.0000 0.90707  0.27233  0.83446  Biso   1.000  C
  H17      1.0000 0.98777  0.35003  0.84193  Biso   1.000  H
  H18      1.0000 0.87407  0.18133  0.84183  Biso   1.000  H
  C19      1.0000 0.09117  0.22773  0.79380  Biso   1.000  C
  H19      1.0000 0.16147  0.20933  0.78823  Biso   1.000  H
  C20      1.0000 0.92557  0.27623  0.79632  Biso   1.000  C
  H20      1.0000 0.85057  0.29593  0.79343  Biso   1.000  H
  N13      1.0000 0.96057  0.25903  0.81452  Biso   1.000  N
  N14      1.0000 0.06667  0.22153  0.81337  Biso   1.000  N
  N15      1.0000 0.00667  0.26273  0.78244  Biso   1.000  N
  C21      1.0000 0.44983  0.63817  0.16678  Biso   1.000  C
  C22      1.0000 0.57373  0.60567  0.16780  Biso   1.000  C
  H21      1.0000 0.65443  0.68337  0.17527  Biso   1.000  H
  H22      1.0000 0.54073  0.51467  0.17517  Biso   1.000  H
  C23      1.0000 0.75783  0.56107  0.12714  Biso   1.000  C
  H23      1.0000 0.82813  0.54267  0.12157  Biso   1.000  H
  C24      1.0000 0.59223  0.60957  0.12966  Biso   1.000  C
  H24      1.0000 0.51723  0.62927  0.12677  Biso   1.000  H
  N16      1.0000 0.62723  0.59237  0.14786  Biso   1.000  N
  N17      1.0000 0.73333  0.55487  0.14671  Biso   1.000  N
  N18      1.0000 0.67333  0.59607  0.11578  Biso   1.000  N
  C25      1.0000 0.02850  0.14500  0.50011  Biso   1.000  C
  C26      1.0000 0.06100  0.30140  0.50113  Biso   1.000  C
  H25      1.0000 0.98330  0.30440  0.50860  Biso   1.000  H
  H26      1.0000 0.15200  0.35940  0.50850  Biso   1.000  H
  C27      1.0000 0.10560  0.53010  0.46047  Biso   1.000  C
  H27      1.0000 0.12400  0.61880  0.45490  Biso   1.000  H
  C28      1.0000 0.05710  0.31600  0.46299  Biso   1.000  C
  H28      1.0000 0.03740  0.22130  0.46010  Biso   1.000  H
  N19      1.0000 0.07430  0.36820  0.48119  Biso   1.000  N
  N20      1.0000 0.11180  0.51180  0.48004  Biso   1.000  N
  N21      1.0000 0.07060  0.41060  0.44911  Biso   1.000  N
  C29      1.0000 0.69517  0.47833  0.83344  Biso   1.000  C
  C30      1.0000 0.72767  0.63473  0.83446  Biso   1.000  C
  H29      1.0000 0.64997  0.63773  0.84193  Biso   1.000  H
  H30      1.0000 0.81867  0.69273  0.84183  Biso   1.000  H
  C31      1.0000 0.77227  0.86343  0.79380  Biso   1.000  C
  H31      1.0000 0.79067  0.95213  0.78823  Biso   1.000  H
  C32      1.0000 0.72377  0.64933  0.79632  Biso   1.000  C
  H32      1.0000 0.70407  0.55463  0.79343  Biso   1.000  H
  N22      1.0000 0.74097  0.70153  0.81452  Biso   1.000  N
  N23      1.0000 0.77847  0.84513  0.81337  Biso   1.000  N
  N24      1.0000 0.73727  0.74393  0.78244  Biso   1.000  N
  C33      1.0000 0.36183  0.81167  0.16678  Biso   1.000  C
  C34      1.0000 0.39433  0.96807  0.16780  Biso   1.000  C
  H33      1.0000 0.31663  0.97107  0.17527  Biso   1.000  H
  H34      1.0000 0.48533  0.02607  0.17517  Biso   1.000  H
  C35      1.0000 0.43893  0.19677  0.12714  Biso   1.000  C
  H35      1.0000 0.45733  0.28547  0.12157  Biso   1.000  H
  C36      1.0000 0.39043  0.98267  0.12966  Biso   1.000  C
  H36      1.0000 0.37073  0.88797  0.12677  Biso   1.000  H
  N25      1.0000 0.40763  0.03487  0.14786  Biso   1.000  N
  N26      1.0000 0.44513  0.17847  0.14671  Biso   1.000  N
  N27      1.0000 0.40393  0.07727  0.11578  Biso   1.000  N
  C37      1.0000 0.88350  0.85500  0.99989  Biso   1.000  C
  C38      1.0000 0.75960  0.69860  0.99887  Biso   1.000  C
  H37      1.0000 0.67890  0.69560  0.99140  Biso   1.000  H
  H38      1.0000 0.79260  0.64060  0.99150  Biso   1.000  H
  C39      1.0000 0.57550  0.46990  0.03953  Biso   1.000  C
  H39      1.0000 0.50520  0.38120  0.04510  Biso   1.000  H
  C40      1.0000 0.74110  0.68400  0.03701  Biso   1.000  C
  H40      1.0000 0.81610  0.77870  0.03990  Biso   1.000  H
  N28      1.0000 0.70610  0.63180  0.01881  Biso   1.000  N
  N29      1.0000 0.60000  0.48820  0.01996  Biso   1.000  N
  N30      1.0000 0.66000  0.58940  0.05089  Biso   1.000  N
  C41      1.0000 0.55017  0.18833  0.33322  Biso   1.000  C
  C42      1.0000 0.42627  0.03193  0.33220  Biso   1.000  C
  H41      1.0000 0.34557  0.02893  0.32473  Biso   1.000  H
  H42      1.0000 0.45927  0.97393  0.32483  Biso   1.000  H
  C43      1.0000 0.24217  0.80323  0.37286  Biso   1.000  C
  H43      1.0000 0.17187  0.71453  0.37843  Biso   1.000  H
  C44      1.0000 0.40777  0.01733  0.37034  Biso   1.000  C
  H44      1.0000 0.48277  0.11203  0.37323  Biso   1.000  H
  N31      1.0000 0.37277  0.96513  0.35214  Biso   1.000  N
  N32      1.0000 0.26667  0.82153  0.35329  Biso   1.000  N
  N33      1.0000 0.32667  0.92273  0.38422  Biso   1.000  N
  C45      1.0000 0.21683  0.52167  0.66656  Biso   1.000  C
  C46      1.0000 0.09293  0.36527  0.66554  Biso   1.000  C
  H45      1.0000 0.01223  0.36227  0.65807  Biso   1.000  H
  H46      1.0000 0.12593  0.30727  0.65817  Biso   1.000  H
  C47      1.0000 0.90883  0.13657  0.70620  Biso   1.000  C
  H47      1.0000 0.83853  0.04787  0.71177  Biso   1.000  H
  C48      1.0000 0.07443  0.35067  0.70368  Biso   1.000  C
  H48      1.0000 0.14943  0.44537  0.70657  Biso   1.000  H
  N34      1.0000 0.03943  0.29847  0.68548  Biso   1.000  N
  N35      1.0000 0.93333  0.15487  0.68663  Biso   1.000  N
  N36      1.0000 0.99333  0.25607  0.71756  Biso   1.000  N
  C49      1.0000 0.97150  0.11650  0.99989  Biso   1.000  C
  C50      1.0000 0.93900  0.24040  0.99887  Biso   1.000  C
  H49      1.0000 0.01670  0.32110  0.99140  Biso   1.000  H
  H50      1.0000 0.84800  0.20740  0.99150  Biso   1.000  H
  C51      1.0000 0.89440  0.42450  0.03953  Biso   1.000  C
  H51      1.0000 0.87600  0.49480  0.04510  Biso   1.000  H
  C52      1.0000 0.94290  0.25890  0.03701  Biso   1.000  C
  H52      1.0000 0.96260  0.18390  0.03990  Biso   1.000  H
  N37      1.0000 0.92570  0.29390  0.01881  Biso   1.000  N
  N38      1.0000 0.88820  0.40000  0.01996  Biso   1.000  N
  N39      1.0000 0.92940  0.34000  0.05089  Biso   1.000  N
  C53      1.0000 0.63817  0.44983  0.33322  Biso   1.000  C
  C54      1.0000 0.60567  0.57373  0.33220  Biso   1.000  C
  H53      1.0000 0.68337  0.65443  0.32473  Biso   1.000  H
  H54      1.0000 0.51467  0.54073  0.32483  Biso   1.000  H
  C55      1.0000 0.56107  0.75783  0.37286  Biso   1.000  C
  H55      1.0000 0.54267  0.82813  0.37843  Biso   1.000  H
  C56      1.0000 0.60957  0.59223  0.37034  Biso   1.000  C
  H56      1.0000 0.62927  0.51723  0.37323  Biso   1.000  H
  N40      1.0000 0.59237  0.62723  0.35214  Biso   1.000  N
  N41      1.0000 0.55487  0.73333  0.35329  Biso   1.000  N
  N42      1.0000 0.59607  0.67333  0.38422  Biso   1.000  N
  C57      1.0000 0.30483  0.78317  0.66656  Biso   1.000  C
  C58      1.0000 0.27233  0.90707  0.66554  Biso   1.000  C
  H57      1.0000 0.35003  0.98777  0.65807  Biso   1.000  H
  H58      1.0000 0.18133  0.87407  0.65817  Biso   1.000  H
  C59      1.0000 0.22773  0.09117  0.70620  Biso   1.000  C
  H59      1.0000 0.20933  0.16147  0.71177  Biso   1.000  H
  C60      1.0000 0.27623  0.92557  0.70368  Biso   1.000  C
  H60      1.0000 0.29593  0.85057  0.70657  Biso   1.000  H
  N43      1.0000 0.25903  0.96057  0.68548  Biso   1.000  N
  N44      1.0000 0.22153  0.06667  0.68663  Biso   1.000  N
  N45      1.0000 0.26273  0.00667  0.71756  Biso   1.000  N
  C61      1.0000 0.14500  0.02850  0.99989  Biso   1.000  C
  C62      1.0000 0.30140  0.06100  0.99887  Biso   1.000  C
  H61      1.0000 0.30440  0.98330  0.99140  Biso   1.000  H
  H62      1.0000 0.35940  0.15200  0.99150  Biso   1.000  H
  C63      1.0000 0.53010  0.10560  0.03953  Biso   1.000  C
  H63      1.0000 0.61880  0.12400  0.04510  Biso   1.000  H
  C64      1.0000 0.31600  0.05710  0.03701  Biso   1.000  C
  H64      1.0000 0.22130  0.03740  0.03990  Biso   1.000  H
  N46      1.0000 0.36820  0.07430  0.01881  Biso   1.000  N
  N47      1.0000 0.51180  0.11180  0.01996  Biso   1.000  N
  N48      1.0000 0.41060  0.07060  0.05089  Biso   1.000  N
  C65      1.0000 0.81167  0.36183  0.33322  Biso   1.000  C
  C66      1.0000 0.96807  0.39433  0.33220  Biso   1.000  C
  H65      1.0000 0.97107  0.31663  0.32473  Biso   1.000  H
  H66      1.0000 0.02607  0.48533  0.32483  Biso   1.000  H
  C67      1.0000 0.19677  0.43893  0.37286  Biso   1.000  C
  H67      1.0000 0.28547  0.45733  0.37843  Biso   1.000  H
  C68      1.0000 0.98267  0.39043  0.37034  Biso   1.000  C
  H68      1.0000 0.88797  0.37073  0.37323  Biso   1.000  H
  N49      1.0000 0.03487  0.40763  0.35214  Biso   1.000  N
  N50      1.0000 0.17847  0.44513  0.35329  Biso   1.000  N
  N51      1.0000 0.07727  0.40393  0.38422  Biso   1.000  N
  C69      1.0000 0.47833  0.69517  0.66656  Biso   1.000  C
  C70      1.0000 0.63473  0.72767  0.66554  Biso   1.000  C
  H69      1.0000 0.63773  0.64997  0.65807  Biso   1.000  H
  H70      1.0000 0.69273  0.81867  0.65817  Biso   1.000  H
  C71      1.0000 0.86343  0.77227  0.70620  Biso   1.000  C
  H71      1.0000 0.95213  0.79067  0.71177  Biso   1.000  H
  C72      1.0000 0.64933  0.72377  0.70368  Biso   1.000  C
  H72      1.0000 0.55463  0.70407  0.70657  Biso   1.000  H
  N52      1.0000 0.70153  0.74097  0.68548  Biso   1.000  N
  N53      1.0000 0.84513  0.77847  0.68663  Biso   1.000  N
  N54      1.0000 0.74393  0.73727  0.71756  Biso   1.000  N
  C73      1.0000 0.14500  0.11650  0.49989  Biso   1.000  C
  C74      1.0000 0.30140  0.24040  0.49887  Biso   1.000  C
  H73      1.0000 0.30440  0.32110  0.49140  Biso   1.000  H
  H74      1.0000 0.35940  0.20740  0.49150  Biso   1.000  H
  C75      1.0000 0.53010  0.42450  0.53953  Biso   1.000  C
  H75      1.0000 0.61880  0.49480  0.54510  Biso   1.000  H
  C76      1.0000 0.31600  0.25890  0.53701  Biso   1.000  C
  H76      1.0000 0.22130  0.18390  0.53990  Biso   1.000  H
  N55      1.0000 0.36820  0.29390  0.51881  Biso   1.000  N
  N56      1.0000 0.51180  0.40000  0.51996  Biso   1.000  N
  N57      1.0000 0.41060  0.34000  0.55089  Biso   1.000  N
  C77      1.0000 0.81167  0.44983  0.83322  Biso   1.000  C
  C78      1.0000 0.96807  0.57373  0.83220  Biso   1.000  C
  H77      1.0000 0.97107  0.65443  0.82473  Biso   1.000  H
  H78      1.0000 0.02607  0.54073  0.82483  Biso   1.000  H
  C79      1.0000 0.19677  0.75783  0.87286  Biso   1.000  C
  H79      1.0000 0.28547  0.82813  0.87843  Biso   1.000  H
  C80      1.0000 0.98267  0.59223  0.87034  Biso   1.000  C
  H80      1.0000 0.88797  0.51723  0.87323  Biso   1.000  H
  N58      1.0000 0.03487  0.62723  0.85214  Biso   1.000  N
  N59      1.0000 0.17847  0.73333  0.85329  Biso   1.000  N
  N60      1.0000 0.07727  0.67333  0.88422  Biso   1.000  N
  C81      1.0000 0.47833  0.78317  0.16656  Biso   1.000  C
  C82      1.0000 0.63473  0.90707  0.16554  Biso   1.000  C
  H81      1.0000 0.63773  0.98777  0.15807  Biso   1.000  H
  H82      1.0000 0.69273  0.87407  0.15817  Biso   1.000  H
  C83      1.0000 0.86343  0.09117  0.20620  Biso   1.000  C
  H83      1.0000 0.95213  0.16147  0.21177  Biso   1.000  H
  C84      1.0000 0.64933  0.92557  0.20368  Biso   1.000  C
  H84      1.0000 0.55463  0.85057  0.20657  Biso   1.000  H
  N61      1.0000 0.70153  0.96057  0.18548  Biso   1.000  N
  N62      1.0000 0.84513  0.06667  0.18663  Biso   1.000  N
  N63      1.0000 0.74393  0.00667  0.21756  Biso   1.000  N
  C85      1.0000 0.88350  0.02850  0.49989  Biso   1.000  C
  C86      1.0000 0.75960  0.06100  0.49887  Biso   1.000  C
  H85      1.0000 0.67890  0.98330  0.49140  Biso   1.000  H
  H86      1.0000 0.79260  0.15200  0.49150  Biso   1.000  H
  C87      1.0000 0.57550  0.10560  0.53953  Biso   1.000  C
  H87      1.0000 0.50520  0.12400  0.54510  Biso   1.000  H
  C88      1.0000 0.74110  0.05710  0.53701  Biso   1.000  C
  H88      1.0000 0.81610  0.03740  0.53990  Biso   1.000  H
  N64      1.0000 0.70610  0.07430  0.51881  Biso   1.000  N
  N65      1.0000 0.60000  0.11180  0.51996  Biso   1.000  N
  N66      1.0000 0.66000  0.07060  0.55089  Biso   1.000  N
  C89      1.0000 0.55017  0.36183  0.83322  Biso   1.000  C
  C90      1.0000 0.42627  0.39433  0.83220  Biso   1.000  C
  H89      1.0000 0.34557  0.31663  0.82473  Biso   1.000  H
  H90      1.0000 0.45927  0.48533  0.82483  Biso   1.000  H
  C91      1.0000 0.24217  0.43893  0.87286  Biso   1.000  C
  H91      1.0000 0.17187  0.45733  0.87843  Biso   1.000  H
  C92      1.0000 0.40777  0.39043  0.87034  Biso   1.000  C
  H92      1.0000 0.48277  0.37073  0.87323  Biso   1.000  H
  N67      1.0000 0.37277  0.40763  0.85214  Biso   1.000  N
  N68      1.0000 0.26667  0.44513  0.85329  Biso   1.000  N
  N69      1.0000 0.32667  0.40393  0.88422  Biso   1.000  N
  C93      1.0000 0.21683  0.69517  0.16656  Biso   1.000  C
  C94      1.0000 0.09293  0.72767  0.16554  Biso   1.000  C
  H93      1.0000 0.01223  0.64997  0.15807  Biso   1.000  H
  H94      1.0000 0.12593  0.81867  0.15817  Biso   1.000  H
  C95      1.0000 0.90883  0.77227  0.20620  Biso   1.000  C
  H95      1.0000 0.83853  0.79067  0.21177  Biso   1.000  H
  C96      1.0000 0.07443  0.72377  0.20368  Biso   1.000  C
  H96      1.0000 0.14943  0.70407  0.20657  Biso   1.000  H
  N70      1.0000 0.03943  0.74097  0.18548  Biso   1.000  N
  N71      1.0000 0.93333  0.77847  0.18663  Biso   1.000  N
  N72      1.0000 0.99333  0.73727  0.21756  Biso   1.000  N
  C97      1.0000 0.97150  0.85500  0.49989  Biso   1.000  C
  C98      1.0000 0.93900  0.69860  0.49887  Biso   1.000  C
  H97      1.0000 0.01670  0.69560  0.49140  Biso   1.000  H
  H98      1.0000 0.84800  0.64060  0.49150  Biso   1.000  H
  C99      1.0000 0.89440  0.46990  0.53953  Biso   1.000  C
  H99      1.0000 0.87600  0.38120  0.54510  Biso   1.000  H
  C100     1.0000 0.94290  0.68400  0.53701  Biso   1.000  C
  H100     1.0000 0.96260  0.77870  0.53990  Biso   1.000  H
  N73      1.0000 0.92570  0.63180  0.51881  Biso   1.000  N
  N74      1.0000 0.88820  0.48820  0.51996  Biso   1.000  N
  N75      1.0000 0.92940  0.58940  0.55089  Biso   1.000  N
  C101     1.0000 0.63817  0.18833  0.83322  Biso   1.000  C
  C102     1.0000 0.60567  0.03193  0.83220  Biso   1.000  C
  H101     1.0000 0.68337  0.02893  0.82473  Biso   1.000  H
  H102     1.0000 0.51467  0.97393  0.82483  Biso   1.000  H
  C103     1.0000 0.56107  0.80323  0.87286  Biso   1.000  C
  H103     1.0000 0.54267  0.71453  0.87843  Biso   1.000  H
  C104     1.0000 0.60957  0.01733  0.87034  Biso   1.000  C
  H104     1.0000 0.62927  0.11203  0.87323  Biso   1.000  H
  N76      1.0000 0.59237  0.96513  0.85214  Biso   1.000  N
  N77      1.0000 0.55487  0.82153  0.85329  Biso   1.000  N
  N78      1.0000 0.59607  0.92273  0.88422  Biso   1.000  N
  C105     1.0000 0.30483  0.52167  0.16656  Biso   1.000  C
  C106     1.0000 0.27233  0.36527  0.16554  Biso   1.000  C
  H105     1.0000 0.35003  0.36227  0.15807  Biso   1.000  H
  H106     1.0000 0.18133  0.30727  0.15817  Biso   1.000  H
  C107     1.0000 0.22773  0.13657  0.20620  Biso   1.000  C
  H107     1.0000 0.20933  0.04787  0.21177  Biso   1.000  H
  C108     1.0000 0.27623  0.35067  0.20368  Biso   1.000  C
  H108     1.0000 0.29593  0.44537  0.20657  Biso   1.000  H
  N79      1.0000 0.25903  0.29847  0.18548  Biso   1.000  N
  N80      1.0000 0.22153  0.15487  0.18663  Biso   1.000  N
  N81      1.0000 0.26273  0.25607  0.21756  Biso   1.000  N
  C109     1.0000 0.11650  0.14500  0.00011  Biso   1.000  C
  C110     1.0000 0.24040  0.30140  0.00113  Biso   1.000  C
  H109     1.0000 0.32110  0.30440  0.00860  Biso   1.000  H
  H110     1.0000 0.20740  0.35940  0.00850  Biso   1.000  H
  C111     1.0000 0.42450  0.53010  0.96047  Biso   1.000  C
  H111     1.0000 0.49480  0.61880  0.95490  Biso   1.000  H
  C112     1.0000 0.25890  0.31600  0.96299  Biso   1.000  C
  H112     1.0000 0.18390  0.22130  0.96010  Biso   1.000  H
  N82      1.0000 0.29390  0.36820  0.98119  Biso   1.000  N
  N83      1.0000 0.40000  0.51180  0.98004  Biso   1.000  N
  N84      1.0000 0.34000  0.41060  0.94911  Biso   1.000  N
  C113     1.0000 0.78317  0.47833  0.33344  Biso   1.000  C
  C114     1.0000 0.90707  0.63473  0.33446  Biso   1.000  C
  H113     1.0000 0.98777  0.63773  0.34193  Biso   1.000  H
  H114     1.0000 0.87407  0.69273  0.34183  Biso   1.000  H
  C115     1.0000 0.09117  0.86343  0.29380  Biso   1.000  C
  H115     1.0000 0.16147  0.95213  0.28823  Biso   1.000  H
  C116     1.0000 0.92557  0.64933  0.29632  Biso   1.000  C
  H116     1.0000 0.85057  0.55463  0.29343  Biso   1.000  H
  N85      1.0000 0.96057  0.70153  0.31452  Biso   1.000  N
  N86      1.0000 0.06667  0.84513  0.31337  Biso   1.000  N
  N87      1.0000 0.00667  0.74393  0.28244  Biso   1.000  N
  C117     1.0000 0.44983  0.81167  0.66678  Biso   1.000  C
  C118     1.0000 0.57373  0.96807  0.66780  Biso   1.000  C
  H117     1.0000 0.65443  0.97107  0.67527  Biso   1.000  H
  H118     1.0000 0.54073  0.02607  0.67517  Biso   1.000  H
  C119     1.0000 0.75783  0.19677  0.62714  Biso   1.000  C
  H119     1.0000 0.82813  0.28547  0.62157  Biso   1.000  H
  C120     1.0000 0.59223  0.98267  0.62966  Biso   1.000  C
  H120     1.0000 0.51723  0.88797  0.62677  Biso   1.000  H
  N88      1.0000 0.62723  0.03487  0.64786  Biso   1.000  N
  N89      1.0000 0.73333  0.17847  0.64671  Biso   1.000  N
  N90      1.0000 0.67333  0.07727  0.61578  Biso   1.000  N
  C121     1.0000 0.02850  0.88350  0.00011  Biso   1.000  C
  C122     1.0000 0.06100  0.75960  0.00113  Biso   1.000  C
  H121     1.0000 0.98330  0.67890  0.00860  Biso   1.000  H
  H122     1.0000 0.15200  0.79260  0.00850  Biso   1.000  H
  C123     1.0000 0.10560  0.57550  0.96047  Biso   1.000  C
  H123     1.0000 0.12400  0.50520  0.95490  Biso   1.000  H
  C124     1.0000 0.05710  0.74110  0.96299  Biso   1.000  C
  H124     1.0000 0.03740  0.81610  0.96010  Biso   1.000  H
  N91      1.0000 0.07430  0.70610  0.98119  Biso   1.000  N
  N92      1.0000 0.11180  0.60000  0.98004  Biso   1.000  N
  N93      1.0000 0.07060  0.66000  0.94911  Biso   1.000  N
  C125     1.0000 0.69517  0.21683  0.33344  Biso   1.000  C
  C126     1.0000 0.72767  0.09293  0.33446  Biso   1.000  C
  H125     1.0000 0.64997  0.01223  0.34193  Biso   1.000  H
  H126     1.0000 0.81867  0.12593  0.34183  Biso   1.000  H
  C127     1.0000 0.77227  0.90883  0.29380  Biso   1.000  C
  H127     1.0000 0.79067  0.83853  0.28823  Biso   1.000  H
  C128     1.0000 0.72377  0.07443  0.29632  Biso   1.000  C
  H128     1.0000 0.70407  0.14943  0.29343  Biso   1.000  H
  N94      1.0000 0.74097  0.03943  0.31452  Biso   1.000  N
  N95      1.0000 0.77847  0.93333  0.31337  Biso   1.000  N
  N96      1.0000 0.73727  0.99333  0.28244  Biso   1.000  N
  C129     1.0000 0.36183  0.55017  0.66678  Biso   1.000  C
  C130     1.0000 0.39433  0.42627  0.66780  Biso   1.000  C
  H129     1.0000 0.31663  0.34557  0.67527  Biso   1.000  H
  H130     1.0000 0.48533  0.45927  0.67517  Biso   1.000  H
  C131     1.0000 0.43893  0.24217  0.62714  Biso   1.000  C
  H131     1.0000 0.45733  0.17187  0.62157  Biso   1.000  H
  C132     1.0000 0.39043  0.40777  0.62966  Biso   1.000  C
  H132     1.0000 0.37073  0.48277  0.62677  Biso   1.000  H
  N97      1.0000 0.40763  0.37277  0.64786  Biso   1.000  N
  N98      1.0000 0.44513  0.26667  0.64671  Biso   1.000  N
  N99      1.0000 0.40393  0.32667  0.61578  Biso   1.000  N
  C133     1.0000 0.85500  0.97150  0.00011  Biso   1.000  C
  C134     1.0000 0.69860  0.93900  0.00113  Biso   1.000  C
  H133     1.0000 0.69560  0.01670  0.00860  Biso   1.000  H
  H134     1.0000 0.64060  0.84800  0.00850  Biso   1.000  H
  C135     1.0000 0.46990  0.89440  0.96047  Biso   1.000  C
  H135     1.0000 0.38120  0.87600  0.95490  Biso   1.000  H
  C136     1.0000 0.68400  0.94290  0.96299  Biso   1.000  C
  H136     1.0000 0.77870  0.96260  0.96010  Biso   1.000  H
  N100     1.0000 0.63180  0.92570  0.98119  Biso   1.000  N
  N101     1.0000 0.48820  0.88820  0.98004  Biso   1.000  N
  N102     1.0000 0.58940  0.92940  0.94911  Biso   1.000  N
  C137     1.0000 0.52167  0.30483  0.33344  Biso   1.000  C
  C138     1.0000 0.36527  0.27233  0.33446  Biso   1.000  C
  H137     1.0000 0.36227  0.35003  0.34193  Biso   1.000  H
  H138     1.0000 0.30727  0.18133  0.34183  Biso   1.000  H
  C139     1.0000 0.13657  0.22773  0.29380  Biso   1.000  C
  H139     1.0000 0.04787  0.20933  0.28823  Biso   1.000  H
  C140     1.0000 0.35067  0.27623  0.29632  Biso   1.000  C
  H140     1.0000 0.44537  0.29593  0.29343  Biso   1.000  H
  N103     1.0000 0.29847  0.25903  0.31452  Biso   1.000  N
  N104     1.0000 0.15487  0.22153  0.31337  Biso   1.000  N
  N105     1.0000 0.25607  0.26273  0.28244  Biso   1.000  N
  C141     1.0000 0.18833  0.63817  0.66678  Biso   1.000  C
  C142     1.0000 0.03193  0.60567  0.66780  Biso   1.000  C
  H141     1.0000 0.02893  0.68337  0.67527  Biso   1.000  H
  H142     1.0000 0.97393  0.51467  0.67517  Biso   1.000  H
  C143     1.0000 0.80323  0.56107  0.62714  Biso   1.000  C
  H143     1.0000 0.71453  0.54267  0.62157  Biso   1.000  H
  C144     1.0000 0.01733  0.60957  0.62966  Biso   1.000  C
  H144     1.0000 0.11203  0.62927  0.62677  Biso   1.000  H
  N106     1.0000 0.96513  0.59237  0.64786  Biso   1.000  N
  N107     1.0000 0.82153  0.55487  0.64671  Biso   1.000  N
  N108     1.0000 0.92273  0.59607  0.61578  Biso   1.000  N
  Ag1      1.0000 0.59414  0.66667  0.41667  Biso   1.000  Ag
  Ag2      1.0000 0.26081  0.00000  0.75000  Biso   1.000  Ag
  Ag3      1.0000 0.33333  0.92748  0.41667  Biso   1.000  Ag
  Ag4      1.0000 0.00000  0.26081  0.75000  Biso   1.000  Ag
  Ag5      1.0000 0.07252  0.40586  0.41667  Biso   1.000  Ag
  Ag6      1.0000 0.73919  0.73919  0.75000  Biso   1.000  Ag
  Ag7      1.0000 0.66667  0.59414  0.08333  Biso   1.000  Ag
  Ag8      1.0000 0.92748  0.33333  0.08333  Biso   1.000  Ag
  Ag9      1.0000 0.40586  0.07252  0.08333  Biso   1.000  Ag
  Ag10     1.0000 0.40586  0.33333  0.58333  Biso   1.000  Ag
  Ag11     1.0000 0.66667  0.07252  0.58333  Biso   1.000  Ag
  Ag12     1.0000 0.92748  0.59414  0.58333  Biso   1.000  Ag
  Ag13     1.0000 0.33333  0.40586  0.91667  Biso   1.000  Ag
  Ag14     1.0000 0.00000  0.73919  0.25000  Biso   1.000  Ag
  Ag15     1.0000 0.07252  0.66667  0.91667  Biso   1.000  Ag
  Ag16     1.0000 0.73919  0.00000  0.25000  Biso   1.000  Ag
  Ag17     1.0000 0.59414  0.92748  0.91667  Biso   1.000  Ag
  Ag18     1.0000 0.26081  0.26081  0.25000  Biso   1.000  Ag
