data_image0
_cell_length_a       12.796
_cell_length_b       25.625
_cell_length_c       16.112
_cell_angle_alpha    90
_cell_angle_beta     119.955
_cell_angle_gamma    90

_symmetry_space_group_name_H-M    "P 1"
_symmetry_int_tables_number       1

loop_
  _symmetry_equiv_pos_as_xyz
  'x, y, z'

loop_
  _atom_site_label
  _atom_site_occupancy
  _atom_site_fract_x
  _atom_site_fract_y
  _atom_site_fract_z
  _atom_site_thermal_displace_type
  _atom_site_B_iso_or_equiv
  _atom_site_type_symbol
  Cu1      1.0000 0.43990  0.25592  0.20590  Biso   1.000  Cu
  N1       1.0000 0.08490  0.05410  0.46360  Biso   1.000  N
  N2       1.0000 0.38300  0.21430  0.28490  Biso   1.000  N
  N3       1.0000 0.50270  0.20120  0.63350  Biso   1.000  N
  N4       1.0000 0.89000  0.05650  0.51900  Biso   1.000  N
  N5       1.0000 0.61980  0.25800  0.80510  Biso   1.000  N
  N6       1.0000 0.25700  0.26590  0.10550  Biso   1.000  N
  C1       1.0000 0.21000  0.05600  0.50960  Biso   1.000  C
  H1       1.0000 0.25400  0.03570  0.56390  Biso   1.000  H
  C2       1.0000 0.26900  0.08640  0.47800  Biso   1.000  C
  H2       1.0000 0.35320  0.08630  0.51060  Biso   1.000  H
  C3       1.0000 0.20600  0.11760  0.39870  Biso   1.000  C
  C4       1.0000 0.08300  0.11780  0.35000  Biso   1.000  C
  H3       1.0000 0.03790  0.13880  0.29690  Biso   1.000  H
  C5       1.0000 0.02700  0.08400  0.38600  Biso   1.000  C
  H4       1.0000 0.94330  0.08270  0.35350  Biso   1.000  H
  C6       1.0000 0.40100  0.16270  0.29510  Biso   1.000  C
  H5       1.0000 0.44970  0.14750  0.27360  Biso   1.000  H
  C7       1.0000 0.35200  0.13060  0.33580  Biso   1.000  C
  H6       1.0000 0.37190  0.09540  0.34610  Biso   1.000  H
  C8       1.0000 0.27200  0.15240  0.36090  Biso   1.000  C
  C9       1.0000 0.24800  0.20420  0.34800  Biso   1.000  C
  H7       1.0000 0.19610  0.21970  0.36560  Biso   1.000  H
  C10      1.0000 0.30500  0.23360  0.30870  Biso   1.000  C
  H8       1.0000 0.28650  0.26890  0.29820  Biso   1.000  H
  C11      1.0000 0.54200  0.15300  0.66600  Biso   1.000  C
  H9       1.0000 0.51890  0.13850  0.70680  Biso   1.000  H
  C12      1.0000 0.61400  0.12280  0.64300  Biso   1.000  C
  H10      1.0000 0.63880  0.08970  0.66910  Biso   1.000  H
  C13      1.0000 0.64600  0.14350  0.58000  Biso   1.000  C
  C14      1.0000 0.59900  0.19110  0.54100  Biso   1.000  C
  H11      1.0000 0.61420  0.20480  0.49440  Biso   1.000  H
  C15      1.0000 0.53100  0.21850  0.56800  Biso   1.000  C
  H12      1.0000 0.50170  0.25100  0.54030  Biso   1.000  H
  C16      1.0000 0.90300  0.05860  0.60400  Biso   1.000  C
  H13      1.0000 0.96660  0.04000  0.65250  Biso   1.000  H
  C17      1.0000 0.82900  0.08650  0.62900  Biso   1.000  C
  H14      1.0000 0.84340  0.08670  0.69170  Biso   1.000  H
  C18      1.0000 0.73100  0.11440  0.55510  Biso   1.000  C
  C19      1.0000 0.71900  0.11130  0.46700  Biso   1.000  C
  H15      1.0000 0.65610  0.12900  0.41600  Biso   1.000  H
  C20      1.0000 0.80000  0.08140  0.45100  Biso   1.000  C
  H16      1.0000 0.78840  0.07960  0.38960  Biso   1.000  H
  C21      1.0000 0.68100  0.23610  0.89100  Biso   1.000  C
  H17      1.0000 0.63430  0.21880  0.91190  Biso   1.000  H
  C22      1.0000 0.80400  0.23570  0.95300  Biso   1.000  C
  H18      1.0000 0.84000  0.21470  0.00740  Biso   1.000  H
  C23      1.0000 0.87000  0.26800  0.93000  Biso   1.000  C
  C24      1.0000 0.81200  0.29500  0.84300  Biso   1.000  C
  H19      1.0000 0.85600  0.31610  0.82460  Biso   1.000  H
  C25      1.0000 0.68700  0.29040  0.78300  Biso   1.000  C
  H20      1.0000 0.64870  0.30990  0.72710  Biso   1.000  H
  C26      1.0000 0.19500  0.30900  0.09900  Biso   1.000  C
  H21      1.0000 0.23700  0.33850  0.13300  Biso   1.000  H
  C27      1.0000 0.07000  0.31150  0.04400  Biso   1.000  C
  H22      1.0000 0.03000  0.34190  0.04280  Biso   1.000  H
  C28      1.0000 0.00800  0.26900  0.99200  Biso   1.000  C
  C29      1.0000 0.06700  0.22510  0.99300  Biso   1.000  C
  H23      1.0000 0.03000  0.19740  0.95150  Biso   1.000  H
  C30      1.0000 0.19200  0.22490  0.06300  Biso   1.000  C
  H24      1.0000 0.23040  0.19260  0.08050  Biso   1.000  H
  Cu2      1.0000 0.56010  0.75592  0.29410  Biso   1.000  Cu
  N7       1.0000 0.91510  0.55410  0.03640  Biso   1.000  N
  N8       1.0000 0.61700  0.71430  0.21510  Biso   1.000  N
  N9       1.0000 0.49730  0.70120  0.86650  Biso   1.000  N
  N10      1.0000 0.11000  0.55650  0.98100  Biso   1.000  N
  N11      1.0000 0.38020  0.75800  0.69490  Biso   1.000  N
  N12      1.0000 0.74300  0.76590  0.39450  Biso   1.000  N
  C31      1.0000 0.79000  0.55600  0.99040  Biso   1.000  C
  H25      1.0000 0.74600  0.53570  0.93610  Biso   1.000  H
  C32      1.0000 0.73100  0.58640  0.02200  Biso   1.000  C
  H26      1.0000 0.64680  0.58630  0.98940  Biso   1.000  H
  C33      1.0000 0.79400  0.61760  0.10130  Biso   1.000  C
  C34      1.0000 0.91700  0.61780  0.15000  Biso   1.000  C
  H27      1.0000 0.96210  0.63880  0.20310  Biso   1.000  H
  C35      1.0000 0.97300  0.58400  0.11400  Biso   1.000  C
  H28      1.0000 0.05670  0.58270  0.14650  Biso   1.000  H
  C36      1.0000 0.59900  0.66270  0.20490  Biso   1.000  C
  H29      1.0000 0.55030  0.64750  0.22640  Biso   1.000  H
  C37      1.0000 0.64800  0.63060  0.16420  Biso   1.000  C
  H30      1.0000 0.62810  0.59540  0.15390  Biso   1.000  H
  C38      1.0000 0.72800  0.65240  0.13910  Biso   1.000  C
  C39      1.0000 0.75200  0.70420  0.15200  Biso   1.000  C
  H31      1.0000 0.80390  0.71970  0.13440  Biso   1.000  H
  C40      1.0000 0.69500  0.73360  0.19130  Biso   1.000  C
  H32      1.0000 0.71350  0.76890  0.20180  Biso   1.000  H
  C41      1.0000 0.45800  0.65300  0.83400  Biso   1.000  C
  H33      1.0000 0.48110  0.63850  0.79320  Biso   1.000  H
  C42      1.0000 0.38600  0.62280  0.85700  Biso   1.000  C
  H34      1.0000 0.36120  0.58970  0.83090  Biso   1.000  H
  C43      1.0000 0.35400  0.64350  0.92000  Biso   1.000  C
  C44      1.0000 0.40100  0.69110  0.95900  Biso   1.000  C
  H35      1.0000 0.38580  0.70480  0.00560  Biso   1.000  H
  C45      1.0000 0.46900  0.71850  0.93200  Biso   1.000  C
  H36      1.0000 0.49830  0.75100  0.95970  Biso   1.000  H
  C46      1.0000 0.09700  0.55860  0.89600  Biso   1.000  C
  H37      1.0000 0.03340  0.54000  0.84750  Biso   1.000  H
  C47      1.0000 0.17100  0.58650  0.87100  Biso   1.000  C
  H38      1.0000 0.15660  0.58670  0.80830  Biso   1.000  H
  C48      1.0000 0.26900  0.61440  0.94490  Biso   1.000  C
  C49      1.0000 0.28100  0.61130  0.03300  Biso   1.000  C
  H39      1.0000 0.34390  0.62900  0.08400  Biso   1.000  H
  C50      1.0000 0.20000  0.58140  0.04900  Biso   1.000  C
  H40      1.0000 0.21160  0.57960  0.11040  Biso   1.000  H
  C51      1.0000 0.31900  0.73610  0.60900  Biso   1.000  C
  H41      1.0000 0.36570  0.71880  0.58810  Biso   1.000  H
  C52      1.0000 0.19600  0.73570  0.54700  Biso   1.000  C
  H42      1.0000 0.16000  0.71470  0.49260  Biso   1.000  H
  C53      1.0000 0.13000  0.76800  0.57000  Biso   1.000  C
  C54      1.0000 0.18800  0.79500  0.65700  Biso   1.000  C
  H43      1.0000 0.14400  0.81610  0.67540  Biso   1.000  H
  C55      1.0000 0.31300  0.79040  0.71700  Biso   1.000  C
  H44      1.0000 0.35130  0.80990  0.77290  Biso   1.000  H
  C56      1.0000 0.80500  0.80900  0.40100  Biso   1.000  C
  H45      1.0000 0.76300  0.83850  0.36700  Biso   1.000  H
  C57      1.0000 0.93000  0.81150  0.45600  Biso   1.000  C
  H46      1.0000 0.97000  0.84190  0.45720  Biso   1.000  H
  C58      1.0000 0.99200  0.76900  0.50800  Biso   1.000  C
  C59      1.0000 0.93300  0.72510  0.50700  Biso   1.000  C
  H47      1.0000 0.97000  0.69740  0.54850  Biso   1.000  H
  C60      1.0000 0.80800  0.72490  0.43700  Biso   1.000  C
  H48      1.0000 0.76960  0.69260  0.41950  Biso   1.000  H
  Cu3      1.0000 0.56010  0.74408  0.79410  Biso   1.000  Cu
  N13      1.0000 0.91510  0.94590  0.53640  Biso   1.000  N
  N14      1.0000 0.61700  0.78570  0.71510  Biso   1.000  N
  N15      1.0000 0.49730  0.79880  0.36650  Biso   1.000  N
  N16      1.0000 0.11000  0.94350  0.48100  Biso   1.000  N
  N17      1.0000 0.38020  0.74200  0.19490  Biso   1.000  N
  N18      1.0000 0.74300  0.73410  0.89450  Biso   1.000  N
  C61      1.0000 0.79000  0.94400  0.49040  Biso   1.000  C
  H49      1.0000 0.74600  0.96430  0.43610  Biso   1.000  H
  C62      1.0000 0.73100  0.91360  0.52200  Biso   1.000  C
  H50      1.0000 0.64680  0.91370  0.48940  Biso   1.000  H
  C63      1.0000 0.79400  0.88240  0.60130  Biso   1.000  C
  C64      1.0000 0.91700  0.88220  0.65000  Biso   1.000  C
  H51      1.0000 0.96210  0.86120  0.70310  Biso   1.000  H
  C65      1.0000 0.97300  0.91600  0.61400  Biso   1.000  C
  H52      1.0000 0.05670  0.91730  0.64650  Biso   1.000  H
  C66      1.0000 0.59900  0.83730  0.70490  Biso   1.000  C
  H53      1.0000 0.55030  0.85250  0.72640  Biso   1.000  H
  C67      1.0000 0.64800  0.86940  0.66420  Biso   1.000  C
  H54      1.0000 0.62810  0.90460  0.65390  Biso   1.000  H
  C68      1.0000 0.72800  0.84760  0.63910  Biso   1.000  C
  C69      1.0000 0.75200  0.79580  0.65200  Biso   1.000  C
  H55      1.0000 0.80390  0.78030  0.63440  Biso   1.000  H
  C70      1.0000 0.69500  0.76640  0.69130  Biso   1.000  C
  H56      1.0000 0.71350  0.73110  0.70180  Biso   1.000  H
  C71      1.0000 0.45800  0.84700  0.33400  Biso   1.000  C
  H57      1.0000 0.48110  0.86150  0.29320  Biso   1.000  H
  C72      1.0000 0.38600  0.87720  0.35700  Biso   1.000  C
  H58      1.0000 0.36120  0.91030  0.33090  Biso   1.000  H
  C73      1.0000 0.35400  0.85650  0.42000  Biso   1.000  C
  C74      1.0000 0.40100  0.80890  0.45900  Biso   1.000  C
  H59      1.0000 0.38580  0.79520  0.50560  Biso   1.000  H
  C75      1.0000 0.46900  0.78150  0.43200  Biso   1.000  C
  H60      1.0000 0.49830  0.74900  0.45970  Biso   1.000  H
  C76      1.0000 0.09700  0.94140  0.39600  Biso   1.000  C
  H61      1.0000 0.03340  0.96000  0.34750  Biso   1.000  H
  C77      1.0000 0.17100  0.91350  0.37100  Biso   1.000  C
  H62      1.0000 0.15660  0.91330  0.30830  Biso   1.000  H
  C78      1.0000 0.26900  0.88560  0.44490  Biso   1.000  C
  C79      1.0000 0.28100  0.88870  0.53300  Biso   1.000  C
  H63      1.0000 0.34390  0.87100  0.58400  Biso   1.000  H
  C80      1.0000 0.20000  0.91860  0.54900  Biso   1.000  C
  H64      1.0000 0.21160  0.92040  0.61040  Biso   1.000  H
  C81      1.0000 0.31900  0.76390  0.10900  Biso   1.000  C
  H65      1.0000 0.36570  0.78120  0.08810  Biso   1.000  H
  C82      1.0000 0.19600  0.76430  0.04700  Biso   1.000  C
  H66      1.0000 0.16000  0.78530  0.99260  Biso   1.000  H
  C83      1.0000 0.13000  0.73200  0.07000  Biso   1.000  C
  C84      1.0000 0.18800  0.70500  0.15700  Biso   1.000  C
  H67      1.0000 0.14400  0.68390  0.17540  Biso   1.000  H
  C85      1.0000 0.31300  0.70960  0.21700  Biso   1.000  C
  H68      1.0000 0.35130  0.69010  0.27290  Biso   1.000  H
  C86      1.0000 0.80500  0.69100  0.90100  Biso   1.000  C
  H69      1.0000 0.76300  0.66150  0.86700  Biso   1.000  H
  C87      1.0000 0.93000  0.68850  0.95600  Biso   1.000  C
  H70      1.0000 0.97000  0.65810  0.95720  Biso   1.000  H
  C88      1.0000 0.99200  0.73100  0.00800  Biso   1.000  C
  C89      1.0000 0.93300  0.77490  0.00700  Biso   1.000  C
  H71      1.0000 0.97000  0.80260  0.04850  Biso   1.000  H
  C90      1.0000 0.80800  0.77510  0.93700  Biso   1.000  C
  H72      1.0000 0.76960  0.80740  0.91950  Biso   1.000  H
  Cu4      1.0000 0.43990  0.24408  0.70590  Biso   1.000  Cu
  N19      1.0000 0.08490  0.44590  0.96360  Biso   1.000  N
  N20      1.0000 0.38300  0.28570  0.78490  Biso   1.000  N
  N21      1.0000 0.50270  0.29880  0.13350  Biso   1.000  N
  N22      1.0000 0.89000  0.44350  0.01900  Biso   1.000  N
  N23      1.0000 0.61980  0.24200  0.30510  Biso   1.000  N
  N24      1.0000 0.25700  0.23410  0.60550  Biso   1.000  N
  C91      1.0000 0.21000  0.44400  0.00960  Biso   1.000  C
  H73      1.0000 0.25400  0.46430  0.06390  Biso   1.000  H
  C92      1.0000 0.26900  0.41360  0.97800  Biso   1.000  C
  H74      1.0000 0.35320  0.41370  0.01060  Biso   1.000  H
  C93      1.0000 0.20600  0.38240  0.89870  Biso   1.000  C
  C94      1.0000 0.08300  0.38220  0.85000  Biso   1.000  C
  H75      1.0000 0.03790  0.36120  0.79690  Biso   1.000  H
  C95      1.0000 0.02700  0.41600  0.88600  Biso   1.000  C
  H76      1.0000 0.94330  0.41730  0.85350  Biso   1.000  H
  C96      1.0000 0.40100  0.33730  0.79510  Biso   1.000  C
  H77      1.0000 0.44970  0.35250  0.77360  Biso   1.000  H
  C97      1.0000 0.35200  0.36940  0.83580  Biso   1.000  C
  H78      1.0000 0.37190  0.40460  0.84610  Biso   1.000  H
  C98      1.0000 0.27200  0.34760  0.86090  Biso   1.000  C
  C99      1.0000 0.24800  0.29580  0.84800  Biso   1.000  C
  H79      1.0000 0.19610  0.28030  0.86560  Biso   1.000  H
  C100     1.0000 0.30500  0.26640  0.80870  Biso   1.000  C
  H80      1.0000 0.28650  0.23110  0.79820  Biso   1.000  H
  C101     1.0000 0.54200  0.34700  0.16600  Biso   1.000  C
  H81      1.0000 0.51890  0.36150  0.20680  Biso   1.000  H
  C102     1.0000 0.61400  0.37720  0.14300  Biso   1.000  C
  H82      1.0000 0.63880  0.41030  0.16910  Biso   1.000  H
  C103     1.0000 0.64600  0.35650  0.08000  Biso   1.000  C
  C104     1.0000 0.59900  0.30890  0.04100  Biso   1.000  C
  H83      1.0000 0.61420  0.29520  0.99440  Biso   1.000  H
  C105     1.0000 0.53100  0.28150  0.06800  Biso   1.000  C
  H84      1.0000 0.50170  0.24900  0.04030  Biso   1.000  H
  C106     1.0000 0.90300  0.44140  0.10400  Biso   1.000  C
  H85      1.0000 0.96660  0.46000  0.15250  Biso   1.000  H
  C107     1.0000 0.82900  0.41350  0.12900  Biso   1.000  C
  H86      1.0000 0.84340  0.41330  0.19170  Biso   1.000  H
  C108     1.0000 0.73100  0.38560  0.05510  Biso   1.000  C
  C109     1.0000 0.71900  0.38870  0.96700  Biso   1.000  C
  H87      1.0000 0.65610  0.37100  0.91600  Biso   1.000  H
  C110     1.0000 0.80000  0.41860  0.95100  Biso   1.000  C
  H88      1.0000 0.78840  0.42040  0.88960  Biso   1.000  H
  C111     1.0000 0.68100  0.26390  0.39100  Biso   1.000  C
  H89      1.0000 0.63430  0.28120  0.41190  Biso   1.000  H
  C112     1.0000 0.80400  0.26430  0.45300  Biso   1.000  C
  H90      1.0000 0.84000  0.28530  0.50740  Biso   1.000  H
  C113     1.0000 0.87000  0.23200  0.43000  Biso   1.000  C
  C114     1.0000 0.81200  0.20500  0.34300  Biso   1.000  C
  H91      1.0000 0.85600  0.18390  0.32460  Biso   1.000  H
  C115     1.0000 0.68700  0.20960  0.28300  Biso   1.000  C
  H92      1.0000 0.64870  0.19010  0.22710  Biso   1.000  H
  C116     1.0000 0.19500  0.19100  0.59900  Biso   1.000  C
  H93      1.0000 0.23700  0.16150  0.63300  Biso   1.000  H
  C117     1.0000 0.07000  0.18850  0.54400  Biso   1.000  C
  H94      1.0000 0.03000  0.15810  0.54280  Biso   1.000  H
  C118     1.0000 0.00800  0.23100  0.49200  Biso   1.000  C
  C119     1.0000 0.06700  0.27490  0.49300  Biso   1.000  C
  H95      1.0000 0.03000  0.30260  0.45150  Biso   1.000  H
  C120     1.0000 0.19200  0.27510  0.56300  Biso   1.000  C
  H96      1.0000 0.23040  0.30740  0.58050  Biso   1.000  H
  Cu5      1.0000 0.00000  0.00000  0.50000  Biso   1.000  Cu
  Cu6      1.0000 0.00000  0.50000  0.00000  Biso   1.000  Cu
