data_image0
_cell_length_a       15.3804
_cell_length_b       15.3804
_cell_length_c       22.9843
_cell_angle_alpha    90
_cell_angle_beta     90
_cell_angle_gamma    90

_symmetry_space_group_name_H-M    "P 1"
_symmetry_int_tables_number       1

loop_
  _symmetry_equiv_pos_as_xyz
  'x, y, z'

loop_
  _atom_site_label
  _atom_site_occupancy
  _atom_site_fract_x
  _atom_site_fract_y
  _atom_site_fract_z
  _atom_site_thermal_displace_type
  _atom_site_B_iso_or_equiv
  _atom_site_type_symbol
  O1       1.0000 0.59191  0.21965  0.29303  Biso   1.000  O
  O2       1.0000 0.53338  0.39686  0.34324  Biso   1.000  O
  N1       1.0000 0.66963  0.23449  0.27293  Biso   1.000  N
  N2       1.0000 0.52833  0.44642  0.29745  Biso   1.000  N
  C1       1.0000 0.70832  0.17377  0.23897  Biso   1.000  C
  H1       1.0000 0.67970  0.12020  0.23150  Biso   1.000  H
  C2       1.0000 0.71114  0.31041  0.28460  Biso   1.000  C
  H2       1.0000 0.68450  0.35250  0.30900  Biso   1.000  H
  C3       1.0000 0.52715  0.41238  0.24314  Biso   1.000  C
  H3       1.0000 0.52640  0.35110  0.23800  Biso   1.000  H
  C4       1.0000 0.52702  0.53383  0.30453  Biso   1.000  C
  H4       1.0000 0.52600  0.55800  0.34260  Biso   1.000  H
  O3       1.0000 0.09191  0.71965  0.79303  Biso   1.000  O
  O4       1.0000 0.03338  0.89686  0.84324  Biso   1.000  O
  N3       1.0000 0.16963  0.73449  0.77293  Biso   1.000  N
  N4       1.0000 0.02833  0.94642  0.79745  Biso   1.000  N
  C5       1.0000 0.20832  0.67377  0.73897  Biso   1.000  C
  H5       1.0000 0.17970  0.62020  0.73150  Biso   1.000  H
  C6       1.0000 0.21114  0.81041  0.78460  Biso   1.000  C
  H6       1.0000 0.18450  0.85250  0.80900  Biso   1.000  H
  C7       1.0000 0.02715  0.91238  0.74314  Biso   1.000  C
  H7       1.0000 0.02640  0.85110  0.73800  Biso   1.000  H
  C8       1.0000 0.02702  0.03383  0.80453  Biso   1.000  C
  H8       1.0000 0.02600  0.05800  0.84260  Biso   1.000  H
  O5       1.0000 0.90809  0.78035  0.79303  Biso   1.000  O
  O6       1.0000 0.96662  0.60314  0.84324  Biso   1.000  O
  N5       1.0000 0.83037  0.76551  0.77293  Biso   1.000  N
  N6       1.0000 0.97167  0.55358  0.79745  Biso   1.000  N
  C9       1.0000 0.79168  0.82623  0.73897  Biso   1.000  C
  H9       1.0000 0.82030  0.87980  0.73150  Biso   1.000  H
  C10      1.0000 0.78886  0.68959  0.78460  Biso   1.000  C
  H10      1.0000 0.81550  0.64750  0.80900  Biso   1.000  H
  C11      1.0000 0.97285  0.58762  0.74314  Biso   1.000  C
  H11      1.0000 0.97360  0.64890  0.73800  Biso   1.000  H
  C12      1.0000 0.97298  0.46617  0.80453  Biso   1.000  C
  H12      1.0000 0.97400  0.44200  0.84260  Biso   1.000  H
  O7       1.0000 0.40809  0.28035  0.29303  Biso   1.000  O
  O8       1.0000 0.46662  0.10314  0.34324  Biso   1.000  O
  N7       1.0000 0.33037  0.26551  0.27293  Biso   1.000  N
  N8       1.0000 0.47167  0.05358  0.29745  Biso   1.000  N
  C13      1.0000 0.29168  0.32623  0.23897  Biso   1.000  C
  H13      1.0000 0.32030  0.37980  0.23150  Biso   1.000  H
  C14      1.0000 0.28886  0.18959  0.28460  Biso   1.000  C
  H14      1.0000 0.31550  0.14750  0.30900  Biso   1.000  H
  C15      1.0000 0.47285  0.08762  0.24314  Biso   1.000  C
  H15      1.0000 0.47360  0.14890  0.23800  Biso   1.000  H
  C16      1.0000 0.47298  0.96617  0.30453  Biso   1.000  C
  H16      1.0000 0.47400  0.94200  0.34260  Biso   1.000  H
  O9       1.0000 0.03035  0.34191  0.54303  Biso   1.000  O
  O10      1.0000 0.85314  0.28338  0.59324  Biso   1.000  O
  N9       1.0000 0.01551  0.41963  0.52293  Biso   1.000  N
  N10      1.0000 0.80358  0.27833  0.54745  Biso   1.000  N
  C17      1.0000 0.07623  0.45832  0.48897  Biso   1.000  C
  H17      1.0000 0.12980  0.42970  0.48150  Biso   1.000  H
  C18      1.0000 0.93959  0.46114  0.53460  Biso   1.000  C
  H18      1.0000 0.89750  0.43450  0.55900  Biso   1.000  H
  C19      1.0000 0.83762  0.27715  0.49314  Biso   1.000  C
  H19      1.0000 0.89890  0.27640  0.48800  Biso   1.000  H
  C20      1.0000 0.71617  0.27702  0.55453  Biso   1.000  C
  H20      1.0000 0.69200  0.27600  0.59260  Biso   1.000  H
  O11      1.0000 0.53035  0.84191  0.04303  Biso   1.000  O
  O12      1.0000 0.35314  0.78338  0.09324  Biso   1.000  O
  N11      1.0000 0.51551  0.91963  0.02293  Biso   1.000  N
  N12      1.0000 0.30358  0.77833  0.04745  Biso   1.000  N
  C21      1.0000 0.57623  0.95832  0.98897  Biso   1.000  C
  H21      1.0000 0.62980  0.92970  0.98150  Biso   1.000  H
  C22      1.0000 0.43959  0.96114  0.03460  Biso   1.000  C
  H22      1.0000 0.39750  0.93450  0.05900  Biso   1.000  H
  C23      1.0000 0.33762  0.77715  0.99314  Biso   1.000  C
  H23      1.0000 0.39890  0.77640  0.98800  Biso   1.000  H
  C24      1.0000 0.21617  0.77702  0.05453  Biso   1.000  C
  H24      1.0000 0.19200  0.77600  0.09260  Biso   1.000  H
  O13      1.0000 0.46965  0.65809  0.04303  Biso   1.000  O
  O14      1.0000 0.64686  0.71662  0.09324  Biso   1.000  O
  N13      1.0000 0.48449  0.58037  0.02293  Biso   1.000  N
  N14      1.0000 0.69642  0.72167  0.04745  Biso   1.000  N
  C25      1.0000 0.42377  0.54168  0.98897  Biso   1.000  C
  H25      1.0000 0.37020  0.57030  0.98150  Biso   1.000  H
  C26      1.0000 0.56041  0.53886  0.03460  Biso   1.000  C
  H26      1.0000 0.60250  0.56550  0.05900  Biso   1.000  H
  C27      1.0000 0.66238  0.72285  0.99314  Biso   1.000  C
  H27      1.0000 0.60110  0.72360  0.98800  Biso   1.000  H
  C28      1.0000 0.78383  0.72298  0.05453  Biso   1.000  C
  H28      1.0000 0.80800  0.72400  0.09260  Biso   1.000  H
  O15      1.0000 0.96965  0.15809  0.54303  Biso   1.000  O
  O16      1.0000 0.14686  0.21662  0.59324  Biso   1.000  O
  N15      1.0000 0.98449  0.08037  0.52293  Biso   1.000  N
  N16      1.0000 0.19642  0.22167  0.54745  Biso   1.000  N
  C29      1.0000 0.92377  0.04168  0.48897  Biso   1.000  C
  H29      1.0000 0.87020  0.07030  0.48150  Biso   1.000  H
  C30      1.0000 0.06041  0.03886  0.53460  Biso   1.000  C
  H30      1.0000 0.10250  0.06550  0.55900  Biso   1.000  H
  C31      1.0000 0.16238  0.22285  0.49314  Biso   1.000  C
  H31      1.0000 0.10110  0.22360  0.48800  Biso   1.000  H
  C32      1.0000 0.28383  0.22298  0.55453  Biso   1.000  C
  H32      1.0000 0.30800  0.22400  0.59260  Biso   1.000  H
  O17      1.0000 0.90809  0.21965  0.70697  Biso   1.000  O
  O18      1.0000 0.96662  0.39686  0.65676  Biso   1.000  O
  N17      1.0000 0.83037  0.23449  0.72707  Biso   1.000  N
  N18      1.0000 0.97167  0.44642  0.70255  Biso   1.000  N
  C33      1.0000 0.79168  0.17377  0.76103  Biso   1.000  C
  H33      1.0000 0.82030  0.12020  0.76850  Biso   1.000  H
  C34      1.0000 0.78886  0.31041  0.71540  Biso   1.000  C
  H34      1.0000 0.81550  0.35250  0.69100  Biso   1.000  H
  C35      1.0000 0.97285  0.41238  0.75686  Biso   1.000  C
  H35      1.0000 0.97360  0.35110  0.76200  Biso   1.000  H
  C36      1.0000 0.97298  0.53383  0.69547  Biso   1.000  C
  H36      1.0000 0.97400  0.55800  0.65740  Biso   1.000  H
  O19      1.0000 0.40809  0.71965  0.20697  Biso   1.000  O
  O20      1.0000 0.46662  0.89686  0.15676  Biso   1.000  O
  N19      1.0000 0.33037  0.73449  0.22707  Biso   1.000  N
  N20      1.0000 0.47167  0.94642  0.20255  Biso   1.000  N
  C37      1.0000 0.29168  0.67377  0.26103  Biso   1.000  C
  H37      1.0000 0.32030  0.62020  0.26850  Biso   1.000  H
  C38      1.0000 0.28886  0.81041  0.21540  Biso   1.000  C
  H38      1.0000 0.31550  0.85250  0.19100  Biso   1.000  H
  C39      1.0000 0.47285  0.91238  0.25686  Biso   1.000  C
  H39      1.0000 0.47360  0.85110  0.26200  Biso   1.000  H
  C40      1.0000 0.47298  0.03383  0.19547  Biso   1.000  C
  H40      1.0000 0.47400  0.05800  0.15740  Biso   1.000  H
  O21      1.0000 0.59191  0.78035  0.20697  Biso   1.000  O
  O22      1.0000 0.53338  0.60314  0.15676  Biso   1.000  O
  N21      1.0000 0.66963  0.76551  0.22707  Biso   1.000  N
  N22      1.0000 0.52833  0.55358  0.20255  Biso   1.000  N
  C41      1.0000 0.70832  0.82623  0.26103  Biso   1.000  C
  H41      1.0000 0.67970  0.87980  0.26850  Biso   1.000  H
  C42      1.0000 0.71114  0.68959  0.21540  Biso   1.000  C
  H42      1.0000 0.68450  0.64750  0.19100  Biso   1.000  H
  C43      1.0000 0.52715  0.58762  0.25686  Biso   1.000  C
  H43      1.0000 0.52640  0.64890  0.26200  Biso   1.000  H
  C44      1.0000 0.52702  0.46617  0.19547  Biso   1.000  C
  H44      1.0000 0.52600  0.44200  0.15740  Biso   1.000  H
  O23      1.0000 0.09191  0.28035  0.70697  Biso   1.000  O
  O24      1.0000 0.03338  0.10314  0.65676  Biso   1.000  O
  N23      1.0000 0.16963  0.26551  0.72707  Biso   1.000  N
  N24      1.0000 0.02833  0.05358  0.70255  Biso   1.000  N
  C45      1.0000 0.20832  0.32623  0.76103  Biso   1.000  C
  H45      1.0000 0.17970  0.37980  0.76850  Biso   1.000  H
  C46      1.0000 0.21114  0.18959  0.71540  Biso   1.000  C
  H46      1.0000 0.18450  0.14750  0.69100  Biso   1.000  H
  C47      1.0000 0.02715  0.08762  0.75686  Biso   1.000  C
  H47      1.0000 0.02640  0.14890  0.76200  Biso   1.000  H
  C48      1.0000 0.02702  0.96617  0.69547  Biso   1.000  C
  H48      1.0000 0.02600  0.94200  0.65740  Biso   1.000  H
  O25      1.0000 0.46965  0.34191  0.45697  Biso   1.000  O
  O26      1.0000 0.64686  0.28338  0.40676  Biso   1.000  O
  N25      1.0000 0.48449  0.41963  0.47707  Biso   1.000  N
  N26      1.0000 0.69642  0.27833  0.45255  Biso   1.000  N
  C49      1.0000 0.42377  0.45832  0.51103  Biso   1.000  C
  H49      1.0000 0.37020  0.42970  0.51850  Biso   1.000  H
  C50      1.0000 0.56041  0.46114  0.46540  Biso   1.000  C
  H50      1.0000 0.60250  0.43450  0.44100  Biso   1.000  H
  C51      1.0000 0.66238  0.27715  0.50686  Biso   1.000  C
  H51      1.0000 0.60110  0.27640  0.51200  Biso   1.000  H
  C52      1.0000 0.78383  0.27702  0.44547  Biso   1.000  C
  H52      1.0000 0.80800  0.27600  0.40740  Biso   1.000  H
  O27      1.0000 0.96965  0.84191  0.95697  Biso   1.000  O
  O28      1.0000 0.14686  0.78338  0.90676  Biso   1.000  O
  N27      1.0000 0.98449  0.91963  0.97707  Biso   1.000  N
  N28      1.0000 0.19642  0.77833  0.95255  Biso   1.000  N
  C53      1.0000 0.92377  0.95832  0.01103  Biso   1.000  C
  H53      1.0000 0.87020  0.92970  0.01850  Biso   1.000  H
  C54      1.0000 0.06041  0.96114  0.96540  Biso   1.000  C
  H54      1.0000 0.10250  0.93450  0.94100  Biso   1.000  H
  C55      1.0000 0.16238  0.77715  0.00686  Biso   1.000  C
  H55      1.0000 0.10110  0.77640  0.01200  Biso   1.000  H
  C56      1.0000 0.28383  0.77702  0.94547  Biso   1.000  C
  H56      1.0000 0.30800  0.77600  0.90740  Biso   1.000  H
  O29      1.0000 0.03035  0.65809  0.95697  Biso   1.000  O
  O30      1.0000 0.85314  0.71662  0.90676  Biso   1.000  O
  N29      1.0000 0.01551  0.58037  0.97707  Biso   1.000  N
  N30      1.0000 0.80358  0.72167  0.95255  Biso   1.000  N
  C57      1.0000 0.07623  0.54168  0.01103  Biso   1.000  C
  H57      1.0000 0.12980  0.57030  0.01850  Biso   1.000  H
  C58      1.0000 0.93959  0.53886  0.96540  Biso   1.000  C
  H58      1.0000 0.89750  0.56550  0.94100  Biso   1.000  H
  C59      1.0000 0.83762  0.72285  0.00686  Biso   1.000  C
  H59      1.0000 0.89890  0.72360  0.01200  Biso   1.000  H
  C60      1.0000 0.71617  0.72298  0.94547  Biso   1.000  C
  H60      1.0000 0.69200  0.72400  0.90740  Biso   1.000  H
  O31      1.0000 0.53035  0.15809  0.45697  Biso   1.000  O
  O32      1.0000 0.35314  0.21662  0.40676  Biso   1.000  O
  N31      1.0000 0.51551  0.08037  0.47707  Biso   1.000  N
  N32      1.0000 0.30358  0.22167  0.45255  Biso   1.000  N
  C61      1.0000 0.57623  0.04168  0.51103  Biso   1.000  C
  H61      1.0000 0.62980  0.07030  0.51850  Biso   1.000  H
  C62      1.0000 0.43959  0.03886  0.46540  Biso   1.000  C
  H62      1.0000 0.39750  0.06550  0.44100  Biso   1.000  H
  C63      1.0000 0.33762  0.22285  0.50686  Biso   1.000  C
  H63      1.0000 0.39890  0.22360  0.51200  Biso   1.000  H
  C64      1.0000 0.21617  0.22298  0.44547  Biso   1.000  C
  H64      1.0000 0.19200  0.22400  0.40740  Biso   1.000  H
  O33      1.0000 0.40809  0.78035  0.70697  Biso   1.000  O
  O34      1.0000 0.46662  0.60314  0.65676  Biso   1.000  O
  N33      1.0000 0.33037  0.76551  0.72707  Biso   1.000  N
  N34      1.0000 0.47167  0.55358  0.70255  Biso   1.000  N
  C65      1.0000 0.29168  0.82623  0.76103  Biso   1.000  C
  H65      1.0000 0.32030  0.87980  0.76850  Biso   1.000  H
  C66      1.0000 0.28886  0.68959  0.71540  Biso   1.000  C
  H66      1.0000 0.31550  0.64750  0.69100  Biso   1.000  H
  C67      1.0000 0.47285  0.58762  0.75686  Biso   1.000  C
  H67      1.0000 0.47360  0.64890  0.76200  Biso   1.000  H
  C68      1.0000 0.47298  0.46617  0.69547  Biso   1.000  C
  H68      1.0000 0.47400  0.44200  0.65740  Biso   1.000  H
  O35      1.0000 0.90809  0.28035  0.20697  Biso   1.000  O
  O36      1.0000 0.96662  0.10314  0.15676  Biso   1.000  O
  N35      1.0000 0.83037  0.26551  0.22707  Biso   1.000  N
  N36      1.0000 0.97167  0.05358  0.20255  Biso   1.000  N
  C69      1.0000 0.79168  0.32623  0.26103  Biso   1.000  C
  H69      1.0000 0.82030  0.37980  0.26850  Biso   1.000  H
  C70      1.0000 0.78886  0.18959  0.21540  Biso   1.000  C
  H70      1.0000 0.81550  0.14750  0.19100  Biso   1.000  H
  C71      1.0000 0.97285  0.08762  0.25686  Biso   1.000  C
  H71      1.0000 0.97360  0.14890  0.26200  Biso   1.000  H
  C72      1.0000 0.97298  0.96617  0.19547  Biso   1.000  C
  H72      1.0000 0.97400  0.94200  0.15740  Biso   1.000  H
  O37      1.0000 0.09191  0.21965  0.20697  Biso   1.000  O
  O38      1.0000 0.03338  0.39686  0.15676  Biso   1.000  O
  N37      1.0000 0.16963  0.23449  0.22707  Biso   1.000  N
  N38      1.0000 0.02833  0.44642  0.20255  Biso   1.000  N
  C73      1.0000 0.20832  0.17377  0.26103  Biso   1.000  C
  H73      1.0000 0.17970  0.12020  0.26850  Biso   1.000  H
  C74      1.0000 0.21114  0.31041  0.21540  Biso   1.000  C
  H74      1.0000 0.18450  0.35250  0.19100  Biso   1.000  H
  C75      1.0000 0.02715  0.41238  0.25686  Biso   1.000  C
  H75      1.0000 0.02640  0.35110  0.26200  Biso   1.000  H
  C76      1.0000 0.02702  0.53383  0.19547  Biso   1.000  C
  H76      1.0000 0.02600  0.55800  0.15740  Biso   1.000  H
  O39      1.0000 0.59191  0.71965  0.70697  Biso   1.000  O
  O40      1.0000 0.53338  0.89686  0.65676  Biso   1.000  O
  N39      1.0000 0.66963  0.73449  0.72707  Biso   1.000  N
  N40      1.0000 0.52833  0.94642  0.70255  Biso   1.000  N
  C77      1.0000 0.70832  0.67377  0.76103  Biso   1.000  C
  H77      1.0000 0.67970  0.62020  0.76850  Biso   1.000  H
  C78      1.0000 0.71114  0.81041  0.71540  Biso   1.000  C
  H78      1.0000 0.68450  0.85250  0.69100  Biso   1.000  H
  C79      1.0000 0.52715  0.91238  0.75686  Biso   1.000  C
  H79      1.0000 0.52640  0.85110  0.76200  Biso   1.000  H
  C80      1.0000 0.52702  0.03383  0.69547  Biso   1.000  C
  H80      1.0000 0.52600  0.05800  0.65740  Biso   1.000  H
  O41      1.0000 0.96965  0.65809  0.45697  Biso   1.000  O
  O42      1.0000 0.14686  0.71662  0.40676  Biso   1.000  O
  N41      1.0000 0.98449  0.58037  0.47707  Biso   1.000  N
  N42      1.0000 0.19642  0.72167  0.45255  Biso   1.000  N
  C81      1.0000 0.92377  0.54168  0.51103  Biso   1.000  C
  H81      1.0000 0.87020  0.57030  0.51850  Biso   1.000  H
  C82      1.0000 0.06041  0.53886  0.46540  Biso   1.000  C
  H82      1.0000 0.10250  0.56550  0.44100  Biso   1.000  H
  C83      1.0000 0.16238  0.72285  0.50686  Biso   1.000  C
  H83      1.0000 0.10110  0.72360  0.51200  Biso   1.000  H
  C84      1.0000 0.28383  0.72298  0.44547  Biso   1.000  C
  H84      1.0000 0.30800  0.72400  0.40740  Biso   1.000  H
  O43      1.0000 0.46965  0.15809  0.95697  Biso   1.000  O
  O44      1.0000 0.64686  0.21662  0.90676  Biso   1.000  O
  N43      1.0000 0.48449  0.08037  0.97707  Biso   1.000  N
  N44      1.0000 0.69642  0.22167  0.95255  Biso   1.000  N
  C85      1.0000 0.42377  0.04168  0.01103  Biso   1.000  C
  H85      1.0000 0.37020  0.07030  0.01850  Biso   1.000  H
  C86      1.0000 0.56041  0.03886  0.96540  Biso   1.000  C
  H86      1.0000 0.60250  0.06550  0.94100  Biso   1.000  H
  C87      1.0000 0.66238  0.22285  0.00686  Biso   1.000  C
  H87      1.0000 0.60110  0.22360  0.01200  Biso   1.000  H
  C88      1.0000 0.78383  0.22298  0.94547  Biso   1.000  C
  H88      1.0000 0.80800  0.22400  0.90740  Biso   1.000  H
  O45      1.0000 0.53035  0.34191  0.95697  Biso   1.000  O
  O46      1.0000 0.35314  0.28338  0.90676  Biso   1.000  O
  N45      1.0000 0.51551  0.41963  0.97707  Biso   1.000  N
  N46      1.0000 0.30358  0.27833  0.95255  Biso   1.000  N
  C89      1.0000 0.57623  0.45832  0.01103  Biso   1.000  C
  H89      1.0000 0.62980  0.42970  0.01850  Biso   1.000  H
  C90      1.0000 0.43959  0.46114  0.96540  Biso   1.000  C
  H90      1.0000 0.39750  0.43450  0.94100  Biso   1.000  H
  C91      1.0000 0.33762  0.27715  0.00686  Biso   1.000  C
  H91      1.0000 0.39890  0.27640  0.01200  Biso   1.000  H
  C92      1.0000 0.21617  0.27702  0.94547  Biso   1.000  C
  H92      1.0000 0.19200  0.27600  0.90740  Biso   1.000  H
  O47      1.0000 0.03035  0.84191  0.45697  Biso   1.000  O
  O48      1.0000 0.85314  0.78338  0.40676  Biso   1.000  O
  N47      1.0000 0.01551  0.91963  0.47707  Biso   1.000  N
  N48      1.0000 0.80358  0.77833  0.45255  Biso   1.000  N
  C93      1.0000 0.07623  0.95832  0.51103  Biso   1.000  C
  H93      1.0000 0.12980  0.92970  0.51850  Biso   1.000  H
  C94      1.0000 0.93959  0.96114  0.46540  Biso   1.000  C
  H94      1.0000 0.89750  0.93450  0.44100  Biso   1.000  H
  C95      1.0000 0.83762  0.77715  0.50686  Biso   1.000  C
  H95      1.0000 0.89890  0.77640  0.51200  Biso   1.000  H
  C96      1.0000 0.71617  0.77702  0.44547  Biso   1.000  C
  H96      1.0000 0.69200  0.77600  0.40740  Biso   1.000  H
  O49      1.0000 0.09191  0.78035  0.29303  Biso   1.000  O
  O50      1.0000 0.03338  0.60314  0.34324  Biso   1.000  O
  N49      1.0000 0.16963  0.76551  0.27293  Biso   1.000  N
  N50      1.0000 0.02833  0.55358  0.29745  Biso   1.000  N
  C97      1.0000 0.20832  0.82623  0.23897  Biso   1.000  C
  H97      1.0000 0.17970  0.87980  0.23150  Biso   1.000  H
  C98      1.0000 0.21114  0.68959  0.28460  Biso   1.000  C
  H98      1.0000 0.18450  0.64750  0.30900  Biso   1.000  H
  C99      1.0000 0.02715  0.58762  0.24314  Biso   1.000  C
  H99      1.0000 0.02640  0.64890  0.23800  Biso   1.000  H
  C100     1.0000 0.02702  0.46617  0.30453  Biso   1.000  C
  H100     1.0000 0.02600  0.44200  0.34260  Biso   1.000  H
  O51      1.0000 0.59191  0.28035  0.79303  Biso   1.000  O
  O52      1.0000 0.53338  0.10314  0.84324  Biso   1.000  O
  N51      1.0000 0.66963  0.26551  0.77293  Biso   1.000  N
  N52      1.0000 0.52833  0.05358  0.79745  Biso   1.000  N
  C101     1.0000 0.70832  0.32623  0.73897  Biso   1.000  C
  H101     1.0000 0.67970  0.37980  0.73150  Biso   1.000  H
  C102     1.0000 0.71114  0.18959  0.78460  Biso   1.000  C
  H102     1.0000 0.68450  0.14750  0.80900  Biso   1.000  H
  C103     1.0000 0.52715  0.08762  0.74314  Biso   1.000  C
  H103     1.0000 0.52640  0.14890  0.73800  Biso   1.000  H
  C104     1.0000 0.52702  0.96617  0.80453  Biso   1.000  C
  H104     1.0000 0.52600  0.94200  0.84260  Biso   1.000  H
  O53      1.0000 0.40809  0.21965  0.79303  Biso   1.000  O
  O54      1.0000 0.46662  0.39686  0.84324  Biso   1.000  O
  N53      1.0000 0.33037  0.23449  0.77293  Biso   1.000  N
  N54      1.0000 0.47167  0.44642  0.79745  Biso   1.000  N
  C105     1.0000 0.29168  0.17377  0.73897  Biso   1.000  C
  H105     1.0000 0.32030  0.12020  0.73150  Biso   1.000  H
  C106     1.0000 0.28886  0.31041  0.78460  Biso   1.000  C
  H106     1.0000 0.31550  0.35250  0.80900  Biso   1.000  H
  C107     1.0000 0.47285  0.41238  0.74314  Biso   1.000  C
  H107     1.0000 0.47360  0.35110  0.73800  Biso   1.000  H
  C108     1.0000 0.47298  0.53383  0.80453  Biso   1.000  C
  H108     1.0000 0.47400  0.55800  0.84260  Biso   1.000  H
  O55      1.0000 0.90809  0.71965  0.29303  Biso   1.000  O
  O56      1.0000 0.96662  0.89686  0.34324  Biso   1.000  O
  N55      1.0000 0.83037  0.73449  0.27293  Biso   1.000  N
  N56      1.0000 0.97167  0.94642  0.29745  Biso   1.000  N
  C109     1.0000 0.79168  0.67377  0.23897  Biso   1.000  C
  H109     1.0000 0.82030  0.62020  0.23150  Biso   1.000  H
  C110     1.0000 0.78886  0.81041  0.28460  Biso   1.000  C
  H110     1.0000 0.81550  0.85250  0.30900  Biso   1.000  H
  C111     1.0000 0.97285  0.91238  0.24314  Biso   1.000  C
  H111     1.0000 0.97360  0.85110  0.23800  Biso   1.000  H
  C112     1.0000 0.97298  0.03383  0.30453  Biso   1.000  C
  H112     1.0000 0.97400  0.05800  0.34260  Biso   1.000  H
  O57      1.0000 0.53035  0.65809  0.54303  Biso   1.000  O
  O58      1.0000 0.35314  0.71662  0.59324  Biso   1.000  O
  N57      1.0000 0.51551  0.58037  0.52293  Biso   1.000  N
  N58      1.0000 0.30358  0.72167  0.54745  Biso   1.000  N
  C113     1.0000 0.57623  0.54168  0.48897  Biso   1.000  C
  H113     1.0000 0.62980  0.57030  0.48150  Biso   1.000  H
  C114     1.0000 0.43959  0.53886  0.53460  Biso   1.000  C
  H114     1.0000 0.39750  0.56550  0.55900  Biso   1.000  H
  C115     1.0000 0.33762  0.72285  0.49314  Biso   1.000  C
  H115     1.0000 0.39890  0.72360  0.48800  Biso   1.000  H
  C116     1.0000 0.21617  0.72298  0.55453  Biso   1.000  C
  H116     1.0000 0.19200  0.72400  0.59260  Biso   1.000  H
  O59      1.0000 0.03035  0.15809  0.04303  Biso   1.000  O
  O60      1.0000 0.85314  0.21662  0.09324  Biso   1.000  O
  N59      1.0000 0.01551  0.08037  0.02293  Biso   1.000  N
  N60      1.0000 0.80358  0.22167  0.04745  Biso   1.000  N
  C117     1.0000 0.07623  0.04168  0.98897  Biso   1.000  C
  H117     1.0000 0.12980  0.07030  0.98150  Biso   1.000  H
  C118     1.0000 0.93959  0.03886  0.03460  Biso   1.000  C
  H118     1.0000 0.89750  0.06550  0.05900  Biso   1.000  H
  C119     1.0000 0.83762  0.22285  0.99314  Biso   1.000  C
  H119     1.0000 0.89890  0.22360  0.98800  Biso   1.000  H
  C120     1.0000 0.71617  0.22298  0.05453  Biso   1.000  C
  H120     1.0000 0.69200  0.22400  0.09260  Biso   1.000  H
  O61      1.0000 0.96965  0.34191  0.04303  Biso   1.000  O
  O62      1.0000 0.14686  0.28338  0.09324  Biso   1.000  O
  N61      1.0000 0.98449  0.41963  0.02293  Biso   1.000  N
  N62      1.0000 0.19642  0.27833  0.04745  Biso   1.000  N
  C121     1.0000 0.92377  0.45832  0.98897  Biso   1.000  C
  H121     1.0000 0.87020  0.42970  0.98150  Biso   1.000  H
  C122     1.0000 0.06041  0.46114  0.03460  Biso   1.000  C
  H122     1.0000 0.10250  0.43450  0.05900  Biso   1.000  H
  C123     1.0000 0.16238  0.27715  0.99314  Biso   1.000  C
  H123     1.0000 0.10110  0.27640  0.98800  Biso   1.000  H
  C124     1.0000 0.28383  0.27702  0.05453  Biso   1.000  C
  H124     1.0000 0.30800  0.27600  0.09260  Biso   1.000  H
  O63      1.0000 0.46965  0.84191  0.54303  Biso   1.000  O
  O64      1.0000 0.64686  0.78338  0.59324  Biso   1.000  O
  N63      1.0000 0.48449  0.91963  0.52293  Biso   1.000  N
  N64      1.0000 0.69642  0.77833  0.54745  Biso   1.000  N
  C125     1.0000 0.42377  0.95832  0.48897  Biso   1.000  C
  H125     1.0000 0.37020  0.92970  0.48150  Biso   1.000  H
  C126     1.0000 0.56041  0.96114  0.53460  Biso   1.000  C
  H126     1.0000 0.60250  0.93450  0.55900  Biso   1.000  H
  C127     1.0000 0.66238  0.77715  0.49314  Biso   1.000  C
  H127     1.0000 0.60110  0.77640  0.48800  Biso   1.000  H
  C128     1.0000 0.78383  0.77702  0.55453  Biso   1.000  C
  H128     1.0000 0.80800  0.77600  0.59260  Biso   1.000  H
  Nd1      1.0000 0.50000  0.25000  0.37500  Biso   1.000  Nd
  Nd2      1.0000 0.00000  0.75000  0.87500  Biso   1.000  Nd
  Nd3      1.0000 0.00000  0.25000  0.62500  Biso   1.000  Nd
  Nd4      1.0000 0.50000  0.75000  0.12500  Biso   1.000  Nd
  Nd5      1.0000 0.50000  0.75000  0.62500  Biso   1.000  Nd
  Nd6      1.0000 0.00000  0.25000  0.12500  Biso   1.000  Nd
  Nd7      1.0000 0.00000  0.75000  0.37500  Biso   1.000  Nd
  Nd8      1.0000 0.50000  0.25000  0.87500  Biso   1.000  Nd
