data_image0
_cell_length_a       15.2302
_cell_length_b       15.2302
_cell_length_c       22.6334
_cell_angle_alpha    90
_cell_angle_beta     90
_cell_angle_gamma    90

_symmetry_space_group_name_H-M    "P 1"
_symmetry_int_tables_number       1

loop_
  _symmetry_equiv_pos_as_xyz
  'x, y, z'

loop_
  _atom_site_label
  _atom_site_occupancy
  _atom_site_fract_x
  _atom_site_fract_y
  _atom_site_fract_z
  _atom_site_thermal_displace_type
  _atom_site_B_iso_or_equiv
  _atom_site_type_symbol
  O1       1.0000 0.59106  0.21881  0.29529  Biso   1.000  O
  O2       1.0000 0.53202  0.39424  0.34396  Biso   1.000  O
  N1       1.0000 0.66932  0.23422  0.27425  Biso   1.000  N
  N2       1.0000 0.52691  0.44463  0.29771  Biso   1.000  N
  C1       1.0000 0.70854  0.17233  0.24034  Biso   1.000  C
  H1       1.0000 0.68000  0.11780  0.23360  Biso   1.000  H
  C2       1.0000 0.78932  0.18805  0.21558  Biso   1.000  C
  H2       1.0000 0.81630  0.14480  0.19140  Biso   1.000  H
  C3       1.0000 0.52620  0.41170  0.24238  Biso   1.000  C
  H3       1.0000 0.52590  0.34990  0.23660  Biso   1.000  H
  C4       1.0000 0.52590  0.46676  0.19448  Biso   1.000  C
  H4       1.0000 0.52490  0.44300  0.15570  Biso   1.000  H
  O3       1.0000 0.09106  0.71881  0.79529  Biso   1.000  O
  O4       1.0000 0.03202  0.89424  0.84396  Biso   1.000  O
  N3       1.0000 0.16932  0.73422  0.77425  Biso   1.000  N
  N4       1.0000 0.02691  0.94463  0.79771  Biso   1.000  N
  C5       1.0000 0.20854  0.67233  0.74034  Biso   1.000  C
  H5       1.0000 0.18000  0.61780  0.73360  Biso   1.000  H
  C6       1.0000 0.28932  0.68805  0.71558  Biso   1.000  C
  H6       1.0000 0.31630  0.64480  0.69140  Biso   1.000  H
  C7       1.0000 0.02620  0.91170  0.74238  Biso   1.000  C
  H7       1.0000 0.02590  0.84990  0.73660  Biso   1.000  H
  C8       1.0000 0.02590  0.96676  0.69448  Biso   1.000  C
  H8       1.0000 0.02490  0.94300  0.65570  Biso   1.000  H
  O5       1.0000 0.90894  0.78119  0.79529  Biso   1.000  O
  O6       1.0000 0.96798  0.60576  0.84396  Biso   1.000  O
  N5       1.0000 0.83068  0.76578  0.77425  Biso   1.000  N
  N6       1.0000 0.97309  0.55537  0.79771  Biso   1.000  N
  C9       1.0000 0.79146  0.82767  0.74034  Biso   1.000  C
  H9       1.0000 0.82000  0.88220  0.73360  Biso   1.000  H
  C10      1.0000 0.71068  0.81195  0.71558  Biso   1.000  C
  H10      1.0000 0.68370  0.85520  0.69140  Biso   1.000  H
  C11      1.0000 0.97380  0.58830  0.74238  Biso   1.000  C
  H11      1.0000 0.97410  0.65010  0.73660  Biso   1.000  H
  C12      1.0000 0.97410  0.53324  0.69448  Biso   1.000  C
  H12      1.0000 0.97510  0.55700  0.65570  Biso   1.000  H
  O7       1.0000 0.40894  0.28119  0.29529  Biso   1.000  O
  O8       1.0000 0.46798  0.10576  0.34396  Biso   1.000  O
  N7       1.0000 0.33068  0.26578  0.27425  Biso   1.000  N
  N8       1.0000 0.47309  0.05537  0.29771  Biso   1.000  N
  C13      1.0000 0.29146  0.32767  0.24034  Biso   1.000  C
  H13      1.0000 0.32000  0.38220  0.23360  Biso   1.000  H
  C14      1.0000 0.21068  0.31195  0.21558  Biso   1.000  C
  H14      1.0000 0.18370  0.35520  0.19140  Biso   1.000  H
  C15      1.0000 0.47380  0.08830  0.24238  Biso   1.000  C
  H15      1.0000 0.47410  0.15010  0.23660  Biso   1.000  H
  C16      1.0000 0.47410  0.03324  0.19448  Biso   1.000  C
  H16      1.0000 0.47510  0.05700  0.15570  Biso   1.000  H
  O9       1.0000 0.03119  0.34106  0.54529  Biso   1.000  O
  O10      1.0000 0.85576  0.28202  0.59396  Biso   1.000  O
  N9       1.0000 0.01578  0.41932  0.52425  Biso   1.000  N
  N10      1.0000 0.80537  0.27691  0.54771  Biso   1.000  N
  C17      1.0000 0.07767  0.45854  0.49034  Biso   1.000  C
  H17      1.0000 0.13220  0.43000  0.48360  Biso   1.000  H
  C18      1.0000 0.06195  0.53932  0.46558  Biso   1.000  C
  H18      1.0000 0.10520  0.56630  0.44140  Biso   1.000  H
  C19      1.0000 0.83830  0.27620  0.49238  Biso   1.000  C
  H19      1.0000 0.90010  0.27590  0.48660  Biso   1.000  H
  C20      1.0000 0.78324  0.27590  0.44448  Biso   1.000  C
  H20      1.0000 0.80700  0.27490  0.40570  Biso   1.000  H
  O11      1.0000 0.53119  0.84106  0.04529  Biso   1.000  O
  O12      1.0000 0.35576  0.78202  0.09396  Biso   1.000  O
  N11      1.0000 0.51578  0.91932  0.02425  Biso   1.000  N
  N12      1.0000 0.30537  0.77691  0.04771  Biso   1.000  N
  C21      1.0000 0.57767  0.95854  0.99034  Biso   1.000  C
  H21      1.0000 0.63220  0.93000  0.98360  Biso   1.000  H
  C22      1.0000 0.56195  0.03932  0.96558  Biso   1.000  C
  H22      1.0000 0.60520  0.06630  0.94140  Biso   1.000  H
  C23      1.0000 0.33830  0.77620  0.99238  Biso   1.000  C
  H23      1.0000 0.40010  0.77590  0.98660  Biso   1.000  H
  C24      1.0000 0.28324  0.77590  0.94448  Biso   1.000  C
  H24      1.0000 0.30700  0.77490  0.90570  Biso   1.000  H
  O13      1.0000 0.46881  0.65894  0.04529  Biso   1.000  O
  O14      1.0000 0.64424  0.71798  0.09396  Biso   1.000  O
  N13      1.0000 0.48422  0.58068  0.02425  Biso   1.000  N
  N14      1.0000 0.69463  0.72309  0.04771  Biso   1.000  N
  C25      1.0000 0.42233  0.54146  0.99034  Biso   1.000  C
  H25      1.0000 0.36780  0.57000  0.98360  Biso   1.000  H
  C26      1.0000 0.43805  0.46068  0.96558  Biso   1.000  C
  H26      1.0000 0.39480  0.43370  0.94140  Biso   1.000  H
  C27      1.0000 0.66170  0.72380  0.99238  Biso   1.000  C
  H27      1.0000 0.59990  0.72410  0.98660  Biso   1.000  H
  C28      1.0000 0.71676  0.72410  0.94448  Biso   1.000  C
  H28      1.0000 0.69300  0.72510  0.90570  Biso   1.000  H
  O15      1.0000 0.96881  0.15894  0.54529  Biso   1.000  O
  O16      1.0000 0.14424  0.21798  0.59396  Biso   1.000  O
  N15      1.0000 0.98422  0.08068  0.52425  Biso   1.000  N
  N16      1.0000 0.19463  0.22309  0.54771  Biso   1.000  N
  C29      1.0000 0.92233  0.04146  0.49034  Biso   1.000  C
  H29      1.0000 0.86780  0.07000  0.48360  Biso   1.000  H
  C30      1.0000 0.93805  0.96068  0.46558  Biso   1.000  C
  H30      1.0000 0.89480  0.93370  0.44140  Biso   1.000  H
  C31      1.0000 0.16170  0.22380  0.49238  Biso   1.000  C
  H31      1.0000 0.09990  0.22410  0.48660  Biso   1.000  H
  C32      1.0000 0.21676  0.22410  0.44448  Biso   1.000  C
  H32      1.0000 0.19300  0.22510  0.40570  Biso   1.000  H
  O17      1.0000 0.90894  0.21881  0.70471  Biso   1.000  O
  O18      1.0000 0.96798  0.39424  0.65604  Biso   1.000  O
  N17      1.0000 0.83068  0.23422  0.72575  Biso   1.000  N
  N18      1.0000 0.97309  0.44463  0.70229  Biso   1.000  N
  C33      1.0000 0.79146  0.17233  0.75966  Biso   1.000  C
  H33      1.0000 0.82000  0.11780  0.76640  Biso   1.000  H
  C34      1.0000 0.71068  0.18805  0.78442  Biso   1.000  C
  H34      1.0000 0.68370  0.14480  0.80860  Biso   1.000  H
  C35      1.0000 0.97380  0.41170  0.75762  Biso   1.000  C
  H35      1.0000 0.97410  0.34990  0.76340  Biso   1.000  H
  C36      1.0000 0.97410  0.46676  0.80552  Biso   1.000  C
  H36      1.0000 0.97510  0.44300  0.84430  Biso   1.000  H
  O19      1.0000 0.40894  0.71881  0.20471  Biso   1.000  O
  O20      1.0000 0.46798  0.89424  0.15604  Biso   1.000  O
  N19      1.0000 0.33068  0.73422  0.22575  Biso   1.000  N
  N20      1.0000 0.47309  0.94463  0.20229  Biso   1.000  N
  C37      1.0000 0.29146  0.67233  0.25966  Biso   1.000  C
  H37      1.0000 0.32000  0.61780  0.26640  Biso   1.000  H
  C38      1.0000 0.21068  0.68805  0.28442  Biso   1.000  C
  H38      1.0000 0.18370  0.64480  0.30860  Biso   1.000  H
  C39      1.0000 0.47380  0.91170  0.25762  Biso   1.000  C
  H39      1.0000 0.47410  0.84990  0.26340  Biso   1.000  H
  C40      1.0000 0.47410  0.96676  0.30552  Biso   1.000  C
  H40      1.0000 0.47510  0.94300  0.34430  Biso   1.000  H
  O21      1.0000 0.59106  0.78119  0.20471  Biso   1.000  O
  O22      1.0000 0.53202  0.60576  0.15604  Biso   1.000  O
  N21      1.0000 0.66932  0.76578  0.22575  Biso   1.000  N
  N22      1.0000 0.52691  0.55537  0.20229  Biso   1.000  N
  C41      1.0000 0.70854  0.82767  0.25966  Biso   1.000  C
  H41      1.0000 0.68000  0.88220  0.26640  Biso   1.000  H
  C42      1.0000 0.78932  0.81195  0.28442  Biso   1.000  C
  H42      1.0000 0.81630  0.85520  0.30860  Biso   1.000  H
  C43      1.0000 0.52620  0.58830  0.25762  Biso   1.000  C
  H43      1.0000 0.52590  0.65010  0.26340  Biso   1.000  H
  C44      1.0000 0.52590  0.53324  0.30552  Biso   1.000  C
  H44      1.0000 0.52490  0.55700  0.34430  Biso   1.000  H
  O23      1.0000 0.09106  0.28119  0.70471  Biso   1.000  O
  O24      1.0000 0.03202  0.10576  0.65604  Biso   1.000  O
  N23      1.0000 0.16932  0.26578  0.72575  Biso   1.000  N
  N24      1.0000 0.02691  0.05537  0.70229  Biso   1.000  N
  C45      1.0000 0.20854  0.32767  0.75966  Biso   1.000  C
  H45      1.0000 0.18000  0.38220  0.76640  Biso   1.000  H
  C46      1.0000 0.28932  0.31195  0.78442  Biso   1.000  C
  H46      1.0000 0.31630  0.35520  0.80860  Biso   1.000  H
  C47      1.0000 0.02620  0.08830  0.75762  Biso   1.000  C
  H47      1.0000 0.02590  0.15010  0.76340  Biso   1.000  H
  C48      1.0000 0.02590  0.03324  0.80552  Biso   1.000  C
  H48      1.0000 0.02490  0.05700  0.84430  Biso   1.000  H
  O25      1.0000 0.46881  0.34106  0.45471  Biso   1.000  O
  O26      1.0000 0.64424  0.28202  0.40604  Biso   1.000  O
  N25      1.0000 0.48422  0.41932  0.47575  Biso   1.000  N
  N26      1.0000 0.69463  0.27691  0.45229  Biso   1.000  N
  C49      1.0000 0.42233  0.45854  0.50966  Biso   1.000  C
  H49      1.0000 0.36780  0.43000  0.51640  Biso   1.000  H
  C50      1.0000 0.43805  0.53932  0.53442  Biso   1.000  C
  H50      1.0000 0.39480  0.56630  0.55860  Biso   1.000  H
  C51      1.0000 0.66170  0.27620  0.50762  Biso   1.000  C
  H51      1.0000 0.59990  0.27590  0.51340  Biso   1.000  H
  C52      1.0000 0.71676  0.27590  0.55552  Biso   1.000  C
  H52      1.0000 0.69300  0.27490  0.59430  Biso   1.000  H
  O27      1.0000 0.96881  0.84106  0.95471  Biso   1.000  O
  O28      1.0000 0.14424  0.78202  0.90604  Biso   1.000  O
  N27      1.0000 0.98422  0.91932  0.97575  Biso   1.000  N
  N28      1.0000 0.19463  0.77691  0.95229  Biso   1.000  N
  C53      1.0000 0.92233  0.95854  0.00966  Biso   1.000  C
  H53      1.0000 0.86780  0.93000  0.01640  Biso   1.000  H
  C54      1.0000 0.93805  0.03932  0.03442  Biso   1.000  C
  H54      1.0000 0.89480  0.06630  0.05860  Biso   1.000  H
  C55      1.0000 0.16170  0.77620  0.00762  Biso   1.000  C
  H55      1.0000 0.09990  0.77590  0.01340  Biso   1.000  H
  C56      1.0000 0.21676  0.77590  0.05552  Biso   1.000  C
  H56      1.0000 0.19300  0.77490  0.09430  Biso   1.000  H
  O29      1.0000 0.03119  0.65894  0.95471  Biso   1.000  O
  O30      1.0000 0.85576  0.71798  0.90604  Biso   1.000  O
  N29      1.0000 0.01578  0.58068  0.97575  Biso   1.000  N
  N30      1.0000 0.80537  0.72309  0.95229  Biso   1.000  N
  C57      1.0000 0.07767  0.54146  0.00966  Biso   1.000  C
  H57      1.0000 0.13220  0.57000  0.01640  Biso   1.000  H
  C58      1.0000 0.06195  0.46068  0.03442  Biso   1.000  C
  H58      1.0000 0.10520  0.43370  0.05860  Biso   1.000  H
  C59      1.0000 0.83830  0.72380  0.00762  Biso   1.000  C
  H59      1.0000 0.90010  0.72410  0.01340  Biso   1.000  H
  C60      1.0000 0.78324  0.72410  0.05552  Biso   1.000  C
  H60      1.0000 0.80700  0.72510  0.09430  Biso   1.000  H
  O31      1.0000 0.53119  0.15894  0.45471  Biso   1.000  O
  O32      1.0000 0.35576  0.21798  0.40604  Biso   1.000  O
  N31      1.0000 0.51578  0.08068  0.47575  Biso   1.000  N
  N32      1.0000 0.30537  0.22309  0.45229  Biso   1.000  N
  C61      1.0000 0.57767  0.04146  0.50966  Biso   1.000  C
  H61      1.0000 0.63220  0.07000  0.51640  Biso   1.000  H
  C62      1.0000 0.56195  0.96068  0.53442  Biso   1.000  C
  H62      1.0000 0.60520  0.93370  0.55860  Biso   1.000  H
  C63      1.0000 0.33830  0.22380  0.50762  Biso   1.000  C
  H63      1.0000 0.40010  0.22410  0.51340  Biso   1.000  H
  C64      1.0000 0.28324  0.22410  0.55552  Biso   1.000  C
  H64      1.0000 0.30700  0.22510  0.59430  Biso   1.000  H
  O33      1.0000 0.40894  0.78119  0.70471  Biso   1.000  O
  O34      1.0000 0.46798  0.60576  0.65604  Biso   1.000  O
  N33      1.0000 0.33068  0.76578  0.72575  Biso   1.000  N
  N34      1.0000 0.47309  0.55537  0.70229  Biso   1.000  N
  C65      1.0000 0.29146  0.82767  0.75966  Biso   1.000  C
  H65      1.0000 0.32000  0.88220  0.76640  Biso   1.000  H
  C66      1.0000 0.21068  0.81195  0.78442  Biso   1.000  C
  H66      1.0000 0.18370  0.85520  0.80860  Biso   1.000  H
  C67      1.0000 0.47380  0.58830  0.75762  Biso   1.000  C
  H67      1.0000 0.47410  0.65010  0.76340  Biso   1.000  H
  C68      1.0000 0.47410  0.53324  0.80552  Biso   1.000  C
  H68      1.0000 0.47510  0.55700  0.84430  Biso   1.000  H
  O35      1.0000 0.90894  0.28119  0.20471  Biso   1.000  O
  O36      1.0000 0.96798  0.10576  0.15604  Biso   1.000  O
  N35      1.0000 0.83068  0.26578  0.22575  Biso   1.000  N
  N36      1.0000 0.97309  0.05537  0.20229  Biso   1.000  N
  C69      1.0000 0.79146  0.32767  0.25966  Biso   1.000  C
  H69      1.0000 0.82000  0.38220  0.26640  Biso   1.000  H
  C70      1.0000 0.71068  0.31195  0.28442  Biso   1.000  C
  H70      1.0000 0.68370  0.35520  0.30860  Biso   1.000  H
  C71      1.0000 0.97380  0.08830  0.25762  Biso   1.000  C
  H71      1.0000 0.97410  0.15010  0.26340  Biso   1.000  H
  C72      1.0000 0.97410  0.03324  0.30552  Biso   1.000  C
  H72      1.0000 0.97510  0.05700  0.34430  Biso   1.000  H
  O37      1.0000 0.09106  0.21881  0.20471  Biso   1.000  O
  O38      1.0000 0.03202  0.39424  0.15604  Biso   1.000  O
  N37      1.0000 0.16932  0.23422  0.22575  Biso   1.000  N
  N38      1.0000 0.02691  0.44463  0.20229  Biso   1.000  N
  C73      1.0000 0.20854  0.17233  0.25966  Biso   1.000  C
  H73      1.0000 0.18000  0.11780  0.26640  Biso   1.000  H
  C74      1.0000 0.28932  0.18805  0.28442  Biso   1.000  C
  H74      1.0000 0.31630  0.14480  0.30860  Biso   1.000  H
  C75      1.0000 0.02620  0.41170  0.25762  Biso   1.000  C
  H75      1.0000 0.02590  0.34990  0.26340  Biso   1.000  H
  C76      1.0000 0.02590  0.46676  0.30552  Biso   1.000  C
  H76      1.0000 0.02490  0.44300  0.34430  Biso   1.000  H
  O39      1.0000 0.59106  0.71881  0.70471  Biso   1.000  O
  O40      1.0000 0.53202  0.89424  0.65604  Biso   1.000  O
  N39      1.0000 0.66932  0.73422  0.72575  Biso   1.000  N
  N40      1.0000 0.52691  0.94463  0.70229  Biso   1.000  N
  C77      1.0000 0.70854  0.67233  0.75966  Biso   1.000  C
  H77      1.0000 0.68000  0.61780  0.76640  Biso   1.000  H
  C78      1.0000 0.78932  0.68805  0.78442  Biso   1.000  C
  H78      1.0000 0.81630  0.64480  0.80860  Biso   1.000  H
  C79      1.0000 0.52620  0.91170  0.75762  Biso   1.000  C
  H79      1.0000 0.52590  0.84990  0.76340  Biso   1.000  H
  C80      1.0000 0.52590  0.96676  0.80552  Biso   1.000  C
  H80      1.0000 0.52490  0.94300  0.84430  Biso   1.000  H
  O41      1.0000 0.96881  0.65894  0.45471  Biso   1.000  O
  O42      1.0000 0.14424  0.71798  0.40604  Biso   1.000  O
  N41      1.0000 0.98422  0.58068  0.47575  Biso   1.000  N
  N42      1.0000 0.19463  0.72309  0.45229  Biso   1.000  N
  C81      1.0000 0.92233  0.54146  0.50966  Biso   1.000  C
  H81      1.0000 0.86780  0.57000  0.51640  Biso   1.000  H
  C82      1.0000 0.93805  0.46068  0.53442  Biso   1.000  C
  H82      1.0000 0.89480  0.43370  0.55860  Biso   1.000  H
  C83      1.0000 0.16170  0.72380  0.50762  Biso   1.000  C
  H83      1.0000 0.09990  0.72410  0.51340  Biso   1.000  H
  C84      1.0000 0.21676  0.72410  0.55552  Biso   1.000  C
  H84      1.0000 0.19300  0.72510  0.59430  Biso   1.000  H
  O43      1.0000 0.46881  0.15894  0.95471  Biso   1.000  O
  O44      1.0000 0.64424  0.21798  0.90604  Biso   1.000  O
  N43      1.0000 0.48422  0.08068  0.97575  Biso   1.000  N
  N44      1.0000 0.69463  0.22309  0.95229  Biso   1.000  N
  C85      1.0000 0.42233  0.04146  0.00966  Biso   1.000  C
  H85      1.0000 0.36780  0.07000  0.01640  Biso   1.000  H
  C86      1.0000 0.43805  0.96068  0.03442  Biso   1.000  C
  H86      1.0000 0.39480  0.93370  0.05860  Biso   1.000  H
  C87      1.0000 0.66170  0.22380  0.00762  Biso   1.000  C
  H87      1.0000 0.59990  0.22410  0.01340  Biso   1.000  H
  C88      1.0000 0.71676  0.22410  0.05552  Biso   1.000  C
  H88      1.0000 0.69300  0.22510  0.09430  Biso   1.000  H
  O45      1.0000 0.53119  0.34106  0.95471  Biso   1.000  O
  O46      1.0000 0.35576  0.28202  0.90604  Biso   1.000  O
  N45      1.0000 0.51578  0.41932  0.97575  Biso   1.000  N
  N46      1.0000 0.30537  0.27691  0.95229  Biso   1.000  N
  C89      1.0000 0.57767  0.45854  0.00966  Biso   1.000  C
  H89      1.0000 0.63220  0.43000  0.01640  Biso   1.000  H
  C90      1.0000 0.56195  0.53932  0.03442  Biso   1.000  C
  H90      1.0000 0.60520  0.56630  0.05860  Biso   1.000  H
  C91      1.0000 0.33830  0.27620  0.00762  Biso   1.000  C
  H91      1.0000 0.40010  0.27590  0.01340  Biso   1.000  H
  C92      1.0000 0.28324  0.27590  0.05552  Biso   1.000  C
  H92      1.0000 0.30700  0.27490  0.09430  Biso   1.000  H
  O47      1.0000 0.03119  0.84106  0.45471  Biso   1.000  O
  O48      1.0000 0.85576  0.78202  0.40604  Biso   1.000  O
  N47      1.0000 0.01578  0.91932  0.47575  Biso   1.000  N
  N48      1.0000 0.80537  0.77691  0.45229  Biso   1.000  N
  C93      1.0000 0.07767  0.95854  0.50966  Biso   1.000  C
  H93      1.0000 0.13220  0.93000  0.51640  Biso   1.000  H
  C94      1.0000 0.06195  0.03932  0.53442  Biso   1.000  C
  H94      1.0000 0.10520  0.06630  0.55860  Biso   1.000  H
  C95      1.0000 0.83830  0.77620  0.50762  Biso   1.000  C
  H95      1.0000 0.90010  0.77590  0.51340  Biso   1.000  H
  C96      1.0000 0.78324  0.77590  0.55552  Biso   1.000  C
  H96      1.0000 0.80700  0.77490  0.59430  Biso   1.000  H
  O49      1.0000 0.09106  0.78119  0.29529  Biso   1.000  O
  O50      1.0000 0.03202  0.60576  0.34396  Biso   1.000  O
  N49      1.0000 0.16932  0.76578  0.27425  Biso   1.000  N
  N50      1.0000 0.02691  0.55537  0.29771  Biso   1.000  N
  C97      1.0000 0.20854  0.82767  0.24034  Biso   1.000  C
  H97      1.0000 0.18000  0.88220  0.23360  Biso   1.000  H
  C98      1.0000 0.28932  0.81195  0.21558  Biso   1.000  C
  H98      1.0000 0.31630  0.85520  0.19140  Biso   1.000  H
  C99      1.0000 0.02620  0.58830  0.24238  Biso   1.000  C
  H99      1.0000 0.02590  0.65010  0.23660  Biso   1.000  H
  C100     1.0000 0.02590  0.53324  0.19448  Biso   1.000  C
  H100     1.0000 0.02490  0.55700  0.15570  Biso   1.000  H
  O51      1.0000 0.59106  0.28119  0.79529  Biso   1.000  O
  O52      1.0000 0.53202  0.10576  0.84396  Biso   1.000  O
  N51      1.0000 0.66932  0.26578  0.77425  Biso   1.000  N
  N52      1.0000 0.52691  0.05537  0.79771  Biso   1.000  N
  C101     1.0000 0.70854  0.32767  0.74034  Biso   1.000  C
  H101     1.0000 0.68000  0.38220  0.73360  Biso   1.000  H
  C102     1.0000 0.78932  0.31195  0.71558  Biso   1.000  C
  H102     1.0000 0.81630  0.35520  0.69140  Biso   1.000  H
  C103     1.0000 0.52620  0.08830  0.74238  Biso   1.000  C
  H103     1.0000 0.52590  0.15010  0.73660  Biso   1.000  H
  C104     1.0000 0.52590  0.03324  0.69448  Biso   1.000  C
  H104     1.0000 0.52490  0.05700  0.65570  Biso   1.000  H
  O53      1.0000 0.40894  0.21881  0.79529  Biso   1.000  O
  O54      1.0000 0.46798  0.39424  0.84396  Biso   1.000  O
  N53      1.0000 0.33068  0.23422  0.77425  Biso   1.000  N
  N54      1.0000 0.47309  0.44463  0.79771  Biso   1.000  N
  C105     1.0000 0.29146  0.17233  0.74034  Biso   1.000  C
  H105     1.0000 0.32000  0.11780  0.73360  Biso   1.000  H
  C106     1.0000 0.21068  0.18805  0.71558  Biso   1.000  C
  H106     1.0000 0.18370  0.14480  0.69140  Biso   1.000  H
  C107     1.0000 0.47380  0.41170  0.74238  Biso   1.000  C
  H107     1.0000 0.47410  0.34990  0.73660  Biso   1.000  H
  C108     1.0000 0.47410  0.46676  0.69448  Biso   1.000  C
  H108     1.0000 0.47510  0.44300  0.65570  Biso   1.000  H
  O55      1.0000 0.90894  0.71881  0.29529  Biso   1.000  O
  O56      1.0000 0.96798  0.89424  0.34396  Biso   1.000  O
  N55      1.0000 0.83068  0.73422  0.27425  Biso   1.000  N
  N56      1.0000 0.97309  0.94463  0.29771  Biso   1.000  N
  C109     1.0000 0.79146  0.67233  0.24034  Biso   1.000  C
  H109     1.0000 0.82000  0.61780  0.23360  Biso   1.000  H
  C110     1.0000 0.71068  0.68805  0.21558  Biso   1.000  C
  H110     1.0000 0.68370  0.64480  0.19140  Biso   1.000  H
  C111     1.0000 0.97380  0.91170  0.24238  Biso   1.000  C
  H111     1.0000 0.97410  0.84990  0.23660  Biso   1.000  H
  C112     1.0000 0.97410  0.96676  0.19448  Biso   1.000  C
  H112     1.0000 0.97510  0.94300  0.15570  Biso   1.000  H
  O57      1.0000 0.53119  0.65894  0.54529  Biso   1.000  O
  O58      1.0000 0.35576  0.71798  0.59396  Biso   1.000  O
  N57      1.0000 0.51578  0.58068  0.52425  Biso   1.000  N
  N58      1.0000 0.30537  0.72309  0.54771  Biso   1.000  N
  C113     1.0000 0.57767  0.54146  0.49034  Biso   1.000  C
  H113     1.0000 0.63220  0.57000  0.48360  Biso   1.000  H
  C114     1.0000 0.56195  0.46068  0.46558  Biso   1.000  C
  H114     1.0000 0.60520  0.43370  0.44140  Biso   1.000  H
  C115     1.0000 0.33830  0.72380  0.49238  Biso   1.000  C
  H115     1.0000 0.40010  0.72410  0.48660  Biso   1.000  H
  C116     1.0000 0.28324  0.72410  0.44448  Biso   1.000  C
  H116     1.0000 0.30700  0.72510  0.40570  Biso   1.000  H
  O59      1.0000 0.03119  0.15894  0.04529  Biso   1.000  O
  O60      1.0000 0.85576  0.21798  0.09396  Biso   1.000  O
  N59      1.0000 0.01578  0.08068  0.02425  Biso   1.000  N
  N60      1.0000 0.80537  0.22309  0.04771  Biso   1.000  N
  C117     1.0000 0.07767  0.04146  0.99034  Biso   1.000  C
  H117     1.0000 0.13220  0.07000  0.98360  Biso   1.000  H
  C118     1.0000 0.06195  0.96068  0.96558  Biso   1.000  C
  H118     1.0000 0.10520  0.93370  0.94140  Biso   1.000  H
  C119     1.0000 0.83830  0.22380  0.99238  Biso   1.000  C
  H119     1.0000 0.90010  0.22410  0.98660  Biso   1.000  H
  C120     1.0000 0.78324  0.22410  0.94448  Biso   1.000  C
  H120     1.0000 0.80700  0.22510  0.90570  Biso   1.000  H
  O61      1.0000 0.96881  0.34106  0.04529  Biso   1.000  O
  O62      1.0000 0.14424  0.28202  0.09396  Biso   1.000  O
  N61      1.0000 0.98422  0.41932  0.02425  Biso   1.000  N
  N62      1.0000 0.19463  0.27691  0.04771  Biso   1.000  N
  C121     1.0000 0.92233  0.45854  0.99034  Biso   1.000  C
  H121     1.0000 0.86780  0.43000  0.98360  Biso   1.000  H
  C122     1.0000 0.93805  0.53932  0.96558  Biso   1.000  C
  H122     1.0000 0.89480  0.56630  0.94140  Biso   1.000  H
  C123     1.0000 0.16170  0.27620  0.99238  Biso   1.000  C
  H123     1.0000 0.09990  0.27590  0.98660  Biso   1.000  H
  C124     1.0000 0.21676  0.27590  0.94448  Biso   1.000  C
  H124     1.0000 0.19300  0.27490  0.90570  Biso   1.000  H
  O63      1.0000 0.46881  0.84106  0.54529  Biso   1.000  O
  O64      1.0000 0.64424  0.78202  0.59396  Biso   1.000  O
  N63      1.0000 0.48422  0.91932  0.52425  Biso   1.000  N
  N64      1.0000 0.69463  0.77691  0.54771  Biso   1.000  N
  C125     1.0000 0.42233  0.95854  0.49034  Biso   1.000  C
  H125     1.0000 0.36780  0.93000  0.48360  Biso   1.000  H
  C126     1.0000 0.43805  0.03932  0.46558  Biso   1.000  C
  H126     1.0000 0.39480  0.06630  0.44140  Biso   1.000  H
  C127     1.0000 0.66170  0.77620  0.49238  Biso   1.000  C
  H127     1.0000 0.59990  0.77590  0.48660  Biso   1.000  H
  C128     1.0000 0.71676  0.77590  0.44448  Biso   1.000  C
  H128     1.0000 0.69300  0.77490  0.40570  Biso   1.000  H
  Ho1      1.0000 0.50000  0.25000  0.37500  Biso   1.000  Ho
  Ho2      1.0000 0.00000  0.75000  0.87500  Biso   1.000  Ho
  Ho3      1.0000 0.00000  0.25000  0.62500  Biso   1.000  Ho
  Ho4      1.0000 0.50000  0.75000  0.12500  Biso   1.000  Ho
  Ho5      1.0000 0.50000  0.75000  0.62500  Biso   1.000  Ho
  Ho6      1.0000 0.00000  0.25000  0.12500  Biso   1.000  Ho
  Ho7      1.0000 0.00000  0.75000  0.37500  Biso   1.000  Ho
  Ho8      1.0000 0.50000  0.25000  0.87500  Biso   1.000  Ho
