data_image0
_cell_length_a       15.1777
_cell_length_b       15.1777
_cell_length_c       22.5094
_cell_angle_alpha    90
_cell_angle_beta     90
_cell_angle_gamma    90

_symmetry_space_group_name_H-M    "P 1"
_symmetry_int_tables_number       1

loop_
  _symmetry_equiv_pos_as_xyz
  'x, y, z'

loop_
  _atom_site_label
  _atom_site_occupancy
  _atom_site_fract_x
  _atom_site_fract_y
  _atom_site_fract_z
  _atom_site_thermal_displace_type
  _atom_site_B_iso_or_equiv
  _atom_site_type_symbol
  O1       1.0000 0.59052  0.21840  0.29594  Biso   1.000  O
  O2       1.0000 0.53202  0.39323  0.34440  Biso   1.000  O
  N1       1.0000 0.66916  0.23390  0.27491  Biso   1.000  N
  N2       1.0000 0.52617  0.44427  0.29795  Biso   1.000  N
  C1       1.0000 0.70908  0.17164  0.24123  Biso   1.000  C
  H1       1.0000 0.68100  0.11640  0.23510  Biso   1.000  H
  C2       1.0000 0.78967  0.18759  0.21586  Biso   1.000  C
  H2       1.0000 0.81680  0.14380  0.19180  Biso   1.000  H
  C3       1.0000 0.52531  0.41139  0.24210  Biso   1.000  C
  H3       1.0000 0.52490  0.34940  0.23610  Biso   1.000  H
  C4       1.0000 0.52504  0.46718  0.19415  Biso   1.000  C
  H4       1.0000 0.52400  0.44360  0.15510  Biso   1.000  H
  O3       1.0000 0.09052  0.71840  0.79594  Biso   1.000  O
  O4       1.0000 0.03202  0.89323  0.84440  Biso   1.000  O
  N3       1.0000 0.16916  0.73390  0.77491  Biso   1.000  N
  N4       1.0000 0.02617  0.94427  0.79795  Biso   1.000  N
  C5       1.0000 0.20908  0.67164  0.74123  Biso   1.000  C
  H5       1.0000 0.18100  0.61640  0.73510  Biso   1.000  H
  C6       1.0000 0.28967  0.68759  0.71586  Biso   1.000  C
  H6       1.0000 0.31680  0.64380  0.69180  Biso   1.000  H
  C7       1.0000 0.02531  0.91139  0.74210  Biso   1.000  C
  H7       1.0000 0.02490  0.84940  0.73610  Biso   1.000  H
  C8       1.0000 0.02504  0.96718  0.69415  Biso   1.000  C
  H8       1.0000 0.02400  0.94360  0.65510  Biso   1.000  H
  O5       1.0000 0.90948  0.78160  0.79594  Biso   1.000  O
  O6       1.0000 0.96798  0.60677  0.84440  Biso   1.000  O
  N5       1.0000 0.83084  0.76610  0.77491  Biso   1.000  N
  N6       1.0000 0.97383  0.55573  0.79795  Biso   1.000  N
  C9       1.0000 0.79092  0.82836  0.74123  Biso   1.000  C
  H9       1.0000 0.81900  0.88360  0.73510  Biso   1.000  H
  C10      1.0000 0.71033  0.81241  0.71586  Biso   1.000  C
  H10      1.0000 0.68320  0.85620  0.69180  Biso   1.000  H
  C11      1.0000 0.97469  0.58861  0.74210  Biso   1.000  C
  H11      1.0000 0.97510  0.65060  0.73610  Biso   1.000  H
  C12      1.0000 0.97496  0.53282  0.69415  Biso   1.000  C
  H12      1.0000 0.97600  0.55640  0.65510  Biso   1.000  H
  O7       1.0000 0.40948  0.28160  0.29594  Biso   1.000  O
  O8       1.0000 0.46798  0.10677  0.34440  Biso   1.000  O
  N7       1.0000 0.33084  0.26610  0.27491  Biso   1.000  N
  N8       1.0000 0.47383  0.05573  0.29795  Biso   1.000  N
  C13      1.0000 0.29092  0.32836  0.24123  Biso   1.000  C
  H13      1.0000 0.31900  0.38360  0.23510  Biso   1.000  H
  C14      1.0000 0.21033  0.31241  0.21586  Biso   1.000  C
  H14      1.0000 0.18320  0.35620  0.19180  Biso   1.000  H
  C15      1.0000 0.47469  0.08861  0.24210  Biso   1.000  C
  H15      1.0000 0.47510  0.15060  0.23610  Biso   1.000  H
  C16      1.0000 0.47496  0.03282  0.19415  Biso   1.000  C
  H16      1.0000 0.47600  0.05640  0.15510  Biso   1.000  H
  O9       1.0000 0.03160  0.34052  0.54594  Biso   1.000  O
  O10      1.0000 0.85677  0.28202  0.59440  Biso   1.000  O
  N9       1.0000 0.01610  0.41916  0.52491  Biso   1.000  N
  N10      1.0000 0.80573  0.27617  0.54795  Biso   1.000  N
  C17      1.0000 0.07836  0.45908  0.49123  Biso   1.000  C
  H17      1.0000 0.13360  0.43100  0.48510  Biso   1.000  H
  C18      1.0000 0.06241  0.53967  0.46586  Biso   1.000  C
  H18      1.0000 0.10620  0.56680  0.44180  Biso   1.000  H
  C19      1.0000 0.83861  0.27531  0.49210  Biso   1.000  C
  H19      1.0000 0.90060  0.27490  0.48610  Biso   1.000  H
  C20      1.0000 0.78282  0.27504  0.44415  Biso   1.000  C
  H20      1.0000 0.80640  0.27400  0.40510  Biso   1.000  H
  O11      1.0000 0.53160  0.84052  0.04594  Biso   1.000  O
  O12      1.0000 0.35677  0.78202  0.09440  Biso   1.000  O
  N11      1.0000 0.51610  0.91916  0.02491  Biso   1.000  N
  N12      1.0000 0.30573  0.77617  0.04795  Biso   1.000  N
  C21      1.0000 0.57836  0.95908  0.99123  Biso   1.000  C
  H21      1.0000 0.63360  0.93100  0.98510  Biso   1.000  H
  C22      1.0000 0.56241  0.03967  0.96586  Biso   1.000  C
  H22      1.0000 0.60620  0.06680  0.94180  Biso   1.000  H
  C23      1.0000 0.33861  0.77531  0.99210  Biso   1.000  C
  H23      1.0000 0.40060  0.77490  0.98610  Biso   1.000  H
  C24      1.0000 0.28282  0.77504  0.94415  Biso   1.000  C
  H24      1.0000 0.30640  0.77400  0.90510  Biso   1.000  H
  O13      1.0000 0.46840  0.65948  0.04594  Biso   1.000  O
  O14      1.0000 0.64323  0.71798  0.09440  Biso   1.000  O
  N13      1.0000 0.48390  0.58084  0.02491  Biso   1.000  N
  N14      1.0000 0.69427  0.72383  0.04795  Biso   1.000  N
  C25      1.0000 0.42164  0.54092  0.99123  Biso   1.000  C
  H25      1.0000 0.36640  0.56900  0.98510  Biso   1.000  H
  C26      1.0000 0.43759  0.46033  0.96586  Biso   1.000  C
  H26      1.0000 0.39380  0.43320  0.94180  Biso   1.000  H
  C27      1.0000 0.66139  0.72469  0.99210  Biso   1.000  C
  H27      1.0000 0.59940  0.72510  0.98610  Biso   1.000  H
  C28      1.0000 0.71718  0.72496  0.94415  Biso   1.000  C
  H28      1.0000 0.69360  0.72600  0.90510  Biso   1.000  H
  O15      1.0000 0.96840  0.15948  0.54594  Biso   1.000  O
  O16      1.0000 0.14323  0.21798  0.59440  Biso   1.000  O
  N15      1.0000 0.98390  0.08084  0.52491  Biso   1.000  N
  N16      1.0000 0.19427  0.22383  0.54795  Biso   1.000  N
  C29      1.0000 0.92164  0.04092  0.49123  Biso   1.000  C
  H29      1.0000 0.86640  0.06900  0.48510  Biso   1.000  H
  C30      1.0000 0.93759  0.96033  0.46586  Biso   1.000  C
  H30      1.0000 0.89380  0.93320  0.44180  Biso   1.000  H
  C31      1.0000 0.16139  0.22469  0.49210  Biso   1.000  C
  H31      1.0000 0.09940  0.22510  0.48610  Biso   1.000  H
  C32      1.0000 0.21718  0.22496  0.44415  Biso   1.000  C
  H32      1.0000 0.19360  0.22600  0.40510  Biso   1.000  H
  O17      1.0000 0.90948  0.21840  0.70406  Biso   1.000  O
  O18      1.0000 0.96798  0.39323  0.65560  Biso   1.000  O
  N17      1.0000 0.83084  0.23390  0.72509  Biso   1.000  N
  N18      1.0000 0.97383  0.44427  0.70205  Biso   1.000  N
  C33      1.0000 0.79092  0.17164  0.75877  Biso   1.000  C
  H33      1.0000 0.81900  0.11640  0.76490  Biso   1.000  H
  C34      1.0000 0.71033  0.18759  0.78414  Biso   1.000  C
  H34      1.0000 0.68320  0.14380  0.80820  Biso   1.000  H
  C35      1.0000 0.97469  0.41139  0.75790  Biso   1.000  C
  H35      1.0000 0.97510  0.34940  0.76390  Biso   1.000  H
  C36      1.0000 0.97496  0.46718  0.80585  Biso   1.000  C
  H36      1.0000 0.97600  0.44360  0.84490  Biso   1.000  H
  O19      1.0000 0.40948  0.71840  0.20406  Biso   1.000  O
  O20      1.0000 0.46798  0.89323  0.15560  Biso   1.000  O
  N19      1.0000 0.33084  0.73390  0.22509  Biso   1.000  N
  N20      1.0000 0.47383  0.94427  0.20205  Biso   1.000  N
  C37      1.0000 0.29092  0.67164  0.25877  Biso   1.000  C
  H37      1.0000 0.31900  0.61640  0.26490  Biso   1.000  H
  C38      1.0000 0.21033  0.68759  0.28414  Biso   1.000  C
  H38      1.0000 0.18320  0.64380  0.30820  Biso   1.000  H
  C39      1.0000 0.47469  0.91139  0.25790  Biso   1.000  C
  H39      1.0000 0.47510  0.84940  0.26390  Biso   1.000  H
  C40      1.0000 0.47496  0.96718  0.30585  Biso   1.000  C
  H40      1.0000 0.47600  0.94360  0.34490  Biso   1.000  H
  O21      1.0000 0.59052  0.78160  0.20406  Biso   1.000  O
  O22      1.0000 0.53202  0.60677  0.15560  Biso   1.000  O
  N21      1.0000 0.66916  0.76610  0.22509  Biso   1.000  N
  N22      1.0000 0.52617  0.55573  0.20205  Biso   1.000  N
  C41      1.0000 0.70908  0.82836  0.25877  Biso   1.000  C
  H41      1.0000 0.68100  0.88360  0.26490  Biso   1.000  H
  C42      1.0000 0.78967  0.81241  0.28414  Biso   1.000  C
  H42      1.0000 0.81680  0.85620  0.30820  Biso   1.000  H
  C43      1.0000 0.52531  0.58861  0.25790  Biso   1.000  C
  H43      1.0000 0.52490  0.65060  0.26390  Biso   1.000  H
  C44      1.0000 0.52504  0.53282  0.30585  Biso   1.000  C
  H44      1.0000 0.52400  0.55640  0.34490  Biso   1.000  H
  O23      1.0000 0.09052  0.28160  0.70406  Biso   1.000  O
  O24      1.0000 0.03202  0.10677  0.65560  Biso   1.000  O
  N23      1.0000 0.16916  0.26610  0.72509  Biso   1.000  N
  N24      1.0000 0.02617  0.05573  0.70205  Biso   1.000  N
  C45      1.0000 0.20908  0.32836  0.75877  Biso   1.000  C
  H45      1.0000 0.18100  0.38360  0.76490  Biso   1.000  H
  C46      1.0000 0.28967  0.31241  0.78414  Biso   1.000  C
  H46      1.0000 0.31680  0.35620  0.80820  Biso   1.000  H
  C47      1.0000 0.02531  0.08861  0.75790  Biso   1.000  C
  H47      1.0000 0.02490  0.15060  0.76390  Biso   1.000  H
  C48      1.0000 0.02504  0.03282  0.80585  Biso   1.000  C
  H48      1.0000 0.02400  0.05640  0.84490  Biso   1.000  H
  O25      1.0000 0.46840  0.34052  0.45406  Biso   1.000  O
  O26      1.0000 0.64323  0.28202  0.40560  Biso   1.000  O
  N25      1.0000 0.48390  0.41916  0.47509  Biso   1.000  N
  N26      1.0000 0.69427  0.27617  0.45205  Biso   1.000  N
  C49      1.0000 0.42164  0.45908  0.50877  Biso   1.000  C
  H49      1.0000 0.36640  0.43100  0.51490  Biso   1.000  H
  C50      1.0000 0.43759  0.53967  0.53414  Biso   1.000  C
  H50      1.0000 0.39380  0.56680  0.55820  Biso   1.000  H
  C51      1.0000 0.66139  0.27531  0.50790  Biso   1.000  C
  H51      1.0000 0.59940  0.27490  0.51390  Biso   1.000  H
  C52      1.0000 0.71718  0.27504  0.55585  Biso   1.000  C
  H52      1.0000 0.69360  0.27400  0.59490  Biso   1.000  H
  O27      1.0000 0.96840  0.84052  0.95406  Biso   1.000  O
  O28      1.0000 0.14323  0.78202  0.90560  Biso   1.000  O
  N27      1.0000 0.98390  0.91916  0.97509  Biso   1.000  N
  N28      1.0000 0.19427  0.77617  0.95205  Biso   1.000  N
  C53      1.0000 0.92164  0.95908  0.00877  Biso   1.000  C
  H53      1.0000 0.86640  0.93100  0.01490  Biso   1.000  H
  C54      1.0000 0.93759  0.03967  0.03414  Biso   1.000  C
  H54      1.0000 0.89380  0.06680  0.05820  Biso   1.000  H
  C55      1.0000 0.16139  0.77531  0.00790  Biso   1.000  C
  H55      1.0000 0.09940  0.77490  0.01390  Biso   1.000  H
  C56      1.0000 0.21718  0.77504  0.05585  Biso   1.000  C
  H56      1.0000 0.19360  0.77400  0.09490  Biso   1.000  H
  O29      1.0000 0.03160  0.65948  0.95406  Biso   1.000  O
  O30      1.0000 0.85677  0.71798  0.90560  Biso   1.000  O
  N29      1.0000 0.01610  0.58084  0.97509  Biso   1.000  N
  N30      1.0000 0.80573  0.72383  0.95205  Biso   1.000  N
  C57      1.0000 0.07836  0.54092  0.00877  Biso   1.000  C
  H57      1.0000 0.13360  0.56900  0.01490  Biso   1.000  H
  C58      1.0000 0.06241  0.46033  0.03414  Biso   1.000  C
  H58      1.0000 0.10620  0.43320  0.05820  Biso   1.000  H
  C59      1.0000 0.83861  0.72469  0.00790  Biso   1.000  C
  H59      1.0000 0.90060  0.72510  0.01390  Biso   1.000  H
  C60      1.0000 0.78282  0.72496  0.05585  Biso   1.000  C
  H60      1.0000 0.80640  0.72600  0.09490  Biso   1.000  H
  O31      1.0000 0.53160  0.15948  0.45406  Biso   1.000  O
  O32      1.0000 0.35677  0.21798  0.40560  Biso   1.000  O
  N31      1.0000 0.51610  0.08084  0.47509  Biso   1.000  N
  N32      1.0000 0.30573  0.22383  0.45205  Biso   1.000  N
  C61      1.0000 0.57836  0.04092  0.50877  Biso   1.000  C
  H61      1.0000 0.63360  0.06900  0.51490  Biso   1.000  H
  C62      1.0000 0.56241  0.96033  0.53414  Biso   1.000  C
  H62      1.0000 0.60620  0.93320  0.55820  Biso   1.000  H
  C63      1.0000 0.33861  0.22469  0.50790  Biso   1.000  C
  H63      1.0000 0.40060  0.22510  0.51390  Biso   1.000  H
  C64      1.0000 0.28282  0.22496  0.55585  Biso   1.000  C
  H64      1.0000 0.30640  0.22600  0.59490  Biso   1.000  H
  O33      1.0000 0.40948  0.78160  0.70406  Biso   1.000  O
  O34      1.0000 0.46798  0.60677  0.65560  Biso   1.000  O
  N33      1.0000 0.33084  0.76610  0.72509  Biso   1.000  N
  N34      1.0000 0.47383  0.55573  0.70205  Biso   1.000  N
  C65      1.0000 0.29092  0.82836  0.75877  Biso   1.000  C
  H65      1.0000 0.31900  0.88360  0.76490  Biso   1.000  H
  C66      1.0000 0.21033  0.81241  0.78414  Biso   1.000  C
  H66      1.0000 0.18320  0.85620  0.80820  Biso   1.000  H
  C67      1.0000 0.47469  0.58861  0.75790  Biso   1.000  C
  H67      1.0000 0.47510  0.65060  0.76390  Biso   1.000  H
  C68      1.0000 0.47496  0.53282  0.80585  Biso   1.000  C
  H68      1.0000 0.47600  0.55640  0.84490  Biso   1.000  H
  O35      1.0000 0.90948  0.28160  0.20406  Biso   1.000  O
  O36      1.0000 0.96798  0.10677  0.15560  Biso   1.000  O
  N35      1.0000 0.83084  0.26610  0.22509  Biso   1.000  N
  N36      1.0000 0.97383  0.05573  0.20205  Biso   1.000  N
  C69      1.0000 0.79092  0.32836  0.25877  Biso   1.000  C
  H69      1.0000 0.81900  0.38360  0.26490  Biso   1.000  H
  C70      1.0000 0.71033  0.31241  0.28414  Biso   1.000  C
  H70      1.0000 0.68320  0.35620  0.30820  Biso   1.000  H
  C71      1.0000 0.97469  0.08861  0.25790  Biso   1.000  C
  H71      1.0000 0.97510  0.15060  0.26390  Biso   1.000  H
  C72      1.0000 0.97496  0.03282  0.30585  Biso   1.000  C
  H72      1.0000 0.97600  0.05640  0.34490  Biso   1.000  H
  O37      1.0000 0.09052  0.21840  0.20406  Biso   1.000  O
  O38      1.0000 0.03202  0.39323  0.15560  Biso   1.000  O
  N37      1.0000 0.16916  0.23390  0.22509  Biso   1.000  N
  N38      1.0000 0.02617  0.44427  0.20205  Biso   1.000  N
  C73      1.0000 0.20908  0.17164  0.25877  Biso   1.000  C
  H73      1.0000 0.18100  0.11640  0.26490  Biso   1.000  H
  C74      1.0000 0.28967  0.18759  0.28414  Biso   1.000  C
  H74      1.0000 0.31680  0.14380  0.30820  Biso   1.000  H
  C75      1.0000 0.02531  0.41139  0.25790  Biso   1.000  C
  H75      1.0000 0.02490  0.34940  0.26390  Biso   1.000  H
  C76      1.0000 0.02504  0.46718  0.30585  Biso   1.000  C
  H76      1.0000 0.02400  0.44360  0.34490  Biso   1.000  H
  O39      1.0000 0.59052  0.71840  0.70406  Biso   1.000  O
  O40      1.0000 0.53202  0.89323  0.65560  Biso   1.000  O
  N39      1.0000 0.66916  0.73390  0.72509  Biso   1.000  N
  N40      1.0000 0.52617  0.94427  0.70205  Biso   1.000  N
  C77      1.0000 0.70908  0.67164  0.75877  Biso   1.000  C
  H77      1.0000 0.68100  0.61640  0.76490  Biso   1.000  H
  C78      1.0000 0.78967  0.68759  0.78414  Biso   1.000  C
  H78      1.0000 0.81680  0.64380  0.80820  Biso   1.000  H
  C79      1.0000 0.52531  0.91139  0.75790  Biso   1.000  C
  H79      1.0000 0.52490  0.84940  0.76390  Biso   1.000  H
  C80      1.0000 0.52504  0.96718  0.80585  Biso   1.000  C
  H80      1.0000 0.52400  0.94360  0.84490  Biso   1.000  H
  O41      1.0000 0.96840  0.65948  0.45406  Biso   1.000  O
  O42      1.0000 0.14323  0.71798  0.40560  Biso   1.000  O
  N41      1.0000 0.98390  0.58084  0.47509  Biso   1.000  N
  N42      1.0000 0.19427  0.72383  0.45205  Biso   1.000  N
  C81      1.0000 0.92164  0.54092  0.50877  Biso   1.000  C
  H81      1.0000 0.86640  0.56900  0.51490  Biso   1.000  H
  C82      1.0000 0.93759  0.46033  0.53414  Biso   1.000  C
  H82      1.0000 0.89380  0.43320  0.55820  Biso   1.000  H
  C83      1.0000 0.16139  0.72469  0.50790  Biso   1.000  C
  H83      1.0000 0.09940  0.72510  0.51390  Biso   1.000  H
  C84      1.0000 0.21718  0.72496  0.55585  Biso   1.000  C
  H84      1.0000 0.19360  0.72600  0.59490  Biso   1.000  H
  O43      1.0000 0.46840  0.15948  0.95406  Biso   1.000  O
  O44      1.0000 0.64323  0.21798  0.90560  Biso   1.000  O
  N43      1.0000 0.48390  0.08084  0.97509  Biso   1.000  N
  N44      1.0000 0.69427  0.22383  0.95205  Biso   1.000  N
  C85      1.0000 0.42164  0.04092  0.00877  Biso   1.000  C
  H85      1.0000 0.36640  0.06900  0.01490  Biso   1.000  H
  C86      1.0000 0.43759  0.96033  0.03414  Biso   1.000  C
  H86      1.0000 0.39380  0.93320  0.05820  Biso   1.000  H
  C87      1.0000 0.66139  0.22469  0.00790  Biso   1.000  C
  H87      1.0000 0.59940  0.22510  0.01390  Biso   1.000  H
  C88      1.0000 0.71718  0.22496  0.05585  Biso   1.000  C
  H88      1.0000 0.69360  0.22600  0.09490  Biso   1.000  H
  O45      1.0000 0.53160  0.34052  0.95406  Biso   1.000  O
  O46      1.0000 0.35677  0.28202  0.90560  Biso   1.000  O
  N45      1.0000 0.51610  0.41916  0.97509  Biso   1.000  N
  N46      1.0000 0.30573  0.27617  0.95205  Biso   1.000  N
  C89      1.0000 0.57836  0.45908  0.00877  Biso   1.000  C
  H89      1.0000 0.63360  0.43100  0.01490  Biso   1.000  H
  C90      1.0000 0.56241  0.53967  0.03414  Biso   1.000  C
  H90      1.0000 0.60620  0.56680  0.05820  Biso   1.000  H
  C91      1.0000 0.33861  0.27531  0.00790  Biso   1.000  C
  H91      1.0000 0.40060  0.27490  0.01390  Biso   1.000  H
  C92      1.0000 0.28282  0.27504  0.05585  Biso   1.000  C
  H92      1.0000 0.30640  0.27400  0.09490  Biso   1.000  H
  O47      1.0000 0.03160  0.84052  0.45406  Biso   1.000  O
  O48      1.0000 0.85677  0.78202  0.40560  Biso   1.000  O
  N47      1.0000 0.01610  0.91916  0.47509  Biso   1.000  N
  N48      1.0000 0.80573  0.77617  0.45205  Biso   1.000  N
  C93      1.0000 0.07836  0.95908  0.50877  Biso   1.000  C
  H93      1.0000 0.13360  0.93100  0.51490  Biso   1.000  H
  C94      1.0000 0.06241  0.03967  0.53414  Biso   1.000  C
  H94      1.0000 0.10620  0.06680  0.55820  Biso   1.000  H
  C95      1.0000 0.83861  0.77531  0.50790  Biso   1.000  C
  H95      1.0000 0.90060  0.77490  0.51390  Biso   1.000  H
  C96      1.0000 0.78282  0.77504  0.55585  Biso   1.000  C
  H96      1.0000 0.80640  0.77400  0.59490  Biso   1.000  H
  O49      1.0000 0.09052  0.78160  0.29594  Biso   1.000  O
  O50      1.0000 0.03202  0.60677  0.34440  Biso   1.000  O
  N49      1.0000 0.16916  0.76610  0.27491  Biso   1.000  N
  N50      1.0000 0.02617  0.55573  0.29795  Biso   1.000  N
  C97      1.0000 0.20908  0.82836  0.24123  Biso   1.000  C
  H97      1.0000 0.18100  0.88360  0.23510  Biso   1.000  H
  C98      1.0000 0.28967  0.81241  0.21586  Biso   1.000  C
  H98      1.0000 0.31680  0.85620  0.19180  Biso   1.000  H
  C99      1.0000 0.02531  0.58861  0.24210  Biso   1.000  C
  H99      1.0000 0.02490  0.65060  0.23610  Biso   1.000  H
  C100     1.0000 0.02504  0.53282  0.19415  Biso   1.000  C
  H100     1.0000 0.02400  0.55640  0.15510  Biso   1.000  H
  O51      1.0000 0.59052  0.28160  0.79594  Biso   1.000  O
  O52      1.0000 0.53202  0.10677  0.84440  Biso   1.000  O
  N51      1.0000 0.66916  0.26610  0.77491  Biso   1.000  N
  N52      1.0000 0.52617  0.05573  0.79795  Biso   1.000  N
  C101     1.0000 0.70908  0.32836  0.74123  Biso   1.000  C
  H101     1.0000 0.68100  0.38360  0.73510  Biso   1.000  H
  C102     1.0000 0.78967  0.31241  0.71586  Biso   1.000  C
  H102     1.0000 0.81680  0.35620  0.69180  Biso   1.000  H
  C103     1.0000 0.52531  0.08861  0.74210  Biso   1.000  C
  H103     1.0000 0.52490  0.15060  0.73610  Biso   1.000  H
  C104     1.0000 0.52504  0.03282  0.69415  Biso   1.000  C
  H104     1.0000 0.52400  0.05640  0.65510  Biso   1.000  H
  O53      1.0000 0.40948  0.21840  0.79594  Biso   1.000  O
  O54      1.0000 0.46798  0.39323  0.84440  Biso   1.000  O
  N53      1.0000 0.33084  0.23390  0.77491  Biso   1.000  N
  N54      1.0000 0.47383  0.44427  0.79795  Biso   1.000  N
  C105     1.0000 0.29092  0.17164  0.74123  Biso   1.000  C
  H105     1.0000 0.31900  0.11640  0.73510  Biso   1.000  H
  C106     1.0000 0.21033  0.18759  0.71586  Biso   1.000  C
  H106     1.0000 0.18320  0.14380  0.69180  Biso   1.000  H
  C107     1.0000 0.47469  0.41139  0.74210  Biso   1.000  C
  H107     1.0000 0.47510  0.34940  0.73610  Biso   1.000  H
  C108     1.0000 0.47496  0.46718  0.69415  Biso   1.000  C
  H108     1.0000 0.47600  0.44360  0.65510  Biso   1.000  H
  O55      1.0000 0.90948  0.71840  0.29594  Biso   1.000  O
  O56      1.0000 0.96798  0.89323  0.34440  Biso   1.000  O
  N55      1.0000 0.83084  0.73390  0.27491  Biso   1.000  N
  N56      1.0000 0.97383  0.94427  0.29795  Biso   1.000  N
  C109     1.0000 0.79092  0.67164  0.24123  Biso   1.000  C
  H109     1.0000 0.81900  0.61640  0.23510  Biso   1.000  H
  C110     1.0000 0.71033  0.68759  0.21586  Biso   1.000  C
  H110     1.0000 0.68320  0.64380  0.19180  Biso   1.000  H
  C111     1.0000 0.97469  0.91139  0.24210  Biso   1.000  C
  H111     1.0000 0.97510  0.84940  0.23610  Biso   1.000  H
  C112     1.0000 0.97496  0.96718  0.19415  Biso   1.000  C
  H112     1.0000 0.97600  0.94360  0.15510  Biso   1.000  H
  O57      1.0000 0.53160  0.65948  0.54594  Biso   1.000  O
  O58      1.0000 0.35677  0.71798  0.59440  Biso   1.000  O
  N57      1.0000 0.51610  0.58084  0.52491  Biso   1.000  N
  N58      1.0000 0.30573  0.72383  0.54795  Biso   1.000  N
  C113     1.0000 0.57836  0.54092  0.49123  Biso   1.000  C
  H113     1.0000 0.63360  0.56900  0.48510  Biso   1.000  H
  C114     1.0000 0.56241  0.46033  0.46586  Biso   1.000  C
  H114     1.0000 0.60620  0.43320  0.44180  Biso   1.000  H
  C115     1.0000 0.33861  0.72469  0.49210  Biso   1.000  C
  H115     1.0000 0.40060  0.72510  0.48610  Biso   1.000  H
  C116     1.0000 0.28282  0.72496  0.44415  Biso   1.000  C
  H116     1.0000 0.30640  0.72600  0.40510  Biso   1.000  H
  O59      1.0000 0.03160  0.15948  0.04594  Biso   1.000  O
  O60      1.0000 0.85677  0.21798  0.09440  Biso   1.000  O
  N59      1.0000 0.01610  0.08084  0.02491  Biso   1.000  N
  N60      1.0000 0.80573  0.22383  0.04795  Biso   1.000  N
  C117     1.0000 0.07836  0.04092  0.99123  Biso   1.000  C
  H117     1.0000 0.13360  0.06900  0.98510  Biso   1.000  H
  C118     1.0000 0.06241  0.96033  0.96586  Biso   1.000  C
  H118     1.0000 0.10620  0.93320  0.94180  Biso   1.000  H
  C119     1.0000 0.83861  0.22469  0.99210  Biso   1.000  C
  H119     1.0000 0.90060  0.22510  0.98610  Biso   1.000  H
  C120     1.0000 0.78282  0.22496  0.94415  Biso   1.000  C
  H120     1.0000 0.80640  0.22600  0.90510  Biso   1.000  H
  O61      1.0000 0.96840  0.34052  0.04594  Biso   1.000  O
  O62      1.0000 0.14323  0.28202  0.09440  Biso   1.000  O
  N61      1.0000 0.98390  0.41916  0.02491  Biso   1.000  N
  N62      1.0000 0.19427  0.27617  0.04795  Biso   1.000  N
  C121     1.0000 0.92164  0.45908  0.99123  Biso   1.000  C
  H121     1.0000 0.86640  0.43100  0.98510  Biso   1.000  H
  C122     1.0000 0.93759  0.53967  0.96586  Biso   1.000  C
  H122     1.0000 0.89380  0.56680  0.94180  Biso   1.000  H
  C123     1.0000 0.16139  0.27531  0.99210  Biso   1.000  C
  H123     1.0000 0.09940  0.27490  0.98610  Biso   1.000  H
  C124     1.0000 0.21718  0.27504  0.94415  Biso   1.000  C
  H124     1.0000 0.19360  0.27400  0.90510  Biso   1.000  H
  O63      1.0000 0.46840  0.84052  0.54594  Biso   1.000  O
  O64      1.0000 0.64323  0.78202  0.59440  Biso   1.000  O
  N63      1.0000 0.48390  0.91916  0.52491  Biso   1.000  N
  N64      1.0000 0.69427  0.77617  0.54795  Biso   1.000  N
  C125     1.0000 0.42164  0.95908  0.49123  Biso   1.000  C
  H125     1.0000 0.36640  0.93100  0.48510  Biso   1.000  H
  C126     1.0000 0.43759  0.03967  0.46586  Biso   1.000  C
  H126     1.0000 0.39380  0.06680  0.44180  Biso   1.000  H
  C127     1.0000 0.66139  0.77531  0.49210  Biso   1.000  C
  H127     1.0000 0.59940  0.77490  0.48610  Biso   1.000  H
  C128     1.0000 0.71718  0.77504  0.44415  Biso   1.000  C
  H128     1.0000 0.69360  0.77400  0.40510  Biso   1.000  H
  Er1      1.0000 0.50000  0.25000  0.37500  Biso   1.000  Er
  Er2      1.0000 0.00000  0.75000  0.87500  Biso   1.000  Er
  Er3      1.0000 0.00000  0.25000  0.62500  Biso   1.000  Er
  Er4      1.0000 0.50000  0.75000  0.12500  Biso   1.000  Er
  Er5      1.0000 0.50000  0.75000  0.62500  Biso   1.000  Er
  Er6      1.0000 0.00000  0.25000  0.12500  Biso   1.000  Er
  Er7      1.0000 0.00000  0.75000  0.37500  Biso   1.000  Er
  Er8      1.0000 0.50000  0.25000  0.87500  Biso   1.000  Er
