data_image0
_cell_length_a       15.2553
_cell_length_b       15.2553
_cell_length_c       22.6667
_cell_angle_alpha    90
_cell_angle_beta     90
_cell_angle_gamma    90

_symmetry_space_group_name_H-M    "P 1"
_symmetry_int_tables_number       1

loop_
  _symmetry_equiv_pos_as_xyz
  'x, y, z'

loop_
  _atom_site_label
  _atom_site_occupancy
  _atom_site_fract_x
  _atom_site_fract_y
  _atom_site_fract_z
  _atom_site_thermal_displace_type
  _atom_site_B_iso_or_equiv
  _atom_site_type_symbol
  O1       1.0000 0.59121  0.21876  0.29510  Biso   1.000  O
  O2       1.0000 0.53217  0.39451  0.34383  Biso   1.000  O
  N1       1.0000 0.66943  0.23424  0.27415  Biso   1.000  N
  N2       1.0000 0.52711  0.44491  0.29779  Biso   1.000  N
  C1       1.0000 0.70896  0.17248  0.24020  Biso   1.000  C
  H1       1.0000 0.68070  0.11790  0.23350  Biso   1.000  H
  C2       1.0000 0.78920  0.18838  0.21566  Biso   1.000  C
  H2       1.0000 0.81610  0.14530  0.19140  Biso   1.000  H
  C3       1.0000 0.52600  0.41183  0.24253  Biso   1.000  C
  H3       1.0000 0.52520  0.35010  0.23680  Biso   1.000  H
  C4       1.0000 0.52588  0.46669  0.19470  Biso   1.000  C
  H4       1.0000 0.52500  0.44280  0.15600  Biso   1.000  H
  O3       1.0000 0.09121  0.71876  0.79510  Biso   1.000  O
  O4       1.0000 0.03217  0.89451  0.84383  Biso   1.000  O
  N3       1.0000 0.16943  0.73424  0.77415  Biso   1.000  N
  N4       1.0000 0.02711  0.94491  0.79779  Biso   1.000  N
  C5       1.0000 0.20896  0.67248  0.74020  Biso   1.000  C
  H5       1.0000 0.18070  0.61790  0.73350  Biso   1.000  H
  C6       1.0000 0.28920  0.68838  0.71566  Biso   1.000  C
  H6       1.0000 0.31610  0.64530  0.69140  Biso   1.000  H
  C7       1.0000 0.02600  0.91183  0.74253  Biso   1.000  C
  H7       1.0000 0.02520  0.85010  0.73680  Biso   1.000  H
  C8       1.0000 0.02588  0.96669  0.69470  Biso   1.000  C
  H8       1.0000 0.02500  0.94280  0.65600  Biso   1.000  H
  O5       1.0000 0.90879  0.78124  0.79510  Biso   1.000  O
  O6       1.0000 0.96783  0.60549  0.84383  Biso   1.000  O
  N5       1.0000 0.83057  0.76576  0.77415  Biso   1.000  N
  N6       1.0000 0.97289  0.55509  0.79779  Biso   1.000  N
  C9       1.0000 0.79104  0.82752  0.74020  Biso   1.000  C
  H9       1.0000 0.81930  0.88210  0.73350  Biso   1.000  H
  C10      1.0000 0.71080  0.81162  0.71566  Biso   1.000  C
  H10      1.0000 0.68390  0.85470  0.69140  Biso   1.000  H
  C11      1.0000 0.97400  0.58817  0.74253  Biso   1.000  C
  H11      1.0000 0.97480  0.64990  0.73680  Biso   1.000  H
  C12      1.0000 0.97412  0.53331  0.69470  Biso   1.000  C
  H12      1.0000 0.97500  0.55720  0.65600  Biso   1.000  H
  O7       1.0000 0.40879  0.28124  0.29510  Biso   1.000  O
  O8       1.0000 0.46783  0.10549  0.34383  Biso   1.000  O
  N7       1.0000 0.33057  0.26576  0.27415  Biso   1.000  N
  N8       1.0000 0.47289  0.05509  0.29779  Biso   1.000  N
  C13      1.0000 0.29104  0.32752  0.24020  Biso   1.000  C
  H13      1.0000 0.31930  0.38210  0.23350  Biso   1.000  H
  C14      1.0000 0.21080  0.31162  0.21566  Biso   1.000  C
  H14      1.0000 0.18390  0.35470  0.19140  Biso   1.000  H
  C15      1.0000 0.47400  0.08817  0.24253  Biso   1.000  C
  H15      1.0000 0.47480  0.14990  0.23680  Biso   1.000  H
  C16      1.0000 0.47412  0.03331  0.19470  Biso   1.000  C
  H16      1.0000 0.47500  0.05720  0.15600  Biso   1.000  H
  O9       1.0000 0.03124  0.34121  0.54510  Biso   1.000  O
  O10      1.0000 0.85549  0.28217  0.59383  Biso   1.000  O
  N9       1.0000 0.01576  0.41943  0.52415  Biso   1.000  N
  N10      1.0000 0.80509  0.27711  0.54779  Biso   1.000  N
  C17      1.0000 0.07752  0.45896  0.49020  Biso   1.000  C
  H17      1.0000 0.13210  0.43070  0.48350  Biso   1.000  H
  C18      1.0000 0.06162  0.53920  0.46566  Biso   1.000  C
  H18      1.0000 0.10470  0.56610  0.44140  Biso   1.000  H
  C19      1.0000 0.83817  0.27600  0.49253  Biso   1.000  C
  H19      1.0000 0.89990  0.27520  0.48680  Biso   1.000  H
  C20      1.0000 0.78331  0.27588  0.44470  Biso   1.000  C
  H20      1.0000 0.80720  0.27500  0.40600  Biso   1.000  H
  O11      1.0000 0.53124  0.84121  0.04510  Biso   1.000  O
  O12      1.0000 0.35549  0.78217  0.09383  Biso   1.000  O
  N11      1.0000 0.51576  0.91943  0.02415  Biso   1.000  N
  N12      1.0000 0.30509  0.77711  0.04779  Biso   1.000  N
  C21      1.0000 0.57752  0.95896  0.99020  Biso   1.000  C
  H21      1.0000 0.63210  0.93070  0.98350  Biso   1.000  H
  C22      1.0000 0.56162  0.03920  0.96566  Biso   1.000  C
  H22      1.0000 0.60470  0.06610  0.94140  Biso   1.000  H
  C23      1.0000 0.33817  0.77600  0.99253  Biso   1.000  C
  H23      1.0000 0.39990  0.77520  0.98680  Biso   1.000  H
  C24      1.0000 0.28331  0.77588  0.94470  Biso   1.000  C
  H24      1.0000 0.30720  0.77500  0.90600  Biso   1.000  H
  O13      1.0000 0.46876  0.65879  0.04510  Biso   1.000  O
  O14      1.0000 0.64451  0.71783  0.09383  Biso   1.000  O
  N13      1.0000 0.48424  0.58057  0.02415  Biso   1.000  N
  N14      1.0000 0.69491  0.72289  0.04779  Biso   1.000  N
  C25      1.0000 0.42248  0.54104  0.99020  Biso   1.000  C
  H25      1.0000 0.36790  0.56930  0.98350  Biso   1.000  H
  C26      1.0000 0.43838  0.46080  0.96566  Biso   1.000  C
  H26      1.0000 0.39530  0.43390  0.94140  Biso   1.000  H
  C27      1.0000 0.66183  0.72400  0.99253  Biso   1.000  C
  H27      1.0000 0.60010  0.72480  0.98680  Biso   1.000  H
  C28      1.0000 0.71669  0.72412  0.94470  Biso   1.000  C
  H28      1.0000 0.69280  0.72500  0.90600  Biso   1.000  H
  O15      1.0000 0.96876  0.15879  0.54510  Biso   1.000  O
  O16      1.0000 0.14451  0.21783  0.59383  Biso   1.000  O
  N15      1.0000 0.98424  0.08057  0.52415  Biso   1.000  N
  N16      1.0000 0.19491  0.22289  0.54779  Biso   1.000  N
  C29      1.0000 0.92248  0.04104  0.49020  Biso   1.000  C
  H29      1.0000 0.86790  0.06930  0.48350  Biso   1.000  H
  C30      1.0000 0.93838  0.96080  0.46566  Biso   1.000  C
  H30      1.0000 0.89530  0.93390  0.44140  Biso   1.000  H
  C31      1.0000 0.16183  0.22400  0.49253  Biso   1.000  C
  H31      1.0000 0.10010  0.22480  0.48680  Biso   1.000  H
  C32      1.0000 0.21669  0.22412  0.44470  Biso   1.000  C
  H32      1.0000 0.19280  0.22500  0.40600  Biso   1.000  H
  O17      1.0000 0.90879  0.21876  0.70490  Biso   1.000  O
  O18      1.0000 0.96783  0.39451  0.65617  Biso   1.000  O
  N17      1.0000 0.83057  0.23424  0.72585  Biso   1.000  N
  N18      1.0000 0.97289  0.44491  0.70221  Biso   1.000  N
  C33      1.0000 0.79104  0.17248  0.75980  Biso   1.000  C
  H33      1.0000 0.81930  0.11790  0.76650  Biso   1.000  H
  C34      1.0000 0.71080  0.18838  0.78434  Biso   1.000  C
  H34      1.0000 0.68390  0.14530  0.80860  Biso   1.000  H
  C35      1.0000 0.97400  0.41183  0.75747  Biso   1.000  C
  H35      1.0000 0.97480  0.35010  0.76320  Biso   1.000  H
  C36      1.0000 0.97412  0.46669  0.80530  Biso   1.000  C
  H36      1.0000 0.97500  0.44280  0.84400  Biso   1.000  H
  O19      1.0000 0.40879  0.71876  0.20490  Biso   1.000  O
  O20      1.0000 0.46783  0.89451  0.15617  Biso   1.000  O
  N19      1.0000 0.33057  0.73424  0.22585  Biso   1.000  N
  N20      1.0000 0.47289  0.94491  0.20221  Biso   1.000  N
  C37      1.0000 0.29104  0.67248  0.25980  Biso   1.000  C
  H37      1.0000 0.31930  0.61790  0.26650  Biso   1.000  H
  C38      1.0000 0.21080  0.68838  0.28434  Biso   1.000  C
  H38      1.0000 0.18390  0.64530  0.30860  Biso   1.000  H
  C39      1.0000 0.47400  0.91183  0.25747  Biso   1.000  C
  H39      1.0000 0.47480  0.85010  0.26320  Biso   1.000  H
  C40      1.0000 0.47412  0.96669  0.30530  Biso   1.000  C
  H40      1.0000 0.47500  0.94280  0.34400  Biso   1.000  H
  O21      1.0000 0.59121  0.78124  0.20490  Biso   1.000  O
  O22      1.0000 0.53217  0.60549  0.15617  Biso   1.000  O
  N21      1.0000 0.66943  0.76576  0.22585  Biso   1.000  N
  N22      1.0000 0.52711  0.55509  0.20221  Biso   1.000  N
  C41      1.0000 0.70896  0.82752  0.25980  Biso   1.000  C
  H41      1.0000 0.68070  0.88210  0.26650  Biso   1.000  H
  C42      1.0000 0.78920  0.81162  0.28434  Biso   1.000  C
  H42      1.0000 0.81610  0.85470  0.30860  Biso   1.000  H
  C43      1.0000 0.52600  0.58817  0.25747  Biso   1.000  C
  H43      1.0000 0.52520  0.64990  0.26320  Biso   1.000  H
  C44      1.0000 0.52588  0.53331  0.30530  Biso   1.000  C
  H44      1.0000 0.52500  0.55720  0.34400  Biso   1.000  H
  O23      1.0000 0.09121  0.28124  0.70490  Biso   1.000  O
  O24      1.0000 0.03217  0.10549  0.65617  Biso   1.000  O
  N23      1.0000 0.16943  0.26576  0.72585  Biso   1.000  N
  N24      1.0000 0.02711  0.05509  0.70221  Biso   1.000  N
  C45      1.0000 0.20896  0.32752  0.75980  Biso   1.000  C
  H45      1.0000 0.18070  0.38210  0.76650  Biso   1.000  H
  C46      1.0000 0.28920  0.31162  0.78434  Biso   1.000  C
  H46      1.0000 0.31610  0.35470  0.80860  Biso   1.000  H
  C47      1.0000 0.02600  0.08817  0.75747  Biso   1.000  C
  H47      1.0000 0.02520  0.14990  0.76320  Biso   1.000  H
  C48      1.0000 0.02588  0.03331  0.80530  Biso   1.000  C
  H48      1.0000 0.02500  0.05720  0.84400  Biso   1.000  H
  O25      1.0000 0.46876  0.34121  0.45490  Biso   1.000  O
  O26      1.0000 0.64451  0.28217  0.40617  Biso   1.000  O
  N25      1.0000 0.48424  0.41943  0.47585  Biso   1.000  N
  N26      1.0000 0.69491  0.27711  0.45221  Biso   1.000  N
  C49      1.0000 0.42248  0.45896  0.50980  Biso   1.000  C
  H49      1.0000 0.36790  0.43070  0.51650  Biso   1.000  H
  C50      1.0000 0.43838  0.53920  0.53434  Biso   1.000  C
  H50      1.0000 0.39530  0.56610  0.55860  Biso   1.000  H
  C51      1.0000 0.66183  0.27600  0.50747  Biso   1.000  C
  H51      1.0000 0.60010  0.27520  0.51320  Biso   1.000  H
  C52      1.0000 0.71669  0.27588  0.55530  Biso   1.000  C
  H52      1.0000 0.69280  0.27500  0.59400  Biso   1.000  H
  O27      1.0000 0.96876  0.84121  0.95490  Biso   1.000  O
  O28      1.0000 0.14451  0.78217  0.90617  Biso   1.000  O
  N27      1.0000 0.98424  0.91943  0.97585  Biso   1.000  N
  N28      1.0000 0.19491  0.77711  0.95221  Biso   1.000  N
  C53      1.0000 0.92248  0.95896  0.00980  Biso   1.000  C
  H53      1.0000 0.86790  0.93070  0.01650  Biso   1.000  H
  C54      1.0000 0.93838  0.03920  0.03434  Biso   1.000  C
  H54      1.0000 0.89530  0.06610  0.05860  Biso   1.000  H
  C55      1.0000 0.16183  0.77600  0.00747  Biso   1.000  C
  H55      1.0000 0.10010  0.77520  0.01320  Biso   1.000  H
  C56      1.0000 0.21669  0.77588  0.05530  Biso   1.000  C
  H56      1.0000 0.19280  0.77500  0.09400  Biso   1.000  H
  O29      1.0000 0.03124  0.65879  0.95490  Biso   1.000  O
  O30      1.0000 0.85549  0.71783  0.90617  Biso   1.000  O
  N29      1.0000 0.01576  0.58057  0.97585  Biso   1.000  N
  N30      1.0000 0.80509  0.72289  0.95221  Biso   1.000  N
  C57      1.0000 0.07752  0.54104  0.00980  Biso   1.000  C
  H57      1.0000 0.13210  0.56930  0.01650  Biso   1.000  H
  C58      1.0000 0.06162  0.46080  0.03434  Biso   1.000  C
  H58      1.0000 0.10470  0.43390  0.05860  Biso   1.000  H
  C59      1.0000 0.83817  0.72400  0.00747  Biso   1.000  C
  H59      1.0000 0.89990  0.72480  0.01320  Biso   1.000  H
  C60      1.0000 0.78331  0.72412  0.05530  Biso   1.000  C
  H60      1.0000 0.80720  0.72500  0.09400  Biso   1.000  H
  O31      1.0000 0.53124  0.15879  0.45490  Biso   1.000  O
  O32      1.0000 0.35549  0.21783  0.40617  Biso   1.000  O
  N31      1.0000 0.51576  0.08057  0.47585  Biso   1.000  N
  N32      1.0000 0.30509  0.22289  0.45221  Biso   1.000  N
  C61      1.0000 0.57752  0.04104  0.50980  Biso   1.000  C
  H61      1.0000 0.63210  0.06930  0.51650  Biso   1.000  H
  C62      1.0000 0.56162  0.96080  0.53434  Biso   1.000  C
  H62      1.0000 0.60470  0.93390  0.55860  Biso   1.000  H
  C63      1.0000 0.33817  0.22400  0.50747  Biso   1.000  C
  H63      1.0000 0.39990  0.22480  0.51320  Biso   1.000  H
  C64      1.0000 0.28331  0.22412  0.55530  Biso   1.000  C
  H64      1.0000 0.30720  0.22500  0.59400  Biso   1.000  H
  O33      1.0000 0.40879  0.78124  0.70490  Biso   1.000  O
  O34      1.0000 0.46783  0.60549  0.65617  Biso   1.000  O
  N33      1.0000 0.33057  0.76576  0.72585  Biso   1.000  N
  N34      1.0000 0.47289  0.55509  0.70221  Biso   1.000  N
  C65      1.0000 0.29104  0.82752  0.75980  Biso   1.000  C
  H65      1.0000 0.31930  0.88210  0.76650  Biso   1.000  H
  C66      1.0000 0.21080  0.81162  0.78434  Biso   1.000  C
  H66      1.0000 0.18390  0.85470  0.80860  Biso   1.000  H
  C67      1.0000 0.47400  0.58817  0.75747  Biso   1.000  C
  H67      1.0000 0.47480  0.64990  0.76320  Biso   1.000  H
  C68      1.0000 0.47412  0.53331  0.80530  Biso   1.000  C
  H68      1.0000 0.47500  0.55720  0.84400  Biso   1.000  H
  O35      1.0000 0.90879  0.28124  0.20490  Biso   1.000  O
  O36      1.0000 0.96783  0.10549  0.15617  Biso   1.000  O
  N35      1.0000 0.83057  0.26576  0.22585  Biso   1.000  N
  N36      1.0000 0.97289  0.05509  0.20221  Biso   1.000  N
  C69      1.0000 0.79104  0.32752  0.25980  Biso   1.000  C
  H69      1.0000 0.81930  0.38210  0.26650  Biso   1.000  H
  C70      1.0000 0.71080  0.31162  0.28434  Biso   1.000  C
  H70      1.0000 0.68390  0.35470  0.30860  Biso   1.000  H
  C71      1.0000 0.97400  0.08817  0.25747  Biso   1.000  C
  H71      1.0000 0.97480  0.14990  0.26320  Biso   1.000  H
  C72      1.0000 0.97412  0.03331  0.30530  Biso   1.000  C
  H72      1.0000 0.97500  0.05720  0.34400  Biso   1.000  H
  O37      1.0000 0.09121  0.21876  0.20490  Biso   1.000  O
  O38      1.0000 0.03217  0.39451  0.15617  Biso   1.000  O
  N37      1.0000 0.16943  0.23424  0.22585  Biso   1.000  N
  N38      1.0000 0.02711  0.44491  0.20221  Biso   1.000  N
  C73      1.0000 0.20896  0.17248  0.25980  Biso   1.000  C
  H73      1.0000 0.18070  0.11790  0.26650  Biso   1.000  H
  C74      1.0000 0.28920  0.18838  0.28434  Biso   1.000  C
  H74      1.0000 0.31610  0.14530  0.30860  Biso   1.000  H
  C75      1.0000 0.02600  0.41183  0.25747  Biso   1.000  C
  H75      1.0000 0.02520  0.35010  0.26320  Biso   1.000  H
  C76      1.0000 0.02588  0.46669  0.30530  Biso   1.000  C
  H76      1.0000 0.02500  0.44280  0.34400  Biso   1.000  H
  O39      1.0000 0.59121  0.71876  0.70490  Biso   1.000  O
  O40      1.0000 0.53217  0.89451  0.65617  Biso   1.000  O
  N39      1.0000 0.66943  0.73424  0.72585  Biso   1.000  N
  N40      1.0000 0.52711  0.94491  0.70221  Biso   1.000  N
  C77      1.0000 0.70896  0.67248  0.75980  Biso   1.000  C
  H77      1.0000 0.68070  0.61790  0.76650  Biso   1.000  H
  C78      1.0000 0.78920  0.68838  0.78434  Biso   1.000  C
  H78      1.0000 0.81610  0.64530  0.80860  Biso   1.000  H
  C79      1.0000 0.52600  0.91183  0.75747  Biso   1.000  C
  H79      1.0000 0.52520  0.85010  0.76320  Biso   1.000  H
  C80      1.0000 0.52588  0.96669  0.80530  Biso   1.000  C
  H80      1.0000 0.52500  0.94280  0.84400  Biso   1.000  H
  O41      1.0000 0.96876  0.65879  0.45490  Biso   1.000  O
  O42      1.0000 0.14451  0.71783  0.40617  Biso   1.000  O
  N41      1.0000 0.98424  0.58057  0.47585  Biso   1.000  N
  N42      1.0000 0.19491  0.72289  0.45221  Biso   1.000  N
  C81      1.0000 0.92248  0.54104  0.50980  Biso   1.000  C
  H81      1.0000 0.86790  0.56930  0.51650  Biso   1.000  H
  C82      1.0000 0.93838  0.46080  0.53434  Biso   1.000  C
  H82      1.0000 0.89530  0.43390  0.55860  Biso   1.000  H
  C83      1.0000 0.16183  0.72400  0.50747  Biso   1.000  C
  H83      1.0000 0.10010  0.72480  0.51320  Biso   1.000  H
  C84      1.0000 0.21669  0.72412  0.55530  Biso   1.000  C
  H84      1.0000 0.19280  0.72500  0.59400  Biso   1.000  H
  O43      1.0000 0.46876  0.15879  0.95490  Biso   1.000  O
  O44      1.0000 0.64451  0.21783  0.90617  Biso   1.000  O
  N43      1.0000 0.48424  0.08057  0.97585  Biso   1.000  N
  N44      1.0000 0.69491  0.22289  0.95221  Biso   1.000  N
  C85      1.0000 0.42248  0.04104  0.00980  Biso   1.000  C
  H85      1.0000 0.36790  0.06930  0.01650  Biso   1.000  H
  C86      1.0000 0.43838  0.96080  0.03434  Biso   1.000  C
  H86      1.0000 0.39530  0.93390  0.05860  Biso   1.000  H
  C87      1.0000 0.66183  0.22400  0.00747  Biso   1.000  C
  H87      1.0000 0.60010  0.22480  0.01320  Biso   1.000  H
  C88      1.0000 0.71669  0.22412  0.05530  Biso   1.000  C
  H88      1.0000 0.69280  0.22500  0.09400  Biso   1.000  H
  O45      1.0000 0.53124  0.34121  0.95490  Biso   1.000  O
  O46      1.0000 0.35549  0.28217  0.90617  Biso   1.000  O
  N45      1.0000 0.51576  0.41943  0.97585  Biso   1.000  N
  N46      1.0000 0.30509  0.27711  0.95221  Biso   1.000  N
  C89      1.0000 0.57752  0.45896  0.00980  Biso   1.000  C
  H89      1.0000 0.63210  0.43070  0.01650  Biso   1.000  H
  C90      1.0000 0.56162  0.53920  0.03434  Biso   1.000  C
  H90      1.0000 0.60470  0.56610  0.05860  Biso   1.000  H
  C91      1.0000 0.33817  0.27600  0.00747  Biso   1.000  C
  H91      1.0000 0.39990  0.27520  0.01320  Biso   1.000  H
  C92      1.0000 0.28331  0.27588  0.05530  Biso   1.000  C
  H92      1.0000 0.30720  0.27500  0.09400  Biso   1.000  H
  O47      1.0000 0.03124  0.84121  0.45490  Biso   1.000  O
  O48      1.0000 0.85549  0.78217  0.40617  Biso   1.000  O
  N47      1.0000 0.01576  0.91943  0.47585  Biso   1.000  N
  N48      1.0000 0.80509  0.77711  0.45221  Biso   1.000  N
  C93      1.0000 0.07752  0.95896  0.50980  Biso   1.000  C
  H93      1.0000 0.13210  0.93070  0.51650  Biso   1.000  H
  C94      1.0000 0.06162  0.03920  0.53434  Biso   1.000  C
  H94      1.0000 0.10470  0.06610  0.55860  Biso   1.000  H
  C95      1.0000 0.83817  0.77600  0.50747  Biso   1.000  C
  H95      1.0000 0.89990  0.77520  0.51320  Biso   1.000  H
  C96      1.0000 0.78331  0.77588  0.55530  Biso   1.000  C
  H96      1.0000 0.80720  0.77500  0.59400  Biso   1.000  H
  O49      1.0000 0.09121  0.78124  0.29510  Biso   1.000  O
  O50      1.0000 0.03217  0.60549  0.34383  Biso   1.000  O
  N49      1.0000 0.16943  0.76576  0.27415  Biso   1.000  N
  N50      1.0000 0.02711  0.55509  0.29779  Biso   1.000  N
  C97      1.0000 0.20896  0.82752  0.24020  Biso   1.000  C
  H97      1.0000 0.18070  0.88210  0.23350  Biso   1.000  H
  C98      1.0000 0.28920  0.81162  0.21566  Biso   1.000  C
  H98      1.0000 0.31610  0.85470  0.19140  Biso   1.000  H
  C99      1.0000 0.02600  0.58817  0.24253  Biso   1.000  C
  H99      1.0000 0.02520  0.64990  0.23680  Biso   1.000  H
  C100     1.0000 0.02588  0.53331  0.19470  Biso   1.000  C
  H100     1.0000 0.02500  0.55720  0.15600  Biso   1.000  H
  O51      1.0000 0.59121  0.28124  0.79510  Biso   1.000  O
  O52      1.0000 0.53217  0.10549  0.84383  Biso   1.000  O
  N51      1.0000 0.66943  0.26576  0.77415  Biso   1.000  N
  N52      1.0000 0.52711  0.05509  0.79779  Biso   1.000  N
  C101     1.0000 0.70896  0.32752  0.74020  Biso   1.000  C
  H101     1.0000 0.68070  0.38210  0.73350  Biso   1.000  H
  C102     1.0000 0.78920  0.31162  0.71566  Biso   1.000  C
  H102     1.0000 0.81610  0.35470  0.69140  Biso   1.000  H
  C103     1.0000 0.52600  0.08817  0.74253  Biso   1.000  C
  H103     1.0000 0.52520  0.14990  0.73680  Biso   1.000  H
  C104     1.0000 0.52588  0.03331  0.69470  Biso   1.000  C
  H104     1.0000 0.52500  0.05720  0.65600  Biso   1.000  H
  O53      1.0000 0.40879  0.21876  0.79510  Biso   1.000  O
  O54      1.0000 0.46783  0.39451  0.84383  Biso   1.000  O
  N53      1.0000 0.33057  0.23424  0.77415  Biso   1.000  N
  N54      1.0000 0.47289  0.44491  0.79779  Biso   1.000  N
  C105     1.0000 0.29104  0.17248  0.74020  Biso   1.000  C
  H105     1.0000 0.31930  0.11790  0.73350  Biso   1.000  H
  C106     1.0000 0.21080  0.18838  0.71566  Biso   1.000  C
  H106     1.0000 0.18390  0.14530  0.69140  Biso   1.000  H
  C107     1.0000 0.47400  0.41183  0.74253  Biso   1.000  C
  H107     1.0000 0.47480  0.35010  0.73680  Biso   1.000  H
  C108     1.0000 0.47412  0.46669  0.69470  Biso   1.000  C
  H108     1.0000 0.47500  0.44280  0.65600  Biso   1.000  H
  O55      1.0000 0.90879  0.71876  0.29510  Biso   1.000  O
  O56      1.0000 0.96783  0.89451  0.34383  Biso   1.000  O
  N55      1.0000 0.83057  0.73424  0.27415  Biso   1.000  N
  N56      1.0000 0.97289  0.94491  0.29779  Biso   1.000  N
  C109     1.0000 0.79104  0.67248  0.24020  Biso   1.000  C
  H109     1.0000 0.81930  0.61790  0.23350  Biso   1.000  H
  C110     1.0000 0.71080  0.68838  0.21566  Biso   1.000  C
  H110     1.0000 0.68390  0.64530  0.19140  Biso   1.000  H
  C111     1.0000 0.97400  0.91183  0.24253  Biso   1.000  C
  H111     1.0000 0.97480  0.85010  0.23680  Biso   1.000  H
  C112     1.0000 0.97412  0.96669  0.19470  Biso   1.000  C
  H112     1.0000 0.97500  0.94280  0.15600  Biso   1.000  H
  O57      1.0000 0.53124  0.65879  0.54510  Biso   1.000  O
  O58      1.0000 0.35549  0.71783  0.59383  Biso   1.000  O
  N57      1.0000 0.51576  0.58057  0.52415  Biso   1.000  N
  N58      1.0000 0.30509  0.72289  0.54779  Biso   1.000  N
  C113     1.0000 0.57752  0.54104  0.49020  Biso   1.000  C
  H113     1.0000 0.63210  0.56930  0.48350  Biso   1.000  H
  C114     1.0000 0.56162  0.46080  0.46566  Biso   1.000  C
  H114     1.0000 0.60470  0.43390  0.44140  Biso   1.000  H
  C115     1.0000 0.33817  0.72400  0.49253  Biso   1.000  C
  H115     1.0000 0.39990  0.72480  0.48680  Biso   1.000  H
  C116     1.0000 0.28331  0.72412  0.44470  Biso   1.000  C
  H116     1.0000 0.30720  0.72500  0.40600  Biso   1.000  H
  O59      1.0000 0.03124  0.15879  0.04510  Biso   1.000  O
  O60      1.0000 0.85549  0.21783  0.09383  Biso   1.000  O
  N59      1.0000 0.01576  0.08057  0.02415  Biso   1.000  N
  N60      1.0000 0.80509  0.22289  0.04779  Biso   1.000  N
  C117     1.0000 0.07752  0.04104  0.99020  Biso   1.000  C
  H117     1.0000 0.13210  0.06930  0.98350  Biso   1.000  H
  C118     1.0000 0.06162  0.96080  0.96566  Biso   1.000  C
  H118     1.0000 0.10470  0.93390  0.94140  Biso   1.000  H
  C119     1.0000 0.83817  0.22400  0.99253  Biso   1.000  C
  H119     1.0000 0.89990  0.22480  0.98680  Biso   1.000  H
  C120     1.0000 0.78331  0.22412  0.94470  Biso   1.000  C
  H120     1.0000 0.80720  0.22500  0.90600  Biso   1.000  H
  O61      1.0000 0.96876  0.34121  0.04510  Biso   1.000  O
  O62      1.0000 0.14451  0.28217  0.09383  Biso   1.000  O
  N61      1.0000 0.98424  0.41943  0.02415  Biso   1.000  N
  N62      1.0000 0.19491  0.27711  0.04779  Biso   1.000  N
  C121     1.0000 0.92248  0.45896  0.99020  Biso   1.000  C
  H121     1.0000 0.86790  0.43070  0.98350  Biso   1.000  H
  C122     1.0000 0.93838  0.53920  0.96566  Biso   1.000  C
  H122     1.0000 0.89530  0.56610  0.94140  Biso   1.000  H
  C123     1.0000 0.16183  0.27600  0.99253  Biso   1.000  C
  H123     1.0000 0.10010  0.27520  0.98680  Biso   1.000  H
  C124     1.0000 0.21669  0.27588  0.94470  Biso   1.000  C
  H124     1.0000 0.19280  0.27500  0.90600  Biso   1.000  H
  O63      1.0000 0.46876  0.84121  0.54510  Biso   1.000  O
  O64      1.0000 0.64451  0.78217  0.59383  Biso   1.000  O
  N63      1.0000 0.48424  0.91943  0.52415  Biso   1.000  N
  N64      1.0000 0.69491  0.77711  0.54779  Biso   1.000  N
  C125     1.0000 0.42248  0.95896  0.49020  Biso   1.000  C
  H125     1.0000 0.36790  0.93070  0.48350  Biso   1.000  H
  C126     1.0000 0.43838  0.03920  0.46566  Biso   1.000  C
  H126     1.0000 0.39530  0.06610  0.44140  Biso   1.000  H
  C127     1.0000 0.66183  0.77600  0.49253  Biso   1.000  C
  H127     1.0000 0.60010  0.77520  0.48680  Biso   1.000  H
  C128     1.0000 0.71669  0.77588  0.44470  Biso   1.000  C
  H128     1.0000 0.69280  0.77500  0.40600  Biso   1.000  H
  Dy1      1.0000 0.50000  0.25000  0.37500  Biso   1.000  Dy
  Dy2      1.0000 0.00000  0.75000  0.87500  Biso   1.000  Dy
  Dy3      1.0000 0.00000  0.25000  0.62500  Biso   1.000  Dy
  Dy4      1.0000 0.50000  0.75000  0.12500  Biso   1.000  Dy
  Dy5      1.0000 0.50000  0.75000  0.62500  Biso   1.000  Dy
  Dy6      1.0000 0.00000  0.25000  0.12500  Biso   1.000  Dy
  Dy7      1.0000 0.00000  0.75000  0.37500  Biso   1.000  Dy
  Dy8      1.0000 0.50000  0.25000  0.87500  Biso   1.000  Dy
