data_image0
_cell_length_a       14.7236
_cell_length_b       14.7236
_cell_length_c       8.9544
_cell_angle_alpha    90
_cell_angle_beta     90
_cell_angle_gamma    90

_symmetry_space_group_name_H-M    "P 1"
_symmetry_int_tables_number       1

loop_
  _symmetry_equiv_pos_as_xyz
  'x, y, z'

loop_
  _atom_site_label
  _atom_site_occupancy
  _atom_site_fract_x
  _atom_site_fract_y
  _atom_site_fract_z
  _atom_site_thermal_displace_type
  _atom_site_B_iso_or_equiv
  _atom_site_type_symbol
  Co1      1.0000 0.98829  0.13148  0.34972  Biso   1.000  Co
  Co2      1.0000 0.13146  0.49883  0.16341  Biso   1.000  Co
  P1       1.0000 0.99981  0.35267  0.30550  Biso   1.000  P
  P2       1.0000 0.98749  0.14663  0.70880  Biso   1.000  P
  O1       1.0000 0.08380  0.39040  0.23400  Biso   1.000  O
  O2       1.0000 0.00350  0.24780  0.75340  Biso   1.000  O
  O3       1.0000 0.94620  0.13890  0.55370  Biso   1.000  O
  O4       1.0000 0.99450  0.25250  0.26440  Biso   1.000  O
  O5       1.0000 0.08000  0.09960  0.71580  Biso   1.000  O
  O6       1.0000 0.92320  0.10900  0.82780  Biso   1.000  O
  O7       1.0000 0.92110  0.40180  0.24400  Biso   1.000  O
  O8       1.0000 0.99300  0.36370  0.46090  Biso   1.000  O
  Zn1      1.0000 0.00117  0.36854  0.66341  Biso   1.000  Zn
  Zn2      1.0000 0.13148  0.01171  0.84972  Biso   1.000  Zn
  Co3      1.0000 0.01171  0.86852  0.34972  Biso   1.000  Co
  Co4      1.0000 0.86854  0.50117  0.16341  Biso   1.000  Co
  P3       1.0000 0.00019  0.64733  0.30550  Biso   1.000  P
  P4       1.0000 0.01251  0.85337  0.70880  Biso   1.000  P
  O9       1.0000 0.91620  0.60960  0.23400  Biso   1.000  O
  O10      1.0000 0.99650  0.75220  0.75340  Biso   1.000  O
  O11      1.0000 0.05380  0.86110  0.55370  Biso   1.000  O
  O12      1.0000 0.00550  0.74750  0.26440  Biso   1.000  O
  O13      1.0000 0.92000  0.90040  0.71580  Biso   1.000  O
  O14      1.0000 0.07680  0.89100  0.82780  Biso   1.000  O
  O15      1.0000 0.07890  0.59820  0.24400  Biso   1.000  O
  O16      1.0000 0.00700  0.63630  0.46090  Biso   1.000  O
  Zn3      1.0000 0.99883  0.63146  0.66341  Biso   1.000  Zn
  Zn4      1.0000 0.86852  0.98829  0.84972  Biso   1.000  Zn
  Co5      1.0000 0.50117  0.13146  0.66341  Biso   1.000  Co
  P5       1.0000 0.64733  0.99981  0.80550  Biso   1.000  P
  P6       1.0000 0.85337  0.98749  0.20880  Biso   1.000  P
  O17      1.0000 0.60960  0.08380  0.73400  Biso   1.000  O
  O18      1.0000 0.75220  0.00350  0.25340  Biso   1.000  O
  O19      1.0000 0.86110  0.94620  0.05370  Biso   1.000  O
  O20      1.0000 0.74750  0.99450  0.76440  Biso   1.000  O
  O21      1.0000 0.90040  0.08000  0.21580  Biso   1.000  O
  O22      1.0000 0.89100  0.92320  0.32780  Biso   1.000  O
  O23      1.0000 0.59820  0.92110  0.74400  Biso   1.000  O
  O24      1.0000 0.63630  0.99300  0.96090  Biso   1.000  O
  Zn5      1.0000 0.63146  0.00117  0.16341  Biso   1.000  Zn
  Co6      1.0000 0.49883  0.86854  0.66341  Biso   1.000  Co
  P7       1.0000 0.35267  0.00019  0.80550  Biso   1.000  P
  P8       1.0000 0.14663  0.01251  0.20880  Biso   1.000  P
  O25      1.0000 0.39040  0.91620  0.73400  Biso   1.000  O
  O26      1.0000 0.24780  0.99650  0.25340  Biso   1.000  O
  O27      1.0000 0.13890  0.05380  0.05370  Biso   1.000  O
  O28      1.0000 0.25250  0.00550  0.76440  Biso   1.000  O
  O29      1.0000 0.09960  0.92000  0.21580  Biso   1.000  O
  O30      1.0000 0.10900  0.07680  0.32780  Biso   1.000  O
  O31      1.0000 0.40180  0.07890  0.74400  Biso   1.000  O
  O32      1.0000 0.36370  0.00700  0.96090  Biso   1.000  O
  Zn6      1.0000 0.36854  0.99883  0.16341  Biso   1.000  Zn
  Co7      1.0000 0.48829  0.36852  0.34972  Biso   1.000  Co
  P9       1.0000 0.49981  0.14733  0.30550  Biso   1.000  P
  P10      1.0000 0.48749  0.35337  0.70880  Biso   1.000  P
  O33      1.0000 0.58380  0.10960  0.23400  Biso   1.000  O
  O34      1.0000 0.50350  0.25220  0.75340  Biso   1.000  O
  O35      1.0000 0.44620  0.36110  0.55370  Biso   1.000  O
  O36      1.0000 0.49450  0.24750  0.26440  Biso   1.000  O
  O37      1.0000 0.58000  0.40040  0.71580  Biso   1.000  O
  O38      1.0000 0.42320  0.39100  0.82780  Biso   1.000  O
  O39      1.0000 0.42110  0.09820  0.24400  Biso   1.000  O
  O40      1.0000 0.49300  0.13630  0.46090  Biso   1.000  O
  Zn7      1.0000 0.63148  0.48829  0.84972  Biso   1.000  Zn
  Co8      1.0000 0.51171  0.63148  0.34972  Biso   1.000  Co
  P11      1.0000 0.50019  0.85267  0.30550  Biso   1.000  P
  P12      1.0000 0.51251  0.64663  0.70880  Biso   1.000  P
  O41      1.0000 0.41620  0.89040  0.23400  Biso   1.000  O
  O42      1.0000 0.49650  0.74780  0.75340  Biso   1.000  O
  O43      1.0000 0.55380  0.63890  0.55370  Biso   1.000  O
  O44      1.0000 0.50550  0.75250  0.26440  Biso   1.000  O
  O45      1.0000 0.42000  0.59960  0.71580  Biso   1.000  O
  O46      1.0000 0.57680  0.60900  0.82780  Biso   1.000  O
  O47      1.0000 0.57890  0.90180  0.24400  Biso   1.000  O
  O48      1.0000 0.50700  0.86370  0.46090  Biso   1.000  O
  Zn8      1.0000 0.36852  0.51171  0.84972  Biso   1.000  Zn
  P13      1.0000 0.14733  0.50019  0.80550  Biso   1.000  P
  P14      1.0000 0.35337  0.51251  0.20880  Biso   1.000  P
  O49      1.0000 0.10960  0.41620  0.73400  Biso   1.000  O
  O50      1.0000 0.25220  0.49650  0.25340  Biso   1.000  O
  O51      1.0000 0.36110  0.55380  0.05370  Biso   1.000  O
  O52      1.0000 0.24750  0.50550  0.76440  Biso   1.000  O
  O53      1.0000 0.40040  0.42000  0.21580  Biso   1.000  O
  O54      1.0000 0.39100  0.57680  0.32780  Biso   1.000  O
  O55      1.0000 0.09820  0.57890  0.74400  Biso   1.000  O
  O56      1.0000 0.13630  0.50700  0.96090  Biso   1.000  O
  P15      1.0000 0.85267  0.49981  0.80550  Biso   1.000  P
  P16      1.0000 0.64663  0.48749  0.20880  Biso   1.000  P
  O57      1.0000 0.89040  0.58380  0.73400  Biso   1.000  O
  O58      1.0000 0.74780  0.50350  0.25340  Biso   1.000  O
  O59      1.0000 0.63890  0.44620  0.05370  Biso   1.000  O
  O60      1.0000 0.75250  0.49450  0.76440  Biso   1.000  O
  O61      1.0000 0.59960  0.58000  0.21580  Biso   1.000  O
  O62      1.0000 0.60900  0.42320  0.32780  Biso   1.000  O
  O63      1.0000 0.90180  0.42110  0.74400  Biso   1.000  O
  O64      1.0000 0.86370  0.49300  0.96090  Biso   1.000  O
