data_image0
_cell_length_a       19.0427
_cell_length_b       19.0427
_cell_length_c       5.8108
_cell_angle_alpha    90
_cell_angle_beta     90
_cell_angle_gamma    90

_symmetry_space_group_name_H-M    "P 1"
_symmetry_int_tables_number       1

loop_
  _symmetry_equiv_pos_as_xyz
  'x, y, z'

loop_
  _atom_site_label
  _atom_site_occupancy
  _atom_site_fract_x
  _atom_site_fract_y
  _atom_site_fract_z
  _atom_site_thermal_displace_type
  _atom_site_B_iso_or_equiv
  _atom_site_type_symbol
  O1       1.0000 0.31550  0.75620  0.06000  Biso   1.000  O
  O2       1.0000 0.41050  0.76930  0.26200  Biso   1.000  O
  C1       1.0000 0.38100  0.75920  0.08900  Biso   1.000  C
  O3       1.0000 0.37550  0.73410  0.68260  Biso   1.000  O
  H1       1.0000 0.39700  0.73200  0.56500  Biso   1.000  H
  C2       1.0000 0.47550  0.68630  0.88800  Biso   1.000  C
  H2       1.0000 0.50490  0.69470  0.02350  Biso   1.000  H
  O4       1.0000 0.43970  0.62610  0.92520  Biso   1.000  O
  O5       1.0000 0.57030  0.62100  0.70930  Biso   1.000  O
  C3       1.0000 0.56990  0.74370  0.62700  Biso   1.000  C
  H3       1.0000 0.53980  0.78420  0.59280  Biso   1.000  H
  O6       1.0000 0.61360  0.72880  0.42440  Biso   1.000  O
  H4       1.0000 0.61100  0.74800  0.30300  Biso   1.000  H
  C4       1.0000 0.61720  0.76200  0.83200  Biso   1.000  C
  O7       1.0000 0.68220  0.75340  0.80590  Biso   1.000  O
  O8       1.0000 0.58560  0.78640  0.00900  Biso   1.000  O
  C5       1.0000 0.42570  0.74960  0.86400  Biso   1.000  C
  H5       1.0000 0.45210  0.79250  0.82820  Biso   1.000  H
  C6       1.0000 0.52460  0.68200  0.67800  Biso   1.000  C
  H6       1.0000 0.49540  0.67330  0.54230  Biso   1.000  H
  O9       1.0000 0.68450  0.24380  0.56000  Biso   1.000  O
  O10      1.0000 0.58950  0.23070  0.76200  Biso   1.000  O
  C7       1.0000 0.61900  0.24080  0.58900  Biso   1.000  C
  O11      1.0000 0.62450  0.26590  0.18260  Biso   1.000  O
  H7       1.0000 0.60300  0.26800  0.06500  Biso   1.000  H
  C8       1.0000 0.52450  0.31370  0.38800  Biso   1.000  C
  H8       1.0000 0.49510  0.30530  0.52350  Biso   1.000  H
  O12      1.0000 0.56030  0.37390  0.42520  Biso   1.000  O
  O13      1.0000 0.42970  0.37900  0.20930  Biso   1.000  O
  C9       1.0000 0.43010  0.25630  0.12700  Biso   1.000  C
  H9       1.0000 0.46020  0.21580  0.09280  Biso   1.000  H
  O14      1.0000 0.38640  0.27120  0.92440  Biso   1.000  O
  H10      1.0000 0.38900  0.25200  0.80300  Biso   1.000  H
  C10      1.0000 0.38280  0.23800  0.33200  Biso   1.000  C
  O15      1.0000 0.31780  0.24660  0.30590  Biso   1.000  O
  O16      1.0000 0.41440  0.21360  0.50900  Biso   1.000  O
  C11      1.0000 0.57430  0.25040  0.36400  Biso   1.000  C
  H11      1.0000 0.54790  0.20750  0.32820  Biso   1.000  H
  C12      1.0000 0.47540  0.31800  0.17800  Biso   1.000  C
  H12      1.0000 0.50460  0.32670  0.04230  Biso   1.000  H
  O17      1.0000 0.74380  0.81550  0.31000  Biso   1.000  O
  O18      1.0000 0.73070  0.91050  0.51200  Biso   1.000  O
  C13      1.0000 0.74080  0.88100  0.33900  Biso   1.000  C
  O19      1.0000 0.76590  0.87550  0.93260  Biso   1.000  O
  H13      1.0000 0.76800  0.89700  0.81500  Biso   1.000  H
  C14      1.0000 0.81370  0.97550  0.13800  Biso   1.000  C
  H14      1.0000 0.80530  0.00490  0.27350  Biso   1.000  H
  O20      1.0000 0.87390  0.93970  0.17520  Biso   1.000  O
  O21      1.0000 0.87900  0.07030  0.95930  Biso   1.000  O
  C15      1.0000 0.75630  0.06990  0.87700  Biso   1.000  C
  H15      1.0000 0.71580  0.03980  0.84280  Biso   1.000  H
  O22      1.0000 0.77120  0.11360  0.67440  Biso   1.000  O
  H16      1.0000 0.75200  0.11100  0.55300  Biso   1.000  H
  C16      1.0000 0.73800  0.11720  0.08200  Biso   1.000  C
  O23      1.0000 0.74660  0.18220  0.05590  Biso   1.000  O
  O24      1.0000 0.71360  0.08560  0.25900  Biso   1.000  O
  C17      1.0000 0.75040  0.92570  0.11400  Biso   1.000  C
  H17      1.0000 0.70750  0.95210  0.07820  Biso   1.000  H
  C18      1.0000 0.81800  0.02460  0.92800  Biso   1.000  C
  H18      1.0000 0.82670  0.99540  0.79230  Biso   1.000  H
  O25      1.0000 0.25620  0.18450  0.81000  Biso   1.000  O
  O26      1.0000 0.26930  0.08950  0.01200  Biso   1.000  O
  C19      1.0000 0.25920  0.11900  0.83900  Biso   1.000  C
  O27      1.0000 0.23410  0.12450  0.43260  Biso   1.000  O
  H19      1.0000 0.23200  0.10300  0.31500  Biso   1.000  H
  C20      1.0000 0.18630  0.02450  0.63800  Biso   1.000  C
  H20      1.0000 0.19470  0.99510  0.77350  Biso   1.000  H
  O28      1.0000 0.12610  0.06030  0.67520  Biso   1.000  O
  O29      1.0000 0.12100  0.92970  0.45930  Biso   1.000  O
  C21      1.0000 0.24370  0.93010  0.37700  Biso   1.000  C
  H21      1.0000 0.28420  0.96020  0.34280  Biso   1.000  H
  O30      1.0000 0.22880  0.88640  0.17440  Biso   1.000  O
  H22      1.0000 0.24800  0.88900  0.05300  Biso   1.000  H
  C22      1.0000 0.26200  0.88280  0.58200  Biso   1.000  C
  O31      1.0000 0.25340  0.81780  0.55590  Biso   1.000  O
  O32      1.0000 0.28640  0.91440  0.75900  Biso   1.000  O
  C23      1.0000 0.24960  0.07430  0.61400  Biso   1.000  C
  H23      1.0000 0.29250  0.04790  0.57820  Biso   1.000  H
  C24      1.0000 0.18200  0.97540  0.42800  Biso   1.000  C
  H24      1.0000 0.17330  0.00460  0.29230  Biso   1.000  H
  O33      1.0000 0.18450  0.25620  0.19000  Biso   1.000  O
  O34      1.0000 0.08950  0.26930  0.98800  Biso   1.000  O
  C25      1.0000 0.11900  0.25920  0.16100  Biso   1.000  C
  O35      1.0000 0.12450  0.23410  0.56740  Biso   1.000  O
  H25      1.0000 0.10300  0.23200  0.68500  Biso   1.000  H
  C26      1.0000 0.02450  0.18630  0.36200  Biso   1.000  C
  H26      1.0000 0.99510  0.19470  0.22650  Biso   1.000  H
  O36      1.0000 0.06030  0.12610  0.32480  Biso   1.000  O
  O37      1.0000 0.92970  0.12100  0.54070  Biso   1.000  O
  C27      1.0000 0.93010  0.24370  0.62300  Biso   1.000  C
  H27      1.0000 0.96020  0.28420  0.65720  Biso   1.000  H
  O38      1.0000 0.88640  0.22880  0.82560  Biso   1.000  O
  H28      1.0000 0.88900  0.24800  0.94700  Biso   1.000  H
  C28      1.0000 0.88280  0.26200  0.41800  Biso   1.000  C
  O39      1.0000 0.81780  0.25340  0.44410  Biso   1.000  O
  O40      1.0000 0.91440  0.28640  0.24100  Biso   1.000  O
  C29      1.0000 0.07430  0.24960  0.38600  Biso   1.000  C
  H29      1.0000 0.04790  0.29250  0.42180  Biso   1.000  H
  C30      1.0000 0.97540  0.18200  0.57200  Biso   1.000  C
  H30      1.0000 0.00460  0.17330  0.70770  Biso   1.000  H
  O41      1.0000 0.81550  0.74380  0.69000  Biso   1.000  O
  O42      1.0000 0.91050  0.73070  0.48800  Biso   1.000  O
  C31      1.0000 0.88100  0.74080  0.66100  Biso   1.000  C
  O43      1.0000 0.87550  0.76590  0.06740  Biso   1.000  O
  H31      1.0000 0.89700  0.76800  0.18500  Biso   1.000  H
  C32      1.0000 0.97550  0.81370  0.86200  Biso   1.000  C
  H32      1.0000 0.00490  0.80530  0.72650  Biso   1.000  H
  O44      1.0000 0.93970  0.87390  0.82480  Biso   1.000  O
  O45      1.0000 0.07030  0.87900  0.04070  Biso   1.000  O
  C33      1.0000 0.06990  0.75630  0.12300  Biso   1.000  C
  H33      1.0000 0.03980  0.71580  0.15720  Biso   1.000  H
  O46      1.0000 0.11360  0.77120  0.32560  Biso   1.000  O
  H34      1.0000 0.11100  0.75200  0.44700  Biso   1.000  H
  C34      1.0000 0.11720  0.73800  0.91800  Biso   1.000  C
  O47      1.0000 0.18220  0.74660  0.94410  Biso   1.000  O
  O48      1.0000 0.08560  0.71360  0.74100  Biso   1.000  O
  C35      1.0000 0.92570  0.75040  0.88600  Biso   1.000  C
  H35      1.0000 0.95210  0.70750  0.92180  Biso   1.000  H
  C36      1.0000 0.02460  0.81800  0.07200  Biso   1.000  C
  H36      1.0000 0.99540  0.82670  0.20770  Biso   1.000  H
  O49      1.0000 0.75620  0.31550  0.94000  Biso   1.000  O
  O50      1.0000 0.76930  0.41050  0.73800  Biso   1.000  O
  C37      1.0000 0.75920  0.38100  0.91100  Biso   1.000  C
  O51      1.0000 0.73410  0.37550  0.31740  Biso   1.000  O
  H37      1.0000 0.73200  0.39700  0.43500  Biso   1.000  H
  C38      1.0000 0.68630  0.47550  0.11200  Biso   1.000  C
  H38      1.0000 0.69470  0.50490  0.97650  Biso   1.000  H
  O52      1.0000 0.62610  0.43970  0.07480  Biso   1.000  O
  O53      1.0000 0.62100  0.57030  0.29070  Biso   1.000  O
  C39      1.0000 0.74370  0.56990  0.37300  Biso   1.000  C
  H39      1.0000 0.78420  0.53980  0.40720  Biso   1.000  H
  O54      1.0000 0.72880  0.61360  0.57560  Biso   1.000  O
  H40      1.0000 0.74800  0.61100  0.69700  Biso   1.000  H
  C40      1.0000 0.76200  0.61720  0.16800  Biso   1.000  C
  O55      1.0000 0.75340  0.68220  0.19410  Biso   1.000  O
  O56      1.0000 0.78640  0.58560  0.99100  Biso   1.000  O
  C41      1.0000 0.74960  0.42570  0.13600  Biso   1.000  C
  H41      1.0000 0.79250  0.45210  0.17180  Biso   1.000  H
  C42      1.0000 0.68200  0.52460  0.32200  Biso   1.000  C
  H42      1.0000 0.67330  0.49540  0.45770  Biso   1.000  H
  O57      1.0000 0.24380  0.68450  0.44000  Biso   1.000  O
  O58      1.0000 0.23070  0.58950  0.23800  Biso   1.000  O
  C43      1.0000 0.24080  0.61900  0.41100  Biso   1.000  C
  O59      1.0000 0.26590  0.62450  0.81740  Biso   1.000  O
  H43      1.0000 0.26800  0.60300  0.93500  Biso   1.000  H
  C44      1.0000 0.31370  0.52450  0.61200  Biso   1.000  C
  H44      1.0000 0.30530  0.49510  0.47650  Biso   1.000  H
  O60      1.0000 0.37390  0.56030  0.57480  Biso   1.000  O
  O61      1.0000 0.37900  0.42970  0.79070  Biso   1.000  O
  C45      1.0000 0.25630  0.43010  0.87300  Biso   1.000  C
  H45      1.0000 0.21580  0.46020  0.90720  Biso   1.000  H
  O62      1.0000 0.27120  0.38640  0.07560  Biso   1.000  O
  H46      1.0000 0.25200  0.38900  0.19700  Biso   1.000  H
  C46      1.0000 0.23800  0.38280  0.66800  Biso   1.000  C
  O63      1.0000 0.24660  0.31780  0.69410  Biso   1.000  O
  O64      1.0000 0.21360  0.41440  0.49100  Biso   1.000  O
  C47      1.0000 0.25040  0.57430  0.63600  Biso   1.000  C
  H47      1.0000 0.20750  0.54790  0.67180  Biso   1.000  H
  C48      1.0000 0.31800  0.47540  0.82200  Biso   1.000  C
  H48      1.0000 0.32670  0.50460  0.95770  Biso   1.000  H
  Zn1      1.0000 0.27042  0.72958  0.75000  Biso   1.000  Zn
  Zn2      1.0000 0.72958  0.27042  0.25000  Biso   1.000  Zn
  Zn3      1.0000 0.77042  0.77042  0.00000  Biso   1.000  Zn
  Zn4      1.0000 0.22958  0.22958  0.50000  Biso   1.000  Zn
  Zn5      1.0000 0.22252  0.77748  0.25000  Biso   1.000  Zn
  Zn6      1.0000 0.77748  0.22252  0.75000  Biso   1.000  Zn
  Zn7      1.0000 0.72252  0.72252  0.50000  Biso   1.000  Zn
  Zn8      1.0000 0.27748  0.27748  0.00000  Biso   1.000  Zn
