data_image0
_cell_length_a       18.9545
_cell_length_b       18.9545
_cell_length_c       5.7911
_cell_angle_alpha    90
_cell_angle_beta     90
_cell_angle_gamma    90

_symmetry_space_group_name_H-M    "P 1"
_symmetry_int_tables_number       1

loop_
  _symmetry_equiv_pos_as_xyz
  'x, y, z'

loop_
  _atom_site_label
  _atom_site_occupancy
  _atom_site_fract_x
  _atom_site_fract_y
  _atom_site_fract_z
  _atom_site_thermal_displace_type
  _atom_site_B_iso_or_equiv
  _atom_site_type_symbol
  O1       1.0000 0.31630  0.75780  0.06350  Biso   1.000  O
  O2       1.0000 0.41280  0.76990  0.26280  Biso   1.000  O
  C1       1.0000 0.38090  0.75900  0.08800  Biso   1.000  C
  O3       1.0000 0.37630  0.73450  0.67870  Biso   1.000  O
  H1       1.0000 0.39800  0.75200  0.58100  Biso   1.000  H
  C2       1.0000 0.47610  0.68800  0.88700  Biso   1.000  C
  H2       1.0000 0.50630  0.69690  0.02120  Biso   1.000  H
  O4       1.0000 0.43830  0.62470  0.92640  Biso   1.000  O
  O5       1.0000 0.56940  0.62190  0.70860  Biso   1.000  O
  C3       1.0000 0.56880  0.74440  0.62600  Biso   1.000  C
  H3       1.0000 0.53800  0.78430  0.58900  Biso   1.000  H
  O6       1.0000 0.61330  0.72840  0.42550  Biso   1.000  O
  H4       1.0000 0.60500  0.74700  0.29800  Biso   1.000  H
  C4       1.0000 0.61560  0.76420  0.83000  Biso   1.000  C
  O7       1.0000 0.68220  0.75190  0.80530  Biso   1.000  O
  O8       1.0000 0.58700  0.78890  0.00880  Biso   1.000  O
  C5       1.0000 0.42490  0.75010  0.86200  Biso   1.000  C
  H5       1.0000 0.45090  0.79350  0.82770  Biso   1.000  H
  C6       1.0000 0.52340  0.67960  0.67500  Biso   1.000  C
  H6       1.0000 0.49380  0.67020  0.53970  Biso   1.000  H
  O9       1.0000 0.68370  0.24220  0.56350  Biso   1.000  O
  O10      1.0000 0.58720  0.23010  0.76280  Biso   1.000  O
  C7       1.0000 0.61910  0.24100  0.58800  Biso   1.000  C
  O11      1.0000 0.62370  0.26550  0.17870  Biso   1.000  O
  H7       1.0000 0.60200  0.24800  0.08100  Biso   1.000  H
  C8       1.0000 0.52390  0.31200  0.38700  Biso   1.000  C
  H8       1.0000 0.49370  0.30310  0.52120  Biso   1.000  H
  O12      1.0000 0.56170  0.37530  0.42640  Biso   1.000  O
  O13      1.0000 0.43060  0.37810  0.20860  Biso   1.000  O
  C9       1.0000 0.43120  0.25560  0.12600  Biso   1.000  C
  H9       1.0000 0.46200  0.21570  0.08900  Biso   1.000  H
  O14      1.0000 0.38670  0.27160  0.92550  Biso   1.000  O
  H10      1.0000 0.39500  0.25300  0.79800  Biso   1.000  H
  C10      1.0000 0.38440  0.23580  0.33000  Biso   1.000  C
  O15      1.0000 0.31780  0.24810  0.30530  Biso   1.000  O
  O16      1.0000 0.41300  0.21110  0.50880  Biso   1.000  O
  C11      1.0000 0.57510  0.24990  0.36200  Biso   1.000  C
  H11      1.0000 0.54910  0.20650  0.32770  Biso   1.000  H
  C12      1.0000 0.47660  0.32040  0.17500  Biso   1.000  C
  H12      1.0000 0.50620  0.32980  0.03970  Biso   1.000  H
  O17      1.0000 0.74220  0.81630  0.31350  Biso   1.000  O
  O18      1.0000 0.73010  0.91280  0.51280  Biso   1.000  O
  C13      1.0000 0.74100  0.88090  0.33800  Biso   1.000  C
  O19      1.0000 0.76550  0.87630  0.92870  Biso   1.000  O
  H13      1.0000 0.74800  0.89800  0.83100  Biso   1.000  H
  C14      1.0000 0.81200  0.97610  0.13700  Biso   1.000  C
  H14      1.0000 0.80310  0.00630  0.27120  Biso   1.000  H
  O20      1.0000 0.87530  0.93830  0.17640  Biso   1.000  O
  O21      1.0000 0.87810  0.06940  0.95860  Biso   1.000  O
  C15      1.0000 0.75560  0.06880  0.87600  Biso   1.000  C
  H15      1.0000 0.71570  0.03800  0.83900  Biso   1.000  H
  O22      1.0000 0.77160  0.11330  0.67550  Biso   1.000  O
  H16      1.0000 0.75300  0.10500  0.54800  Biso   1.000  H
  C16      1.0000 0.73580  0.11560  0.08000  Biso   1.000  C
  O23      1.0000 0.74810  0.18220  0.05530  Biso   1.000  O
  O24      1.0000 0.71110  0.08700  0.25880  Biso   1.000  O
  C17      1.0000 0.74990  0.92490  0.11200  Biso   1.000  C
  H17      1.0000 0.70650  0.95090  0.07770  Biso   1.000  H
  C18      1.0000 0.82040  0.02340  0.92500  Biso   1.000  C
  H18      1.0000 0.82980  0.99380  0.78970  Biso   1.000  H
  O25      1.0000 0.25780  0.18370  0.81350  Biso   1.000  O
  O26      1.0000 0.26990  0.08720  0.01280  Biso   1.000  O
  C19      1.0000 0.25900  0.11910  0.83800  Biso   1.000  C
  O27      1.0000 0.23450  0.12370  0.42870  Biso   1.000  O
  H19      1.0000 0.25200  0.10200  0.33100  Biso   1.000  H
  C20      1.0000 0.18800  0.02390  0.63700  Biso   1.000  C
  H20      1.0000 0.19690  0.99370  0.77120  Biso   1.000  H
  O28      1.0000 0.12470  0.06170  0.67640  Biso   1.000  O
  O29      1.0000 0.12190  0.93060  0.45860  Biso   1.000  O
  C21      1.0000 0.24440  0.93120  0.37600  Biso   1.000  C
  H21      1.0000 0.28430  0.96200  0.33900  Biso   1.000  H
  O30      1.0000 0.22840  0.88670  0.17550  Biso   1.000  O
  H22      1.0000 0.24700  0.89500  0.04800  Biso   1.000  H
  C22      1.0000 0.26420  0.88440  0.58000  Biso   1.000  C
  O31      1.0000 0.25190  0.81780  0.55530  Biso   1.000  O
  O32      1.0000 0.28890  0.91300  0.75880  Biso   1.000  O
  C23      1.0000 0.25010  0.07510  0.61200  Biso   1.000  C
  H23      1.0000 0.29350  0.04910  0.57770  Biso   1.000  H
  C24      1.0000 0.17960  0.97660  0.42500  Biso   1.000  C
  H24      1.0000 0.17020  0.00620  0.28970  Biso   1.000  H
  O33      1.0000 0.18370  0.25780  0.18650  Biso   1.000  O
  O34      1.0000 0.08720  0.26990  0.98720  Biso   1.000  O
  C25      1.0000 0.11910  0.25900  0.16200  Biso   1.000  C
  O35      1.0000 0.12370  0.23450  0.57130  Biso   1.000  O
  H25      1.0000 0.10200  0.25200  0.66900  Biso   1.000  H
  C26      1.0000 0.02390  0.18800  0.36300  Biso   1.000  C
  H26      1.0000 0.99370  0.19690  0.22880  Biso   1.000  H
  O36      1.0000 0.06170  0.12470  0.32360  Biso   1.000  O
  O37      1.0000 0.93060  0.12190  0.54140  Biso   1.000  O
  C27      1.0000 0.93120  0.24440  0.62400  Biso   1.000  C
  H27      1.0000 0.96200  0.28430  0.66100  Biso   1.000  H
  O38      1.0000 0.88670  0.22840  0.82450  Biso   1.000  O
  H28      1.0000 0.89500  0.24700  0.95200  Biso   1.000  H
  C28      1.0000 0.88440  0.26420  0.42000  Biso   1.000  C
  O39      1.0000 0.81780  0.25190  0.44470  Biso   1.000  O
  O40      1.0000 0.91300  0.28890  0.24120  Biso   1.000  O
  C29      1.0000 0.07510  0.25010  0.38800  Biso   1.000  C
  H29      1.0000 0.04910  0.29350  0.42230  Biso   1.000  H
  C30      1.0000 0.97660  0.17960  0.57500  Biso   1.000  C
  H30      1.0000 0.00620  0.17020  0.71030  Biso   1.000  H
  O41      1.0000 0.81630  0.74220  0.68650  Biso   1.000  O
  O42      1.0000 0.91280  0.73010  0.48720  Biso   1.000  O
  C31      1.0000 0.88090  0.74100  0.66200  Biso   1.000  C
  O43      1.0000 0.87630  0.76550  0.07130  Biso   1.000  O
  H31      1.0000 0.89800  0.74800  0.16900  Biso   1.000  H
  C32      1.0000 0.97610  0.81200  0.86300  Biso   1.000  C
  H32      1.0000 0.00630  0.80310  0.72880  Biso   1.000  H
  O44      1.0000 0.93830  0.87530  0.82360  Biso   1.000  O
  O45      1.0000 0.06940  0.87810  0.04140  Biso   1.000  O
  C33      1.0000 0.06880  0.75560  0.12400  Biso   1.000  C
  H33      1.0000 0.03800  0.71570  0.16100  Biso   1.000  H
  O46      1.0000 0.11330  0.77160  0.32450  Biso   1.000  O
  H34      1.0000 0.10500  0.75300  0.45200  Biso   1.000  H
  C34      1.0000 0.11560  0.73580  0.92000  Biso   1.000  C
  O47      1.0000 0.18220  0.74810  0.94470  Biso   1.000  O
  O48      1.0000 0.08700  0.71110  0.74120  Biso   1.000  O
  C35      1.0000 0.92490  0.74990  0.88800  Biso   1.000  C
  H35      1.0000 0.95090  0.70650  0.92230  Biso   1.000  H
  C36      1.0000 0.02340  0.82040  0.07500  Biso   1.000  C
  H36      1.0000 0.99380  0.82980  0.21030  Biso   1.000  H
  O49      1.0000 0.75780  0.31630  0.93650  Biso   1.000  O
  O50      1.0000 0.76990  0.41280  0.73720  Biso   1.000  O
  C37      1.0000 0.75900  0.38090  0.91200  Biso   1.000  C
  O51      1.0000 0.73450  0.37630  0.32130  Biso   1.000  O
  H37      1.0000 0.75200  0.39800  0.41900  Biso   1.000  H
  C38      1.0000 0.68800  0.47610  0.11300  Biso   1.000  C
  H38      1.0000 0.69690  0.50630  0.97880  Biso   1.000  H
  O52      1.0000 0.62470  0.43830  0.07360  Biso   1.000  O
  O53      1.0000 0.62190  0.56940  0.29140  Biso   1.000  O
  C39      1.0000 0.74440  0.56880  0.37400  Biso   1.000  C
  H39      1.0000 0.78430  0.53800  0.41100  Biso   1.000  H
  O54      1.0000 0.72840  0.61330  0.57450  Biso   1.000  O
  H40      1.0000 0.74700  0.60500  0.70200  Biso   1.000  H
  C40      1.0000 0.76420  0.61560  0.17000  Biso   1.000  C
  O55      1.0000 0.75190  0.68220  0.19470  Biso   1.000  O
  O56      1.0000 0.78890  0.58700  0.99120  Biso   1.000  O
  C41      1.0000 0.75010  0.42490  0.13800  Biso   1.000  C
  H41      1.0000 0.79350  0.45090  0.17230  Biso   1.000  H
  C42      1.0000 0.67960  0.52340  0.32500  Biso   1.000  C
  H42      1.0000 0.67020  0.49380  0.46030  Biso   1.000  H
  O57      1.0000 0.24220  0.68370  0.43650  Biso   1.000  O
  O58      1.0000 0.23010  0.58720  0.23720  Biso   1.000  O
  C43      1.0000 0.24100  0.61910  0.41200  Biso   1.000  C
  O59      1.0000 0.26550  0.62370  0.82130  Biso   1.000  O
  H43      1.0000 0.24800  0.60200  0.91900  Biso   1.000  H
  C44      1.0000 0.31200  0.52390  0.61300  Biso   1.000  C
  H44      1.0000 0.30310  0.49370  0.47880  Biso   1.000  H
  O60      1.0000 0.37530  0.56170  0.57360  Biso   1.000  O
  O61      1.0000 0.37810  0.43060  0.79140  Biso   1.000  O
  C45      1.0000 0.25560  0.43120  0.87400  Biso   1.000  C
  H45      1.0000 0.21570  0.46200  0.91100  Biso   1.000  H
  O62      1.0000 0.27160  0.38670  0.07450  Biso   1.000  O
  H46      1.0000 0.25300  0.39500  0.20200  Biso   1.000  H
  C46      1.0000 0.23580  0.38440  0.67000  Biso   1.000  C
  O63      1.0000 0.24810  0.31780  0.69470  Biso   1.000  O
  O64      1.0000 0.21110  0.41300  0.49120  Biso   1.000  O
  C47      1.0000 0.24990  0.57510  0.63800  Biso   1.000  C
  H47      1.0000 0.20650  0.54910  0.67230  Biso   1.000  H
  C48      1.0000 0.32040  0.47660  0.82500  Biso   1.000  C
  H48      1.0000 0.32980  0.50620  0.96030  Biso   1.000  H
  Zn1      1.0000 0.27031  0.72969  0.75000  Biso   1.000  Zn
  Zn2      1.0000 0.72969  0.27031  0.25000  Biso   1.000  Zn
  Zn3      1.0000 0.77031  0.77031  0.00000  Biso   1.000  Zn
  Zn4      1.0000 0.22969  0.22969  0.50000  Biso   1.000  Zn
  Zn5      1.0000 0.22180  0.77820  0.25000  Biso   1.000  Zn
  Zn6      1.0000 0.77820  0.22180  0.75000  Biso   1.000  Zn
  Zn7      1.0000 0.72180  0.72180  0.50000  Biso   1.000  Zn
  Zn8      1.0000 0.27820  0.27820  0.00000  Biso   1.000  Zn
