data_image0
_cell_length_a       15.7709
_cell_length_b       23.107
_cell_length_c       18.3269
_cell_angle_alpha    90
_cell_angle_beta     106.271
_cell_angle_gamma    90

_symmetry_space_group_name_H-M    "P 1"
_symmetry_int_tables_number       1

loop_
  _symmetry_equiv_pos_as_xyz
  'x, y, z'

loop_
  _atom_site_label
  _atom_site_occupancy
  _atom_site_fract_x
  _atom_site_fract_y
  _atom_site_fract_z
  _atom_site_thermal_displace_type
  _atom_site_B_iso_or_equiv
  _atom_site_type_symbol
  Ni1      1.0000 0.43689  0.70670  0.19277  Biso   1.000  Ni
  Ni2      1.0000 0.93806  0.57346  0.25169  Biso   1.000  Ni
  N1       1.0000 0.47130  0.64737  0.28320  Biso   1.000  N
  N2       1.0000 0.45390  0.57120  0.34970  Biso   1.000  N
  N3       1.0000 0.04150  0.51830  0.30580  Biso   1.000  N
  N4       1.0000 0.17650  0.48317  0.35210  Biso   1.000  N
  N5       1.0000 0.44570  0.42698  0.54090  Biso   1.000  N
  N6       1.0000 0.83620  0.62290  0.18390  Biso   1.000  N
  N7       1.0000 0.75770  0.66650  0.07920  Biso   1.000  N
  N8       1.0000 0.88830  0.73275  0.75700  Biso   1.000  N
  N9       1.0000 0.81330  0.69994  0.83350  Biso   1.000  N
  N10      1.0000 0.48000  0.85923  0.82900  Biso   1.000  N
  N11      1.0000 0.55930  0.78494  0.88850  Biso   1.000  N
  C1       1.0000 0.45090  0.49740  0.44400  Biso   1.000  C
  H1       1.0000 0.51120  0.50210  0.46580  Biso   1.000  H
  C2       1.0000 0.40740  0.52880  0.38090  Biso   1.000  C
  C3       1.0000 0.31730  0.52070  0.34710  Biso   1.000  C
  H2       1.0000 0.28910  0.53990  0.30230  Biso   1.000  H
  C4       1.0000 0.27080  0.48460  0.38010  Biso   1.000  C
  C5       1.0000 0.31200  0.45200  0.44390  Biso   1.000  C
  H3       1.0000 0.27990  0.42680  0.46540  Biso   1.000  H
  C6       1.0000 0.40260  0.45830  0.47470  Biso   1.000  C
  C7       1.0000 0.54170  0.58630  0.37420  Biso   1.000  C
  H4       1.0000 0.58570  0.56830  0.41200  Biso   1.000  H
  C8       1.0000 0.55110  0.63260  0.33200  Biso   1.000  C
  H5       1.0000 0.60410  0.65150  0.33560  Biso   1.000  H
  C9       1.0000 0.41570  0.61040  0.29560  Biso   1.000  C
  H6       1.0000 0.35580  0.61070  0.27000  Biso   1.000  H
  C10      1.0000 0.12570  0.52950  0.31910  Biso   1.000  C
  H7       1.0000 0.14820  0.56440  0.30750  Biso   1.000  H
  C11      1.0000 0.03750  0.46310  0.33290  Biso   1.000  C
  H8       1.0000 0.98570  0.44370  0.33250  Biso   1.000  H
  C12      1.0000 0.11860  0.44140  0.35990  Biso   1.000  C
  H9       1.0000 0.13300  0.40470  0.38020  Biso   1.000  H
  C13      1.0000 0.52420  0.44080  0.59330  Biso   1.000  C
  H10      1.0000 0.56030  0.47240  0.59210  Biso   1.000  H
  C14      1.0000 0.41950  0.37560  0.56350  Biso   1.000  C
  H11      1.0000 0.36880  0.35590  0.53700  Biso   1.000  H
  N12      1.0000 0.47370  0.35730  0.62670  Biso   1.000  N
  C15      1.0000 0.53830  0.39850  0.64750  Biso   1.000  C
  H12      1.0000 0.58410  0.39170  0.70100  Biso   1.000  H
  C16      1.0000 0.73140  0.68750  0.00380  Biso   1.000  C
  C17      1.0000 0.78320  0.67810  0.95520  Biso   1.000  C
  H13      1.0000 0.83430  0.65590  0.97060  Biso   1.000  H
  C18      1.0000 0.75730  0.70240  0.88280  Biso   1.000  C
  C19      1.0000 0.67970  0.73430  0.85760  Biso   1.000  C
  H14      1.0000 0.66030  0.74750  0.80770  Biso   1.000  H
  C20      1.0000 0.63230  0.74580  0.90950  Biso   1.000  C
  C21      1.0000 0.65630  0.72190  0.98180  Biso   1.000  C
  H15      1.0000 0.62250  0.72880  0.01510  Biso   1.000  H
  C22      1.0000 0.82440  0.62970  0.11080  Biso   1.000  C
  H16      1.0000 0.85830  0.61130  0.08360  Biso   1.000  H
  C23      1.0000 0.72950  0.68670  0.13920  Biso   1.000  C
  H17      1.0000 0.68580  0.71410  0.13720  Biso   1.000  H
  C24      1.0000 0.77820  0.65860  0.20180  Biso   1.000  C
  H18      1.0000 0.77220  0.66340  0.25050  Biso   1.000  H
  C25      1.0000 0.87470  0.65840  0.83100  Biso   1.000  C
  H19      1.0000 0.88380  0.62320  0.85660  Biso   1.000  H
  C26      1.0000 0.91910  0.67930  0.78360  Biso   1.000  C
  H20      1.0000 0.96460  0.66000  0.77080  Biso   1.000  H
  C27      1.0000 0.82530  0.74250  0.78870  Biso   1.000  C
  H21      1.0000 0.79180  0.77630  0.78070  Biso   1.000  H
  C28      1.0000 0.54520  0.82320  0.82960  Biso   1.000  C
  H22      1.0000 0.57750  0.82390  0.79420  Biso   1.000  H
  C29      1.0000 0.45190  0.84340  0.89120  Biso   1.000  C
  H23      1.0000 0.40600  0.86110  0.90550  Biso   1.000  H
  C30      1.0000 0.49970  0.79950  0.92760  Biso   1.000  C
  H24      1.0000 0.49390  0.78180  0.97150  Biso   1.000  H
  Ni3      1.0000 0.93689  0.20670  0.19277  Biso   1.000  Ni
  Ni4      1.0000 0.43806  0.07346  0.25169  Biso   1.000  Ni
  N13      1.0000 0.97130  0.14737  0.28320  Biso   1.000  N
  N14      1.0000 0.95390  0.07120  0.34970  Biso   1.000  N
  N15      1.0000 0.54150  0.01830  0.30580  Biso   1.000  N
  N16      1.0000 0.67650  0.98317  0.35210  Biso   1.000  N
  N17      1.0000 0.94570  0.92698  0.54090  Biso   1.000  N
  N18      1.0000 0.33620  0.12290  0.18390  Biso   1.000  N
  N19      1.0000 0.25770  0.16650  0.07920  Biso   1.000  N
  N20      1.0000 0.38830  0.23275  0.75700  Biso   1.000  N
  N21      1.0000 0.31330  0.19994  0.83350  Biso   1.000  N
  N22      1.0000 0.98000  0.35923  0.82900  Biso   1.000  N
  N23      1.0000 0.05930  0.28494  0.88850  Biso   1.000  N
  C31      1.0000 0.95090  0.99740  0.44400  Biso   1.000  C
  H25      1.0000 0.01120  0.00210  0.46580  Biso   1.000  H
  C32      1.0000 0.90740  0.02880  0.38090  Biso   1.000  C
  C33      1.0000 0.81730  0.02070  0.34710  Biso   1.000  C
  H26      1.0000 0.78910  0.03990  0.30230  Biso   1.000  H
  C34      1.0000 0.77080  0.98460  0.38010  Biso   1.000  C
  C35      1.0000 0.81200  0.95200  0.44390  Biso   1.000  C
  H27      1.0000 0.77990  0.92680  0.46540  Biso   1.000  H
  C36      1.0000 0.90260  0.95830  0.47470  Biso   1.000  C
  C37      1.0000 0.04170  0.08630  0.37420  Biso   1.000  C
  H28      1.0000 0.08570  0.06830  0.41200  Biso   1.000  H
  C38      1.0000 0.05110  0.13260  0.33200  Biso   1.000  C
  H29      1.0000 0.10410  0.15150  0.33560  Biso   1.000  H
  C39      1.0000 0.91570  0.11040  0.29560  Biso   1.000  C
  H30      1.0000 0.85580  0.11070  0.27000  Biso   1.000  H
  C40      1.0000 0.62570  0.02950  0.31910  Biso   1.000  C
  H31      1.0000 0.64820  0.06440  0.30750  Biso   1.000  H
  C41      1.0000 0.53750  0.96310  0.33290  Biso   1.000  C
  H32      1.0000 0.48570  0.94370  0.33250  Biso   1.000  H
  C42      1.0000 0.61860  0.94140  0.35990  Biso   1.000  C
  H33      1.0000 0.63300  0.90470  0.38020  Biso   1.000  H
  C43      1.0000 0.02420  0.94080  0.59330  Biso   1.000  C
  H34      1.0000 0.06030  0.97240  0.59210  Biso   1.000  H
  C44      1.0000 0.91950  0.87560  0.56350  Biso   1.000  C
  H35      1.0000 0.86880  0.85590  0.53700  Biso   1.000  H
  N24      1.0000 0.97370  0.85730  0.62670  Biso   1.000  N
  C45      1.0000 0.03830  0.89850  0.64750  Biso   1.000  C
  H36      1.0000 0.08410  0.89170  0.70100  Biso   1.000  H
  C46      1.0000 0.23140  0.18750  0.00380  Biso   1.000  C
  C47      1.0000 0.28320  0.17810  0.95520  Biso   1.000  C
  H37      1.0000 0.33430  0.15590  0.97060  Biso   1.000  H
  C48      1.0000 0.25730  0.20240  0.88280  Biso   1.000  C
  C49      1.0000 0.17970  0.23430  0.85760  Biso   1.000  C
  H38      1.0000 0.16030  0.24750  0.80770  Biso   1.000  H
  C50      1.0000 0.13230  0.24580  0.90950  Biso   1.000  C
  C51      1.0000 0.15630  0.22190  0.98180  Biso   1.000  C
  H39      1.0000 0.12250  0.22880  0.01510  Biso   1.000  H
  C52      1.0000 0.32440  0.12970  0.11080  Biso   1.000  C
  H40      1.0000 0.35830  0.11130  0.08360  Biso   1.000  H
  C53      1.0000 0.22950  0.18670  0.13920  Biso   1.000  C
  H41      1.0000 0.18580  0.21410  0.13720  Biso   1.000  H
  C54      1.0000 0.27820  0.15860  0.20180  Biso   1.000  C
  H42      1.0000 0.27220  0.16340  0.25050  Biso   1.000  H
  C55      1.0000 0.37470  0.15840  0.83100  Biso   1.000  C
  H43      1.0000 0.38380  0.12320  0.85660  Biso   1.000  H
  C56      1.0000 0.41910  0.17930  0.78360  Biso   1.000  C
  H44      1.0000 0.46460  0.16000  0.77080  Biso   1.000  H
  C57      1.0000 0.32530  0.24250  0.78870  Biso   1.000  C
  H45      1.0000 0.29180  0.27630  0.78070  Biso   1.000  H
  C58      1.0000 0.04520  0.32320  0.82960  Biso   1.000  C
  H46      1.0000 0.07750  0.32390  0.79420  Biso   1.000  H
  C59      1.0000 0.95190  0.34340  0.89120  Biso   1.000  C
  H47      1.0000 0.90600  0.36110  0.90550  Biso   1.000  H
  C60      1.0000 0.99970  0.29950  0.92760  Biso   1.000  C
  H48      1.0000 0.99390  0.28180  0.97150  Biso   1.000  H
  Ni5      1.0000 0.43689  0.29330  0.69277  Biso   1.000  Ni
  Ni6      1.0000 0.93806  0.42654  0.75169  Biso   1.000  Ni
  N25      1.0000 0.47130  0.35263  0.78320  Biso   1.000  N
  N26      1.0000 0.45390  0.42880  0.84970  Biso   1.000  N
  N27      1.0000 0.04150  0.48170  0.80580  Biso   1.000  N
  N28      1.0000 0.17650  0.51683  0.85210  Biso   1.000  N
  N29      1.0000 0.44570  0.57302  0.04090  Biso   1.000  N
  N30      1.0000 0.83620  0.37710  0.68390  Biso   1.000  N
  N31      1.0000 0.75770  0.33350  0.57920  Biso   1.000  N
  N32      1.0000 0.88830  0.26725  0.25700  Biso   1.000  N
  N33      1.0000 0.81330  0.30006  0.33350  Biso   1.000  N
  N34      1.0000 0.48000  0.14077  0.32900  Biso   1.000  N
  N35      1.0000 0.55930  0.21506  0.38850  Biso   1.000  N
  C61      1.0000 0.45090  0.50260  0.94400  Biso   1.000  C
  H49      1.0000 0.51120  0.49790  0.96580  Biso   1.000  H
  C62      1.0000 0.40740  0.47120  0.88090  Biso   1.000  C
  C63      1.0000 0.31730  0.47930  0.84710  Biso   1.000  C
  H50      1.0000 0.28910  0.46010  0.80230  Biso   1.000  H
  C64      1.0000 0.27080  0.51540  0.88010  Biso   1.000  C
  C65      1.0000 0.31200  0.54800  0.94390  Biso   1.000  C
  H51      1.0000 0.27990  0.57320  0.96540  Biso   1.000  H
  C66      1.0000 0.40260  0.54170  0.97470  Biso   1.000  C
  C67      1.0000 0.54170  0.41370  0.87420  Biso   1.000  C
  H52      1.0000 0.58570  0.43170  0.91200  Biso   1.000  H
  C68      1.0000 0.55110  0.36740  0.83200  Biso   1.000  C
  H53      1.0000 0.60410  0.34850  0.83560  Biso   1.000  H
  C69      1.0000 0.41570  0.38960  0.79560  Biso   1.000  C
  H54      1.0000 0.35580  0.38930  0.77000  Biso   1.000  H
  C70      1.0000 0.12570  0.47050  0.81910  Biso   1.000  C
  H55      1.0000 0.14820  0.43560  0.80750  Biso   1.000  H
  C71      1.0000 0.03750  0.53690  0.83290  Biso   1.000  C
  H56      1.0000 0.98570  0.55630  0.83250  Biso   1.000  H
  C72      1.0000 0.11860  0.55860  0.85990  Biso   1.000  C
  H57      1.0000 0.13300  0.59530  0.88020  Biso   1.000  H
  C73      1.0000 0.52420  0.55920  0.09330  Biso   1.000  C
  H58      1.0000 0.56030  0.52760  0.09210  Biso   1.000  H
  C74      1.0000 0.41950  0.62440  0.06350  Biso   1.000  C
  H59      1.0000 0.36880  0.64410  0.03700  Biso   1.000  H
  N36      1.0000 0.47370  0.64270  0.12670  Biso   1.000  N
  C75      1.0000 0.53830  0.60150  0.14750  Biso   1.000  C
  H60      1.0000 0.58410  0.60830  0.20100  Biso   1.000  H
  C76      1.0000 0.73140  0.31250  0.50380  Biso   1.000  C
  C77      1.0000 0.78320  0.32190  0.45520  Biso   1.000  C
  H61      1.0000 0.83430  0.34410  0.47060  Biso   1.000  H
  C78      1.0000 0.75730  0.29760  0.38280  Biso   1.000  C
  C79      1.0000 0.67970  0.26570  0.35760  Biso   1.000  C
  H62      1.0000 0.66030  0.25250  0.30770  Biso   1.000  H
  C80      1.0000 0.63230  0.25420  0.40950  Biso   1.000  C
  C81      1.0000 0.65630  0.27810  0.48180  Biso   1.000  C
  H63      1.0000 0.62250  0.27120  0.51510  Biso   1.000  H
  C82      1.0000 0.82440  0.37030  0.61080  Biso   1.000  C
  H64      1.0000 0.85830  0.38870  0.58360  Biso   1.000  H
  C83      1.0000 0.72950  0.31330  0.63920  Biso   1.000  C
  H65      1.0000 0.68580  0.28590  0.63720  Biso   1.000  H
  C84      1.0000 0.77820  0.34140  0.70180  Biso   1.000  C
  H66      1.0000 0.77220  0.33660  0.75050  Biso   1.000  H
  C85      1.0000 0.87470  0.34160  0.33100  Biso   1.000  C
  H67      1.0000 0.88380  0.37680  0.35660  Biso   1.000  H
  C86      1.0000 0.91910  0.32070  0.28360  Biso   1.000  C
  H68      1.0000 0.96460  0.34000  0.27080  Biso   1.000  H
  C87      1.0000 0.82530  0.25750  0.28870  Biso   1.000  C
  H69      1.0000 0.79180  0.22370  0.28070  Biso   1.000  H
  C88      1.0000 0.54520  0.17680  0.32960  Biso   1.000  C
  H70      1.0000 0.57750  0.17610  0.29420  Biso   1.000  H
  C89      1.0000 0.45190  0.15660  0.39120  Biso   1.000  C
  H71      1.0000 0.40600  0.13890  0.40550  Biso   1.000  H
  C90      1.0000 0.49970  0.20050  0.42760  Biso   1.000  C
  H72      1.0000 0.49390  0.21820  0.47150  Biso   1.000  H
  Ni7      1.0000 0.93689  0.79330  0.69277  Biso   1.000  Ni
  Ni8      1.0000 0.43806  0.92654  0.75169  Biso   1.000  Ni
  N37      1.0000 0.97130  0.85263  0.78320  Biso   1.000  N
  N38      1.0000 0.95390  0.92880  0.84970  Biso   1.000  N
  N39      1.0000 0.54150  0.98170  0.80580  Biso   1.000  N
  N40      1.0000 0.67650  0.01683  0.85210  Biso   1.000  N
  N41      1.0000 0.94570  0.07302  0.04090  Biso   1.000  N
  N42      1.0000 0.33620  0.87710  0.68390  Biso   1.000  N
  N43      1.0000 0.25770  0.83350  0.57920  Biso   1.000  N
  N44      1.0000 0.38830  0.76725  0.25700  Biso   1.000  N
  N45      1.0000 0.31330  0.80006  0.33350  Biso   1.000  N
  N46      1.0000 0.98000  0.64077  0.32900  Biso   1.000  N
  N47      1.0000 0.05930  0.71506  0.38850  Biso   1.000  N
  C91      1.0000 0.95090  0.00260  0.94400  Biso   1.000  C
  H73      1.0000 0.01120  0.99790  0.96580  Biso   1.000  H
  C92      1.0000 0.90740  0.97120  0.88090  Biso   1.000  C
  C93      1.0000 0.81730  0.97930  0.84710  Biso   1.000  C
  H74      1.0000 0.78910  0.96010  0.80230  Biso   1.000  H
  C94      1.0000 0.77080  0.01540  0.88010  Biso   1.000  C
  C95      1.0000 0.81200  0.04800  0.94390  Biso   1.000  C
  H75      1.0000 0.77990  0.07320  0.96540  Biso   1.000  H
  C96      1.0000 0.90260  0.04170  0.97470  Biso   1.000  C
  C97      1.0000 0.04170  0.91370  0.87420  Biso   1.000  C
  H76      1.0000 0.08570  0.93170  0.91200  Biso   1.000  H
  C98      1.0000 0.05110  0.86740  0.83200  Biso   1.000  C
  H77      1.0000 0.10410  0.84850  0.83560  Biso   1.000  H
  C99      1.0000 0.91570  0.88960  0.79560  Biso   1.000  C
  H78      1.0000 0.85580  0.88930  0.77000  Biso   1.000  H
  C100     1.0000 0.62570  0.97050  0.81910  Biso   1.000  C
  H79      1.0000 0.64820  0.93560  0.80750  Biso   1.000  H
  C101     1.0000 0.53750  0.03690  0.83290  Biso   1.000  C
  H80      1.0000 0.48570  0.05630  0.83250  Biso   1.000  H
  C102     1.0000 0.61860  0.05860  0.85990  Biso   1.000  C
  H81      1.0000 0.63300  0.09530  0.88020  Biso   1.000  H
  C103     1.0000 0.02420  0.05920  0.09330  Biso   1.000  C
  H82      1.0000 0.06030  0.02760  0.09210  Biso   1.000  H
  C104     1.0000 0.91950  0.12440  0.06350  Biso   1.000  C
  H83      1.0000 0.86880  0.14410  0.03700  Biso   1.000  H
  N48      1.0000 0.97370  0.14270  0.12670  Biso   1.000  N
  C105     1.0000 0.03830  0.10150  0.14750  Biso   1.000  C
  H84      1.0000 0.08410  0.10830  0.20100  Biso   1.000  H
  C106     1.0000 0.23140  0.81250  0.50380  Biso   1.000  C
  C107     1.0000 0.28320  0.82190  0.45520  Biso   1.000  C
  H85      1.0000 0.33430  0.84410  0.47060  Biso   1.000  H
  C108     1.0000 0.25730  0.79760  0.38280  Biso   1.000  C
  C109     1.0000 0.17970  0.76570  0.35760  Biso   1.000  C
  H86      1.0000 0.16030  0.75250  0.30770  Biso   1.000  H
  C110     1.0000 0.13230  0.75420  0.40950  Biso   1.000  C
  C111     1.0000 0.15630  0.77810  0.48180  Biso   1.000  C
  H87      1.0000 0.12250  0.77120  0.51510  Biso   1.000  H
  C112     1.0000 0.32440  0.87030  0.61080  Biso   1.000  C
  H88      1.0000 0.35830  0.88870  0.58360  Biso   1.000  H
  C113     1.0000 0.22950  0.81330  0.63920  Biso   1.000  C
  H89      1.0000 0.18580  0.78590  0.63720  Biso   1.000  H
  C114     1.0000 0.27820  0.84140  0.70180  Biso   1.000  C
  H90      1.0000 0.27220  0.83660  0.75050  Biso   1.000  H
  C115     1.0000 0.37470  0.84160  0.33100  Biso   1.000  C
  H91      1.0000 0.38380  0.87680  0.35660  Biso   1.000  H
  C116     1.0000 0.41910  0.82070  0.28360  Biso   1.000  C
  H92      1.0000 0.46460  0.84000  0.27080  Biso   1.000  H
  C117     1.0000 0.32530  0.75750  0.28870  Biso   1.000  C
  H93      1.0000 0.29180  0.72370  0.28070  Biso   1.000  H
  C118     1.0000 0.04520  0.67680  0.32960  Biso   1.000  C
  H94      1.0000 0.07750  0.67610  0.29420  Biso   1.000  H
  C119     1.0000 0.95190  0.65660  0.39120  Biso   1.000  C
  H95      1.0000 0.90600  0.63890  0.40550  Biso   1.000  H
  C120     1.0000 0.99970  0.70050  0.42760  Biso   1.000  C
  H96      1.0000 0.99390  0.71820  0.47150  Biso   1.000  H
