data_image0
_cell_length_a       15.802
_cell_length_b       23.455
_cell_length_c       18.506
_cell_angle_alpha    90
_cell_angle_beta     105.896
_cell_angle_gamma    90

_symmetry_space_group_name_H-M    "P 1"
_symmetry_int_tables_number       1

loop_
  _symmetry_equiv_pos_as_xyz
  'x, y, z'

loop_
  _atom_site_label
  _atom_site_occupancy
  _atom_site_fract_x
  _atom_site_fract_y
  _atom_site_fract_z
  _atom_site_thermal_displace_type
  _atom_site_B_iso_or_equiv
  _atom_site_type_symbol
  Mn1      1.0000 0.60168  0.56996  0.84232  Biso   1.000  Mn
  Mn2      1.0000 0.10070  0.70960  0.90401  Biso   1.000  Mn
  N1       1.0000 0.56030  0.64170  0.75850  Biso   1.000  N
  N2       1.0000 0.48180  0.71480  0.70240  Biso   1.000  N
  N3       1.0000 0.15830  0.77200  0.83790  Biso   1.000  N
  N4       1.0000 0.23240  0.80110  0.75910  Biso   1.000  N
  N5       1.0000 0.20980  0.87740  0.41450  Biso   1.000  N
  N6       1.0000 0.28570  0.83220  0.51510  Biso   1.000  N
  N7       1.0000 0.48910  0.51220  0.78850  Biso   1.000  N
  N8       1.0000 0.35330  0.48090  0.74290  Biso   1.000  N
  N9       1.0000 0.06110  0.64780  0.80700  Biso   1.000  N
  N10      1.0000 0.07920  0.57180  0.74230  Biso   1.000  N
  N11      1.0000 0.05880  0.36100  0.46890  Biso   1.000  N
  N12      1.0000 0.08700  0.43030  0.55230  Biso   1.000  N
  C1       1.0000 0.38670  0.77660  0.61090  Biso   1.000  C
  H1       1.0000 0.41920  0.76880  0.57710  Biso   1.000  H
  C2       1.0000 0.41070  0.75350  0.68260  Biso   1.000  C
  C3       1.0000 0.36320  0.76480  0.73300  Biso   1.000  C
  H2       1.0000 0.38180  0.75090  0.78190  Biso   1.000  H
  C4       1.0000 0.28810  0.79700  0.71020  Biso   1.000  C
  C5       1.0000 0.26150  0.82140  0.63900  Biso   1.000  C
  H3       1.0000 0.21080  0.84340  0.62430  Biso   1.000  H
  C6       1.0000 0.31320  0.81170  0.59070  Biso   1.000  C
  C7       1.0000 0.54240  0.70150  0.66350  Biso   1.000  C
  H4       1.0000 0.54910  0.71970  0.62070  Biso   1.000  H
  C8       1.0000 0.58940  0.65780  0.69910  Biso   1.000  C
  H5       1.0000 0.63570  0.64060  0.68520  Biso   1.000  H
  C9       1.0000 0.49740  0.67690  0.75990  Biso   1.000  C
  H6       1.0000 0.46660  0.67620  0.79610  Biso   1.000  H
  C10      1.0000 0.31010  0.81130  0.45450  Biso   1.000  C
  H7       1.0000 0.35100  0.78260  0.45540  Biso   1.000  H
  C11      1.0000 0.26490  0.83930  0.39470  Biso   1.000  C
  H8       1.0000 0.26980  0.83400  0.34620  Biso   1.000  H
  C12      1.0000 0.22010  0.86860  0.48480  Biso   1.000  C
  H9       1.0000 0.18560  0.88570  0.51200  Biso   1.000  H
  C13      1.0000 0.21930  0.76010  0.80490  Biso   1.000  C
  H10      1.0000 0.25080  0.72610  0.81260  Biso   1.000  H
  C14      1.0000 0.17460  0.84360  0.76320  Biso   1.000  C
  H11      1.0000 0.16690  0.87830  0.73790  Biso   1.000  H
  C15      1.0000 0.13110  0.82450  0.81170  Biso   1.000  C
  H12      1.0000 0.08750  0.84500  0.82550  Biso   1.000  H
  C16      1.0000 0.21990  0.45290  0.64980  Biso   1.000  C
  H13      1.0000 0.25170  0.42770  0.62860  Biso   1.000  H
  C17      1.0000 0.26010  0.48410  0.71410  Biso   1.000  C
  C18      1.0000 0.21380  0.52070  0.74640  Biso   1.000  C
  H14      1.0000 0.24140  0.53930  0.79100  Biso   1.000  H
  C19      1.0000 0.12560  0.52960  0.71220  Biso   1.000  C
  C20      1.0000 0.08200  0.49960  0.64840  Biso   1.000  C
  H15      1.0000 0.02220  0.50520  0.62630  Biso   1.000  H
  C21      1.0000 0.12950  0.46130  0.61840  Biso   1.000  C
  C22      1.0000 0.40660  0.52420  0.77710  Biso   1.000  C
  H16      1.0000 0.38610  0.55860  0.79090  Biso   1.000  H
  C23      1.0000 0.49080  0.45790  0.76090  Biso   1.000  C
  H17      1.0000 0.54150  0.43740  0.76200  Biso   1.000  H
  C24      1.0000 0.40900  0.43890  0.73240  Biso   1.000  C
  H18      1.0000 0.39270  0.40380  0.70960  Biso   1.000  H
  C25      1.0000 0.11650  0.61010  0.79530  Biso   1.000  C
  H19      1.0000 0.17600  0.60980  0.82110  Biso   1.000  H
  C26      1.0000 0.98300  0.63340  0.75880  Biso   1.000  C
  H20      1.0000 0.93050  0.65290  0.75400  Biso   1.000  H
  C27      1.0000 0.99150  0.58660  0.71830  Biso   1.000  C
  H21      1.0000 0.94750  0.56830  0.68190  Biso   1.000  H
  C28      1.0000 0.11210  0.37850  0.53360  Biso   1.000  C
  H22      1.0000 0.16000  0.35800  0.56210  Biso   1.000  H
  C29      1.0000 0.99830  0.40420  0.44630  Biso   1.000  C
  H23      1.0000 0.95310  0.40430  0.40180  Biso   1.000  H
  C30      1.0000 0.01420  0.44670  0.49840  Biso   1.000  C
  H24      1.0000 0.98190  0.48000  0.49730  Biso   1.000  H
  Mn3      1.0000 0.10168  0.06996  0.84232  Biso   1.000  Mn
  Mn4      1.0000 0.60070  0.20960  0.90401  Biso   1.000  Mn
  N13      1.0000 0.06030  0.14170  0.75850  Biso   1.000  N
  N14      1.0000 0.98180  0.21480  0.70240  Biso   1.000  N
  N15      1.0000 0.65830  0.27200  0.83790  Biso   1.000  N
  N16      1.0000 0.73240  0.30110  0.75910  Biso   1.000  N
  N17      1.0000 0.70980  0.37740  0.41450  Biso   1.000  N
  N18      1.0000 0.78570  0.33220  0.51510  Biso   1.000  N
  N19      1.0000 0.98910  0.01220  0.78850  Biso   1.000  N
  N20      1.0000 0.85330  0.98090  0.74290  Biso   1.000  N
  N21      1.0000 0.56110  0.14780  0.80700  Biso   1.000  N
  N22      1.0000 0.57920  0.07180  0.74230  Biso   1.000  N
  N23      1.0000 0.55880  0.86100  0.46890  Biso   1.000  N
  N24      1.0000 0.58700  0.93030  0.55230  Biso   1.000  N
  C31      1.0000 0.88670  0.27660  0.61090  Biso   1.000  C
  H25      1.0000 0.91920  0.26880  0.57710  Biso   1.000  H
  C32      1.0000 0.91070  0.25350  0.68260  Biso   1.000  C
  C33      1.0000 0.86320  0.26480  0.73300  Biso   1.000  C
  H26      1.0000 0.88180  0.25090  0.78190  Biso   1.000  H
  C34      1.0000 0.78810  0.29700  0.71020  Biso   1.000  C
  C35      1.0000 0.76150  0.32140  0.63900  Biso   1.000  C
  H27      1.0000 0.71080  0.34340  0.62430  Biso   1.000  H
  C36      1.0000 0.81320  0.31170  0.59070  Biso   1.000  C
  C37      1.0000 0.04240  0.20150  0.66350  Biso   1.000  C
  H28      1.0000 0.04910  0.21970  0.62070  Biso   1.000  H
  C38      1.0000 0.08940  0.15780  0.69910  Biso   1.000  C
  H29      1.0000 0.13570  0.14060  0.68520  Biso   1.000  H
  C39      1.0000 0.99740  0.17690  0.75990  Biso   1.000  C
  H30      1.0000 0.96660  0.17620  0.79610  Biso   1.000  H
  C40      1.0000 0.81010  0.31130  0.45450  Biso   1.000  C
  H31      1.0000 0.85100  0.28260  0.45540  Biso   1.000  H
  C41      1.0000 0.76490  0.33930  0.39470  Biso   1.000  C
  H32      1.0000 0.76980  0.33400  0.34620  Biso   1.000  H
  C42      1.0000 0.72010  0.36860  0.48480  Biso   1.000  C
  H33      1.0000 0.68560  0.38570  0.51200  Biso   1.000  H
  C43      1.0000 0.71930  0.26010  0.80490  Biso   1.000  C
  H34      1.0000 0.75080  0.22610  0.81260  Biso   1.000  H
  C44      1.0000 0.67460  0.34360  0.76320  Biso   1.000  C
  H35      1.0000 0.66690  0.37830  0.73790  Biso   1.000  H
  C45      1.0000 0.63110  0.32450  0.81170  Biso   1.000  C
  H36      1.0000 0.58750  0.34500  0.82550  Biso   1.000  H
  C46      1.0000 0.71990  0.95290  0.64980  Biso   1.000  C
  H37      1.0000 0.75170  0.92770  0.62860  Biso   1.000  H
  C47      1.0000 0.76010  0.98410  0.71410  Biso   1.000  C
  C48      1.0000 0.71380  0.02070  0.74640  Biso   1.000  C
  H38      1.0000 0.74140  0.03930  0.79100  Biso   1.000  H
  C49      1.0000 0.62560  0.02960  0.71220  Biso   1.000  C
  C50      1.0000 0.58200  0.99960  0.64840  Biso   1.000  C
  H39      1.0000 0.52220  0.00520  0.62630  Biso   1.000  H
  C51      1.0000 0.62950  0.96130  0.61840  Biso   1.000  C
  C52      1.0000 0.90660  0.02420  0.77710  Biso   1.000  C
  H40      1.0000 0.88610  0.05860  0.79090  Biso   1.000  H
  C53      1.0000 0.99080  0.95790  0.76090  Biso   1.000  C
  H41      1.0000 0.04150  0.93740  0.76200  Biso   1.000  H
  C54      1.0000 0.90900  0.93890  0.73240  Biso   1.000  C
  H42      1.0000 0.89270  0.90380  0.70960  Biso   1.000  H
  C55      1.0000 0.61650  0.11010  0.79530  Biso   1.000  C
  H43      1.0000 0.67600  0.10980  0.82110  Biso   1.000  H
  C56      1.0000 0.48300  0.13340  0.75880  Biso   1.000  C
  H44      1.0000 0.43050  0.15290  0.75400  Biso   1.000  H
  C57      1.0000 0.49150  0.08660  0.71830  Biso   1.000  C
  H45      1.0000 0.44750  0.06830  0.68190  Biso   1.000  H
  C58      1.0000 0.61210  0.87850  0.53360  Biso   1.000  C
  H46      1.0000 0.66000  0.85800  0.56210  Biso   1.000  H
  C59      1.0000 0.49830  0.90420  0.44630  Biso   1.000  C
  H47      1.0000 0.45310  0.90430  0.40180  Biso   1.000  H
  C60      1.0000 0.51420  0.94670  0.49840  Biso   1.000  C
  H48      1.0000 0.48190  0.98000  0.49730  Biso   1.000  H
  Mn5      1.0000 0.60168  0.43004  0.34232  Biso   1.000  Mn
  Mn6      1.0000 0.10070  0.29040  0.40401  Biso   1.000  Mn
  N25      1.0000 0.56030  0.35830  0.25850  Biso   1.000  N
  N26      1.0000 0.48180  0.28520  0.20240  Biso   1.000  N
  N27      1.0000 0.15830  0.22800  0.33790  Biso   1.000  N
  N28      1.0000 0.23240  0.19890  0.25910  Biso   1.000  N
  N29      1.0000 0.20980  0.12260  0.91450  Biso   1.000  N
  N30      1.0000 0.28570  0.16780  0.01510  Biso   1.000  N
  N31      1.0000 0.48910  0.48780  0.28850  Biso   1.000  N
  N32      1.0000 0.35330  0.51910  0.24290  Biso   1.000  N
  N33      1.0000 0.06110  0.35220  0.30700  Biso   1.000  N
  N34      1.0000 0.07920  0.42820  0.24230  Biso   1.000  N
  N35      1.0000 0.05880  0.63900  0.96890  Biso   1.000  N
  N36      1.0000 0.08700  0.56970  0.05230  Biso   1.000  N
  C61      1.0000 0.38670  0.22340  0.11090  Biso   1.000  C
  H49      1.0000 0.41920  0.23120  0.07710  Biso   1.000  H
  C62      1.0000 0.41070  0.24650  0.18260  Biso   1.000  C
  C63      1.0000 0.36320  0.23520  0.23300  Biso   1.000  C
  H50      1.0000 0.38180  0.24910  0.28190  Biso   1.000  H
  C64      1.0000 0.28810  0.20300  0.21020  Biso   1.000  C
  C65      1.0000 0.26150  0.17860  0.13900  Biso   1.000  C
  H51      1.0000 0.21080  0.15660  0.12430  Biso   1.000  H
  C66      1.0000 0.31320  0.18830  0.09070  Biso   1.000  C
  C67      1.0000 0.54240  0.29850  0.16350  Biso   1.000  C
  H52      1.0000 0.54910  0.28030  0.12070  Biso   1.000  H
  C68      1.0000 0.58940  0.34220  0.19910  Biso   1.000  C
  H53      1.0000 0.63570  0.35940  0.18520  Biso   1.000  H
  C69      1.0000 0.49740  0.32310  0.25990  Biso   1.000  C
  H54      1.0000 0.46660  0.32380  0.29610  Biso   1.000  H
  C70      1.0000 0.31010  0.18870  0.95450  Biso   1.000  C
  H55      1.0000 0.35100  0.21740  0.95540  Biso   1.000  H
  C71      1.0000 0.26490  0.16070  0.89470  Biso   1.000  C
  H56      1.0000 0.26980  0.16600  0.84620  Biso   1.000  H
  C72      1.0000 0.22010  0.13140  0.98480  Biso   1.000  C
  H57      1.0000 0.18560  0.11430  0.01200  Biso   1.000  H
  C73      1.0000 0.21930  0.23990  0.30490  Biso   1.000  C
  H58      1.0000 0.25080  0.27390  0.31260  Biso   1.000  H
  C74      1.0000 0.17460  0.15640  0.26320  Biso   1.000  C
  H59      1.0000 0.16690  0.12170  0.23790  Biso   1.000  H
  C75      1.0000 0.13110  0.17550  0.31170  Biso   1.000  C
  H60      1.0000 0.08750  0.15500  0.32550  Biso   1.000  H
  C76      1.0000 0.21990  0.54710  0.14980  Biso   1.000  C
  H61      1.0000 0.25170  0.57230  0.12860  Biso   1.000  H
  C77      1.0000 0.26010  0.51590  0.21410  Biso   1.000  C
  C78      1.0000 0.21380  0.47930  0.24640  Biso   1.000  C
  H62      1.0000 0.24140  0.46070  0.29100  Biso   1.000  H
  C79      1.0000 0.12560  0.47040  0.21220  Biso   1.000  C
  C80      1.0000 0.08200  0.50040  0.14840  Biso   1.000  C
  H63      1.0000 0.02220  0.49480  0.12630  Biso   1.000  H
  C81      1.0000 0.12950  0.53870  0.11840  Biso   1.000  C
  C82      1.0000 0.40660  0.47580  0.27710  Biso   1.000  C
  H64      1.0000 0.38610  0.44140  0.29090  Biso   1.000  H
  C83      1.0000 0.49080  0.54210  0.26090  Biso   1.000  C
  H65      1.0000 0.54150  0.56260  0.26200  Biso   1.000  H
  C84      1.0000 0.40900  0.56110  0.23240  Biso   1.000  C
  H66      1.0000 0.39270  0.59620  0.20960  Biso   1.000  H
  C85      1.0000 0.11650  0.38990  0.29530  Biso   1.000  C
  H67      1.0000 0.17600  0.39020  0.32110  Biso   1.000  H
  C86      1.0000 0.98300  0.36660  0.25880  Biso   1.000  C
  H68      1.0000 0.93050  0.34710  0.25400  Biso   1.000  H
  C87      1.0000 0.99150  0.41340  0.21830  Biso   1.000  C
  H69      1.0000 0.94750  0.43170  0.18190  Biso   1.000  H
  C88      1.0000 0.11210  0.62150  0.03360  Biso   1.000  C
  H70      1.0000 0.16000  0.64200  0.06210  Biso   1.000  H
  C89      1.0000 0.99830  0.59580  0.94630  Biso   1.000  C
  H71      1.0000 0.95310  0.59570  0.90180  Biso   1.000  H
  C90      1.0000 0.01420  0.55330  0.99840  Biso   1.000  C
  H72      1.0000 0.98190  0.52000  0.99730  Biso   1.000  H
  Mn7      1.0000 0.10168  0.93004  0.34232  Biso   1.000  Mn
  Mn8      1.0000 0.60070  0.79040  0.40401  Biso   1.000  Mn
  N37      1.0000 0.06030  0.85830  0.25850  Biso   1.000  N
  N38      1.0000 0.98180  0.78520  0.20240  Biso   1.000  N
  N39      1.0000 0.65830  0.72800  0.33790  Biso   1.000  N
  N40      1.0000 0.73240  0.69890  0.25910  Biso   1.000  N
  N41      1.0000 0.70980  0.62260  0.91450  Biso   1.000  N
  N42      1.0000 0.78570  0.66780  0.01510  Biso   1.000  N
  N43      1.0000 0.98910  0.98780  0.28850  Biso   1.000  N
  N44      1.0000 0.85330  0.01910  0.24290  Biso   1.000  N
  N45      1.0000 0.56110  0.85220  0.30700  Biso   1.000  N
  N46      1.0000 0.57920  0.92820  0.24230  Biso   1.000  N
  N47      1.0000 0.55880  0.13900  0.96890  Biso   1.000  N
  N48      1.0000 0.58700  0.06970  0.05230  Biso   1.000  N
  C91      1.0000 0.88670  0.72340  0.11090  Biso   1.000  C
  H73      1.0000 0.91920  0.73120  0.07710  Biso   1.000  H
  C92      1.0000 0.91070  0.74650  0.18260  Biso   1.000  C
  C93      1.0000 0.86320  0.73520  0.23300  Biso   1.000  C
  H74      1.0000 0.88180  0.74910  0.28190  Biso   1.000  H
  C94      1.0000 0.78810  0.70300  0.21020  Biso   1.000  C
  C95      1.0000 0.76150  0.67860  0.13900  Biso   1.000  C
  H75      1.0000 0.71080  0.65660  0.12430  Biso   1.000  H
  C96      1.0000 0.81320  0.68830  0.09070  Biso   1.000  C
  C97      1.0000 0.04240  0.79850  0.16350  Biso   1.000  C
  H76      1.0000 0.04910  0.78030  0.12070  Biso   1.000  H
  C98      1.0000 0.08940  0.84220  0.19910  Biso   1.000  C
  H77      1.0000 0.13570  0.85940  0.18520  Biso   1.000  H
  C99      1.0000 0.99740  0.82310  0.25990  Biso   1.000  C
  H78      1.0000 0.96660  0.82380  0.29610  Biso   1.000  H
  C100     1.0000 0.81010  0.68870  0.95450  Biso   1.000  C
  H79      1.0000 0.85100  0.71740  0.95540  Biso   1.000  H
  C101     1.0000 0.76490  0.66070  0.89470  Biso   1.000  C
  H80      1.0000 0.76980  0.66600  0.84620  Biso   1.000  H
  C102     1.0000 0.72010  0.63140  0.98480  Biso   1.000  C
  H81      1.0000 0.68560  0.61430  0.01200  Biso   1.000  H
  C103     1.0000 0.71930  0.73990  0.30490  Biso   1.000  C
  H82      1.0000 0.75080  0.77390  0.31260  Biso   1.000  H
  C104     1.0000 0.67460  0.65640  0.26320  Biso   1.000  C
  H83      1.0000 0.66690  0.62170  0.23790  Biso   1.000  H
  C105     1.0000 0.63110  0.67550  0.31170  Biso   1.000  C
  H84      1.0000 0.58750  0.65500  0.32550  Biso   1.000  H
  C106     1.0000 0.71990  0.04710  0.14980  Biso   1.000  C
  H85      1.0000 0.75170  0.07230  0.12860  Biso   1.000  H
  C107     1.0000 0.76010  0.01590  0.21410  Biso   1.000  C
  C108     1.0000 0.71380  0.97930  0.24640  Biso   1.000  C
  H86      1.0000 0.74140  0.96070  0.29100  Biso   1.000  H
  C109     1.0000 0.62560  0.97040  0.21220  Biso   1.000  C
  C110     1.0000 0.58200  0.00040  0.14840  Biso   1.000  C
  H87      1.0000 0.52220  0.99480  0.12630  Biso   1.000  H
  C111     1.0000 0.62950  0.03870  0.11840  Biso   1.000  C
  C112     1.0000 0.90660  0.97580  0.27710  Biso   1.000  C
  H88      1.0000 0.88610  0.94140  0.29090  Biso   1.000  H
  C113     1.0000 0.99080  0.04210  0.26090  Biso   1.000  C
  H89      1.0000 0.04150  0.06260  0.26200  Biso   1.000  H
  C114     1.0000 0.90900  0.06110  0.23240  Biso   1.000  C
  H90      1.0000 0.89270  0.09620  0.20960  Biso   1.000  H
  C115     1.0000 0.61650  0.88990  0.29530  Biso   1.000  C
  H91      1.0000 0.67600  0.89020  0.32110  Biso   1.000  H
  C116     1.0000 0.48300  0.86660  0.25880  Biso   1.000  C
  H92      1.0000 0.43050  0.84710  0.25400  Biso   1.000  H
  C117     1.0000 0.49150  0.91340  0.21830  Biso   1.000  C
  H93      1.0000 0.44750  0.93170  0.18190  Biso   1.000  H
  C118     1.0000 0.61210  0.12150  0.03360  Biso   1.000  C
  H94      1.0000 0.66000  0.14200  0.06210  Biso   1.000  H
  C119     1.0000 0.49830  0.09580  0.94630  Biso   1.000  C
  H95      1.0000 0.45310  0.09570  0.90180  Biso   1.000  H
  C120     1.0000 0.51420  0.05330  0.99840  Biso   1.000  C
  H96      1.0000 0.48190  0.02000  0.99730  Biso   1.000  H
