data_image0
_cell_length_a       19.61
_cell_length_b       9.409
_cell_length_c       20.32
_cell_angle_alpha    90
_cell_angle_beta     125.31
_cell_angle_gamma    90

_symmetry_space_group_name_H-M    "P 1"
_symmetry_int_tables_number       1

loop_
  _symmetry_equiv_pos_as_xyz
  'x, y, z'

loop_
  _atom_site_label
  _atom_site_occupancy
  _atom_site_fract_x
  _atom_site_fract_y
  _atom_site_fract_z
  _atom_site_thermal_displace_type
  _atom_site_B_iso_or_equiv
  _atom_site_type_symbol
  Cu1      1.0000 0.24950  0.99910  0.06670  Biso   1.000  Cu
  Cu2      1.0000 0.75170  0.74410  0.42710  Biso   1.000  Cu
  C1       1.0000 0.97620  0.06080  0.88830  Biso   1.000  C
  C2       1.0000 0.06730  0.05110  0.92020  Biso   1.000  C
  C3       1.0000 0.11970  0.99480  0.00520  Biso   1.000  C
  C4       1.0000 0.14610  0.95830  0.07270  Biso   1.000  C
  C5       1.0000 0.15140  0.91610  0.14520  Biso   1.000  C
  C6       1.0000 0.93800  0.91450  0.87370  Biso   1.000  C
  C7       1.0000 0.38020  0.99560  0.14500  Biso   1.000  C
  C8       1.0000 0.35700  0.91800  0.17310  Biso   1.000  C
  C9       1.0000 0.35430  0.81420  0.22600  Biso   1.000  C
  C10      1.0000 0.44140  0.76240  0.29460  Biso   1.000  C
  C11      1.0000 0.47640  0.66260  0.26290  Biso   1.000  C
  C12      1.0000 0.57000  0.62780  0.32730  Biso   1.000  C
  C13      1.0000 0.62410  0.75050  0.33840  Biso   1.000  C
  C14      1.0000 0.64810  0.86580  0.33380  Biso   1.000  C
  C15      1.0000 0.65430  0.01100  0.31490  Biso   1.000  C
  C16      1.0000 0.56910  0.07750  0.26000  Biso   1.000  C
  C17      1.0000 0.52060  0.03310  0.17260  Biso   1.000  C
  C18      1.0000 0.42980  0.08370  0.12330  Biso   1.000  C
  C19      1.0000 0.88280  0.78150  0.49770  Biso   1.000  C
  C20      1.0000 0.85640  0.82000  0.43150  Biso   1.000  C
  C21      1.0000 0.85190  0.87150  0.35930  Biso   1.000  C
  C22      1.0000 0.93780  0.87930  0.37490  Biso   1.000  C
  C23      1.0000 0.97390  0.73320  0.38200  Biso   1.000  C
  C24      1.0000 0.93280  0.73580  0.58350  Biso   1.000  C
  S1       1.0000 0.73900  0.88390  0.57680  Biso   1.000  S
  O1       1.0000 0.74430  0.76650  0.53410  Biso   1.000  O
  O2       1.0000 0.79690  0.87850  0.66310  Biso   1.000  O
  O3       1.0000 0.73110  0.02240  0.54110  Biso   1.000  O
  C25      1.0000 0.63650  0.85520  0.55770  Biso   1.000  C
  F1       1.0000 0.63400  0.72990  0.58310  Biso   1.000  F
  F2       1.0000 0.62470  0.95050  0.59830  Biso   1.000  F
  F3       1.0000 0.57680  0.87020  0.48150  Biso   1.000  F
  Cu3      1.0000 0.74950  0.49910  0.06670  Biso   1.000  Cu
  Cu4      1.0000 0.25170  0.24410  0.42710  Biso   1.000  Cu
  C26      1.0000 0.47620  0.56080  0.88830  Biso   1.000  C
  C27      1.0000 0.56730  0.55110  0.92020  Biso   1.000  C
  C28      1.0000 0.61970  0.49480  0.00520  Biso   1.000  C
  C29      1.0000 0.64610  0.45830  0.07270  Biso   1.000  C
  C30      1.0000 0.65140  0.41610  0.14520  Biso   1.000  C
  C31      1.0000 0.43800  0.41450  0.87370  Biso   1.000  C
  C32      1.0000 0.88020  0.49560  0.14500  Biso   1.000  C
  C33      1.0000 0.85700  0.41800  0.17310  Biso   1.000  C
  C34      1.0000 0.85430  0.31420  0.22600  Biso   1.000  C
  C35      1.0000 0.94140  0.26240  0.29460  Biso   1.000  C
  C36      1.0000 0.97640  0.16260  0.26290  Biso   1.000  C
  C37      1.0000 0.07000  0.12780  0.32730  Biso   1.000  C
  C38      1.0000 0.12410  0.25050  0.33840  Biso   1.000  C
  C39      1.0000 0.14810  0.36580  0.33380  Biso   1.000  C
  C40      1.0000 0.15430  0.51100  0.31490  Biso   1.000  C
  C41      1.0000 0.06910  0.57750  0.26000  Biso   1.000  C
  C42      1.0000 0.02060  0.53310  0.17260  Biso   1.000  C
  C43      1.0000 0.92980  0.58370  0.12330  Biso   1.000  C
  C44      1.0000 0.38280  0.28150  0.49770  Biso   1.000  C
  C45      1.0000 0.35640  0.32000  0.43150  Biso   1.000  C
  C46      1.0000 0.35190  0.37150  0.35930  Biso   1.000  C
  C47      1.0000 0.43780  0.37930  0.37490  Biso   1.000  C
  C48      1.0000 0.47390  0.23320  0.38200  Biso   1.000  C
  C49      1.0000 0.43280  0.23580  0.58350  Biso   1.000  C
  S2       1.0000 0.23900  0.38390  0.57680  Biso   1.000  S
  O4       1.0000 0.24430  0.26650  0.53410  Biso   1.000  O
  O5       1.0000 0.29690  0.37850  0.66310  Biso   1.000  O
  O6       1.0000 0.23110  0.52240  0.54110  Biso   1.000  O
  C50      1.0000 0.13650  0.35520  0.55770  Biso   1.000  C
  F4       1.0000 0.13400  0.22990  0.58310  Biso   1.000  F
  F5       1.0000 0.12470  0.45050  0.59830  Biso   1.000  F
  F6       1.0000 0.07680  0.37020  0.48150  Biso   1.000  F
  Cu5      1.0000 0.75050  0.99910  0.93330  Biso   1.000  Cu
  Cu6      1.0000 0.24830  0.74410  0.57290  Biso   1.000  Cu
  C51      1.0000 0.02380  0.06080  0.11170  Biso   1.000  C
  C52      1.0000 0.93270  0.05110  0.07980  Biso   1.000  C
  C53      1.0000 0.88030  0.99480  0.99480  Biso   1.000  C
  C54      1.0000 0.85390  0.95830  0.92730  Biso   1.000  C
  C55      1.0000 0.84860  0.91610  0.85480  Biso   1.000  C
  C56      1.0000 0.06200  0.91450  0.12630  Biso   1.000  C
  C57      1.0000 0.61980  0.99560  0.85500  Biso   1.000  C
  C58      1.0000 0.64300  0.91800  0.82690  Biso   1.000  C
  C59      1.0000 0.64570  0.81420  0.77400  Biso   1.000  C
  C60      1.0000 0.55860  0.76240  0.70540  Biso   1.000  C
  C61      1.0000 0.52360  0.66260  0.73710  Biso   1.000  C
  C62      1.0000 0.43000  0.62780  0.67270  Biso   1.000  C
  C63      1.0000 0.37590  0.75050  0.66160  Biso   1.000  C
  C64      1.0000 0.35190  0.86580  0.66620  Biso   1.000  C
  C65      1.0000 0.34570  0.01100  0.68510  Biso   1.000  C
  C66      1.0000 0.43090  0.07750  0.74000  Biso   1.000  C
  C67      1.0000 0.47940  0.03310  0.82740  Biso   1.000  C
  C68      1.0000 0.57020  0.08370  0.87670  Biso   1.000  C
  C69      1.0000 0.11720  0.78150  0.50230  Biso   1.000  C
  C70      1.0000 0.14360  0.82000  0.56850  Biso   1.000  C
  C71      1.0000 0.14810  0.87150  0.64070  Biso   1.000  C
  C72      1.0000 0.06220  0.87930  0.62510  Biso   1.000  C
  C73      1.0000 0.02610  0.73320  0.61800  Biso   1.000  C
  C74      1.0000 0.06720  0.73580  0.41650  Biso   1.000  C
  S3       1.0000 0.26100  0.88390  0.42320  Biso   1.000  S
  O7       1.0000 0.25570  0.76650  0.46590  Biso   1.000  O
  O8       1.0000 0.20310  0.87850  0.33690  Biso   1.000  O
  O9       1.0000 0.26890  0.02240  0.45890  Biso   1.000  O
  C75      1.0000 0.36350  0.85520  0.44230  Biso   1.000  C
  F7       1.0000 0.36600  0.72990  0.41690  Biso   1.000  F
  F8       1.0000 0.37530  0.95050  0.40170  Biso   1.000  F
  F9       1.0000 0.42320  0.87020  0.51850  Biso   1.000  F
  Cu7      1.0000 0.25050  0.49910  0.93330  Biso   1.000  Cu
  Cu8      1.0000 0.74830  0.24410  0.57290  Biso   1.000  Cu
  C76      1.0000 0.52380  0.56080  0.11170  Biso   1.000  C
  C77      1.0000 0.43270  0.55110  0.07980  Biso   1.000  C
  C78      1.0000 0.38030  0.49480  0.99480  Biso   1.000  C
  C79      1.0000 0.35390  0.45830  0.92730  Biso   1.000  C
  C80      1.0000 0.34860  0.41610  0.85480  Biso   1.000  C
  C81      1.0000 0.56200  0.41450  0.12630  Biso   1.000  C
  C82      1.0000 0.11980  0.49560  0.85500  Biso   1.000  C
  C83      1.0000 0.14300  0.41800  0.82690  Biso   1.000  C
  C84      1.0000 0.14570  0.31420  0.77400  Biso   1.000  C
  C85      1.0000 0.05860  0.26240  0.70540  Biso   1.000  C
  C86      1.0000 0.02360  0.16260  0.73710  Biso   1.000  C
  C87      1.0000 0.93000  0.12780  0.67270  Biso   1.000  C
  C88      1.0000 0.87590  0.25050  0.66160  Biso   1.000  C
  C89      1.0000 0.85190  0.36580  0.66620  Biso   1.000  C
  C90      1.0000 0.84570  0.51100  0.68510  Biso   1.000  C
  C91      1.0000 0.93090  0.57750  0.74000  Biso   1.000  C
  C92      1.0000 0.97940  0.53310  0.82740  Biso   1.000  C
  C93      1.0000 0.07020  0.58370  0.87670  Biso   1.000  C
  C94      1.0000 0.61720  0.28150  0.50230  Biso   1.000  C
  C95      1.0000 0.64360  0.32000  0.56850  Biso   1.000  C
  C96      1.0000 0.64810  0.37150  0.64070  Biso   1.000  C
  C97      1.0000 0.56220  0.37930  0.62510  Biso   1.000  C
  C98      1.0000 0.52610  0.23320  0.61800  Biso   1.000  C
  C99      1.0000 0.56720  0.23580  0.41650  Biso   1.000  C
  S4       1.0000 0.76100  0.38390  0.42320  Biso   1.000  S
  O10      1.0000 0.75570  0.26650  0.46590  Biso   1.000  O
  O11      1.0000 0.70310  0.37850  0.33690  Biso   1.000  O
  O12      1.0000 0.76890  0.52240  0.45890  Biso   1.000  O
  C100     1.0000 0.86350  0.35520  0.44230  Biso   1.000  C
  F10      1.0000 0.86600  0.22990  0.41690  Biso   1.000  F
  F11      1.0000 0.87530  0.45050  0.40170  Biso   1.000  F
  F12      1.0000 0.92320  0.37020  0.51850  Biso   1.000  F
