data_image0
_cell_length_a       8.849
_cell_length_b       13.869
_cell_length_c       10.818
_cell_angle_alpha    90
_cell_angle_beta     90
_cell_angle_gamma    90

_symmetry_space_group_name_H-M    "P 1"
_symmetry_int_tables_number       1

loop_
  _symmetry_equiv_pos_as_xyz
  'x, y, z'

loop_
  _atom_site_label
  _atom_site_occupancy
  _atom_site_fract_x
  _atom_site_fract_y
  _atom_site_fract_z
  _atom_site_thermal_displace_type
  _atom_site_B_iso_or_equiv
  _atom_site_type_symbol
  Zn1      1.0000 0.03756  0.10116  0.32781  Biso   1.000  Zn
  P1       1.0000 0.98948  0.07784  0.62516  Biso   1.000  P
  P2       1.0000 0.82898  0.28392  0.38000  Biso   1.000  P
  O1       1.0000 0.89870  0.20657  0.30080  Biso   1.000  O
  O2       1.0000 0.72750  0.24083  0.48230  Biso   1.000  O
  O3       1.0000 0.01030  0.04953  0.49304  Biso   1.000  O
  O4       1.0000 0.10000  0.16304  0.65890  Biso   1.000  O
  O5       1.0000 0.01600  0.99898  0.71650  Biso   1.000  O
  O6       1.0000 0.95950  0.34147  0.44760  Biso   1.000  O
  O7       1.0000 0.82500  0.11776  0.64690  Biso   1.000  O
  O8       1.0000 0.74290  0.35660  0.30376  Biso   1.000  O
  Zn2      1.0000 0.96244  0.89884  0.82781  Biso   1.000  Zn
  P3       1.0000 0.01052  0.92216  0.12516  Biso   1.000  P
  P4       1.0000 0.17102  0.71608  0.88000  Biso   1.000  P
  O9       1.0000 0.10130  0.79343  0.80080  Biso   1.000  O
  O10      1.0000 0.27250  0.75917  0.98230  Biso   1.000  O
  O11      1.0000 0.98970  0.95047  0.99304  Biso   1.000  O
  O12      1.0000 0.90000  0.83696  0.15890  Biso   1.000  O
  O13      1.0000 0.98400  0.00102  0.21650  Biso   1.000  O
  O14      1.0000 0.04050  0.65853  0.94760  Biso   1.000  O
  O15      1.0000 0.17500  0.88224  0.14690  Biso   1.000  O
  O16      1.0000 0.25710  0.64340  0.80376  Biso   1.000  O
  Zn3      1.0000 0.53756  0.39884  0.32781  Biso   1.000  Zn
  P5       1.0000 0.48948  0.42216  0.62516  Biso   1.000  P
  P6       1.0000 0.32898  0.21608  0.38000  Biso   1.000  P
  O17      1.0000 0.39870  0.29343  0.30080  Biso   1.000  O
  O18      1.0000 0.22750  0.25917  0.48230  Biso   1.000  O
  O19      1.0000 0.51030  0.45047  0.49304  Biso   1.000  O
  O20      1.0000 0.60000  0.33696  0.65890  Biso   1.000  O
  O21      1.0000 0.51600  0.50102  0.71650  Biso   1.000  O
  O22      1.0000 0.45950  0.15853  0.44760  Biso   1.000  O
  O23      1.0000 0.32500  0.38224  0.64690  Biso   1.000  O
  O24      1.0000 0.24290  0.14340  0.30376  Biso   1.000  O
  Zn4      1.0000 0.46244  0.60116  0.82781  Biso   1.000  Zn
  P7       1.0000 0.51052  0.57784  0.12516  Biso   1.000  P
  P8       1.0000 0.67102  0.78392  0.88000  Biso   1.000  P
  O25      1.0000 0.60130  0.70657  0.80080  Biso   1.000  O
  O26      1.0000 0.77250  0.74083  0.98230  Biso   1.000  O
  O27      1.0000 0.48970  0.54953  0.99304  Biso   1.000  O
  O28      1.0000 0.40000  0.66304  0.15890  Biso   1.000  O
  O29      1.0000 0.48400  0.49898  0.21650  Biso   1.000  O
  O30      1.0000 0.54050  0.84147  0.94760  Biso   1.000  O
  O31      1.0000 0.67500  0.61776  0.14690  Biso   1.000  O
  O32      1.0000 0.75710  0.85660  0.80376  Biso   1.000  O
