data_TADWIG_clean5b
_audit_creation_date              2014-07-02
_audit_creation_method            'Materials Studio'
_symmetry_space_group_name_H-M    'P1'
_symmetry_Int_Tables_number       1
_symmetry_cell_setting            triclinic
loop_
_symmetry_equiv_pos_as_xyz
  x,y,z
_cell_length_a                    12.7526
_cell_length_b                    26.6465
_cell_length_c                    26.6465
_cell_angle_alpha                 60.6468
_cell_angle_beta                  76.1552
_cell_angle_gamma                 76.1554
loop_
_atom_site_label
_atom_site_type_symbol
_atom_site_fract_x
_atom_site_fract_y
_atom_site_fract_z
_atom_site_U_iso_or_equiv
_atom_site_adp_type
_atom_site_occupancy
Zn1    Zn    0.34755   0.52644   0.61854   0.01267  Uiso   1.00
Zn2    Zn    0.53238   0.43190   0.69772   0.01267  Uiso   1.00
Zn3    Zn    0.50747   0.11854   0.02644   0.01267  Uiso   1.00
Zn4    Zn    0.33800   0.19772   0.93190   0.01267  Uiso   1.00
Zn5    Zn    0.15245   0.38146   0.47356   0.01267  Uiso   1.00
Zn6    Zn    0.96762   0.30228   0.56810   0.01267  Uiso   1.00
Zn7    Zn    0.99253   0.97356   0.88146   0.01267  Uiso   1.00
Zn8    Zn    0.16200   0.06810   0.80228   0.01267  Uiso   1.00
H1     H     0.83990   0.96330   0.64450   0.01267  Uiso   1.00
H2     H     0.60600   0.97860   0.52960   0.01267  Uiso   1.00
H3     H     0.66060   0.55380   0.72280   0.01267  Uiso   1.00
H4     H     0.71110   0.63410   0.71950   0.01267  Uiso   1.00
H5     H     0.47760   0.74090   0.62230   0.01267  Uiso   1.00
H6     H     0.42640   0.66340   0.62420   0.01267  Uiso   1.00
H7     H     0.79620   0.71530   0.66330   0.01267  Uiso   1.00
H8     H     0.01010   0.84670   0.64010   0.01267  Uiso   1.00
H9     H     0.54890   0.87080   0.66980   0.01267  Uiso   1.00
H10    H     0.48630   0.79150   0.67770   0.01267  Uiso   1.00
H11    H     0.02780   0.81650   0.54830   0.01267  Uiso   1.00
H12    H     0.17110   0.75310   0.52390   0.01267  Uiso   1.00
H13    H     0.09860   0.61830   0.68350   0.01267  Uiso   1.00
H14    H     0.97230   0.68500   0.71200   0.01267  Uiso   1.00
H15    H     0.51010   0.04840   0.55360   0.01267  Uiso   1.00
H16    H     0.50320   0.07630   0.71250   0.01267  Uiso   1.00
H17    H     0.71220   0.94090   0.81070   0.01267  Uiso   1.00
H18    H     0.75070   0.90730   0.74290   0.01267  Uiso   1.00
H19    H     0.32380   0.06850   0.68910   0.01267  Uiso   1.00
H20    H     0.18920   0.14990   0.66150   0.01267  Uiso   1.00
H21    H     0.38360   0.23370   0.51010   0.01267  Uiso   1.00
H22    H     0.51730   0.15320   0.53580   0.01267  Uiso   1.00
H23    H     0.42470   0.06770   0.80090   0.01267  Uiso   1.00
H24    H     0.38420   0.10060   0.87280   0.01267  Uiso   1.00
H25    H     0.69970   0.04820   0.90080   0.01267  Uiso   1.00
H26    H     0.73860   0.01780   0.82840   0.01267  Uiso   1.00
H27    H     0.55230   0.14450   0.46330   0.01267  Uiso   1.00
H28    H     0.88580   0.02960   0.47860   0.01267  Uiso   1.00
H29    H     0.06280   0.22280   0.05380   0.01267  Uiso   1.00
H30    H     0.93530   0.21950   0.13410   0.01267  Uiso   1.00
H31    H     0.15920   0.12230   0.24090   0.01267  Uiso   1.00
H32    H     0.28600   0.12420   0.16340   0.01267  Uiso   1.00
H33    H     0.82520   0.16330   0.21530   0.01267  Uiso   1.00
H34    H     0.50310   0.14010   0.34670   0.01267  Uiso   1.00
H35    H     0.91050   0.16980   0.37080   0.01267  Uiso   1.00
H36    H     0.04450   0.17770   0.29150   0.01267  Uiso   1.00
H37    H     0.60740   0.04830   0.31650   0.01267  Uiso   1.00
H38    H     0.55190   0.02390   0.25310   0.01267  Uiso   1.00
H39    H     0.59960   0.18350   0.11830   0.01267  Uiso   1.00
H40    H     0.63070   0.21200   0.18500   0.01267  Uiso   1.00
H41    H     0.88790   0.05360   0.54840   0.01267  Uiso   1.00
H42    H     0.70800   0.21250   0.57630   0.01267  Uiso   1.00
H43    H     0.53620   0.31070   0.44090   0.01267  Uiso   1.00
H44    H     0.59910   0.24290   0.40730   0.01267  Uiso   1.00
H45    H     0.91860   0.18910   0.56850   0.01267  Uiso   1.00
H46    H     0.99940   0.16150   0.64990   0.01267  Uiso   1.00
H47    H     0.87260   0.01010   0.73370   0.01267  Uiso   1.00
H48    H     0.79370   0.03580   0.65320   0.01267  Uiso   1.00
H49    H     0.70670   0.30090   0.56770   0.01267  Uiso   1.00
H50    H     0.64240   0.37280   0.60060   0.01267  Uiso   1.00
H51    H     0.35130   0.40080   0.54820   0.01267  Uiso   1.00
H52    H     0.41520   0.32840   0.51780   0.01267  Uiso   1.00
H53    H     0.66010   0.35550   0.03670   0.01267  Uiso   1.00
H54    H     0.89400   0.47040   0.02140   0.01267  Uiso   1.00
H55    H     0.83940   0.27720   0.44620   0.01267  Uiso   1.00
H56    H     0.78890   0.28050   0.36590   0.01267  Uiso   1.00
H57    H     0.02240   0.37770   0.25910   0.01267  Uiso   1.00
H58    H     0.07360   0.37580   0.33660   0.01267  Uiso   1.00
H59    H     0.70380   0.33670   0.28470   0.01267  Uiso   1.00
H60    H     0.48990   0.35990   0.15330   0.01267  Uiso   1.00
H61    H     0.95110   0.33020   0.12920   0.01267  Uiso   1.00
H62    H     0.01370   0.32230   0.20850   0.01267  Uiso   1.00
H63    H     0.47220   0.45170   0.18350   0.01267  Uiso   1.00
H64    H     0.32890   0.47610   0.24690   0.01267  Uiso   1.00
H65    H     0.40140   0.31650   0.38170   0.01267  Uiso   1.00
H66    H     0.52770   0.28800   0.31500   0.01267  Uiso   1.00
H67    H     0.98990   0.44640   0.95160   0.01267  Uiso   1.00
H68    H     0.99680   0.28750   0.92370   0.01267  Uiso   1.00
H69    H     0.78780   0.18930   0.05910   0.01267  Uiso   1.00
H70    H     0.74930   0.25710   0.09270   0.01267  Uiso   1.00
H71    H     0.17620   0.31090   0.93150   0.01267  Uiso   1.00
H72    H     0.31080   0.33850   0.85010   0.01267  Uiso   1.00
H73    H     0.11640   0.48990   0.76630   0.01267  Uiso   1.00
H74    H     0.98270   0.46420   0.84680   0.01267  Uiso   1.00
H75    H     0.07530   0.19910   0.93230   0.01267  Uiso   1.00
H76    H     0.11580   0.12720   0.89940   0.01267  Uiso   1.00
H77    H     0.80030   0.09920   0.95180   0.01267  Uiso   1.00
H78    H     0.76140   0.17160   0.98220   0.01267  Uiso   1.00
H79    H     0.94770   0.53670   0.85550   0.01267  Uiso   1.00
H80    H     0.61420   0.52140   0.97040   0.01267  Uiso   1.00
H81    H     0.43720   0.94620   0.77720   0.01267  Uiso   1.00
H82    H     0.56470   0.86590   0.78050   0.01267  Uiso   1.00
H83    H     0.34080   0.75910   0.87770   0.01267  Uiso   1.00
H84    H     0.21400   0.83660   0.87580   0.01267  Uiso   1.00
H85    H     0.67480   0.78470   0.83670   0.01267  Uiso   1.00
H86    H     0.99690   0.65330   0.85990   0.01267  Uiso   1.00
H87    H     0.58950   0.62920   0.83020   0.01267  Uiso   1.00
H88    H     0.45550   0.70850   0.82230   0.01267  Uiso   1.00
H89    H     0.89260   0.68350   0.95170   0.01267  Uiso   1.00
H90    H     0.94810   0.74690   0.97610   0.01267  Uiso   1.00
H91    H     0.90040   0.88170   0.81650   0.01267  Uiso   1.00
H92    H     0.86930   0.81500   0.78800   0.01267  Uiso   1.00
H93    H     0.61210   0.45160   0.94640   0.01267  Uiso   1.00
H94    H     0.79200   0.42370   0.78750   0.01267  Uiso   1.00
H95    H     0.96380   0.55910   0.68930   0.01267  Uiso   1.00
H96    H     0.90090   0.59270   0.75710   0.01267  Uiso   1.00
H97    H     0.58140   0.43150   0.81090   0.01267  Uiso   1.00
H98    H     0.50060   0.35010   0.83850   0.01267  Uiso   1.00
H99    H     0.62740   0.26630   0.98990   0.01267  Uiso   1.00
H100   H     0.70630   0.34680   0.96420   0.01267  Uiso   1.00
H101   H     0.79330   0.43230   0.69910   0.01267  Uiso   1.00
H102   H     0.85760   0.39940   0.62720   0.01267  Uiso   1.00
H103   H     0.14870   0.45180   0.59920   0.01267  Uiso   1.00
H104   H     0.08480   0.48220   0.67160   0.01267  Uiso   1.00
C1     C     0.51150   0.55140   0.66900   0.01267  Uiso   1.00
C2     C     0.53929   0.60111   0.67051   0.01267  Uiso   1.00
C3     C     0.62399   0.59181   0.70161   0.01267  Uiso   1.00
C4     C     0.65238   0.64022   0.70002   0.01267  Uiso   1.00
C5     C     0.60006   0.69604   0.67184   0.01267  Uiso   1.00
C6     C     0.51549   0.70291   0.64291   0.01267  Uiso   1.00
C7     C     0.48599   0.65681   0.64341   0.01267  Uiso   1.00
C8     C     0.63831   0.74569   0.66789   0.01267  Uiso   1.00
C9     C     0.74554   0.74786   0.66326   0.01267  Uiso   1.00
C10    C     0.78782   0.79428   0.65828   0.01267  Uiso   1.00
C11    C     0.90064   0.79966   0.64746   0.01267  Uiso   1.00
C12    C     0.93425   0.84605   0.64425   0.01267  Uiso   1.00
C13    C     0.85881   0.89299   0.64679   0.01267  Uiso   1.00
C14    C     0.74908   0.89282   0.65362   0.01267  Uiso   1.00
C15    C     0.71227   0.84293   0.66033   0.01267  Uiso   1.00
C16    C     0.60081   0.83949   0.66769   0.01267  Uiso   1.00
C17    C     0.56247   0.79223   0.67203   0.01267  Uiso   1.00
C18    C     0.98471   0.75509   0.63529   0.01267  Uiso   1.00
C19    C     0.04404   0.77696   0.57596   0.01267  Uiso   1.00
C20    C     0.12501   0.73909   0.56029   0.01267  Uiso   1.00
C21    C     0.13569   0.67811   0.60151   0.01267  Uiso   1.00
C22    C     0.08457   0.65823   0.65623   0.01267  Uiso   1.00
C23    C     0.00789   0.69871   0.67291   0.01267  Uiso   1.00
C24    C     0.66861   0.94609   0.64589   0.01267  Uiso   1.00
C25    C     0.62176   0.97654   0.59674   0.01267  Uiso   1.00
C26    C     0.54390   0.02820   0.58780   0.01267  Uiso   1.00
C27    C     0.51864   0.04806   0.62746   0.01267  Uiso   1.00
C28    C     0.56932   0.02058   0.67798   0.01267  Uiso   1.00
C29    C     0.55240   0.04150   0.71870   0.01267  Uiso   1.00
C30    C     0.60436   0.01354   0.76794   0.01267  Uiso   1.00
C31    C     0.67751   0.96159   0.77679   0.01267  Uiso   1.00
C32    C     0.21520   0.63440   0.58300   0.01267  Uiso   1.00
C33    C     0.69845   0.94115   0.73695   0.01267  Uiso   1.00
C34    C     0.64559   0.96821   0.68741   0.01267  Uiso   1.00
C35    C     0.43535   0.10215   0.61415   0.01267  Uiso   1.00
C36    C     0.33574   0.10176   0.65276   0.01267  Uiso   1.00
C37    C     0.25663   0.15057   0.63657   0.01267  Uiso   1.00
C38    C     0.27485   0.20115   0.58375   0.01267  Uiso   1.00
C39    C     0.37184   0.20036   0.54656   0.01267  Uiso   1.00
C40    C     0.45097   0.15223   0.56163   0.01267  Uiso   1.00
C41    C     0.18850   0.25140   0.56600   0.01267  Uiso   1.00
C42    C     0.48016   0.06284   0.82184   0.01267  Uiso   1.00
C43    C     0.58353   0.03547   0.81147   0.01267  Uiso   1.00
C44    C     0.45640   0.08390   0.86390   0.01267  Uiso   1.00
C45    C     0.54044   0.07996   0.89196   0.01267  Uiso   1.00
C46    C     0.64350   0.05310   0.88030   0.01267  Uiso   1.00
C47    C     0.66607   0.03309   0.83837   0.01267  Uiso   1.00
C48    C     0.51492   0.09988   0.93528   0.01267  Uiso   1.00
C49    C     0.26810   0.16900   0.05140   0.01267  Uiso   1.00
C50    C     0.18909   0.17051   0.10111   0.01267  Uiso   1.00
C51    C     0.08259   0.20161   0.09181   0.01267  Uiso   1.00
C52    C     0.00738   0.20002   0.14022   0.01267  Uiso   1.00
C53    C     0.03206   0.17184   0.19604   0.01267  Uiso   1.00
C54    C     0.13869   0.14291   0.20291   0.01267  Uiso   1.00
C55    C     0.21379   0.14341   0.15681   0.01267  Uiso   1.00
C56    C     0.94811   0.16789   0.24569   0.01267  Uiso   1.00
C57    C     0.84334   0.16326   0.24786   0.01267  Uiso   1.00
C58    C     0.75962   0.15828   0.29428   0.01267  Uiso   1.00
C59    C     0.65224   0.14746   0.29966   0.01267  Uiso   1.00
C60    C     0.57545   0.14425   0.34605   0.01267  Uiso   1.00
C61    C     0.60141   0.14679   0.39299   0.01267  Uiso   1.00
C62    C     0.70448   0.15362   0.39282   0.01267  Uiso   1.00
C63    C     0.78447   0.16033   0.34293   0.01267  Uiso   1.00
C64    C     0.89201   0.16769   0.33949   0.01267  Uiso   1.00
C65    C     0.97327   0.17203   0.29223   0.01267  Uiso   1.00
C66    C     0.62491   0.13529   0.25509   0.01267  Uiso   1.00
C67    C     0.60304   0.07596   0.27696   0.01267  Uiso   1.00
C68    C     0.57561   0.06029   0.23909   0.01267  Uiso   1.00
C69    C     0.58469   0.10151   0.17811   0.01267  Uiso   1.00
C70    C     0.60097   0.15623   0.15823   0.01267  Uiso   1.00
C71    C     0.62049   0.17291   0.19871   0.01267  Uiso   1.00
C72    C     0.73941   0.14589   0.44609   0.01267  Uiso   1.00
C73    C     0.80496   0.09674   0.47654   0.01267  Uiso   1.00
C74    C     0.84010   0.08780   0.52820   0.01267  Uiso   1.00
C75    C     0.80584   0.12746   0.54806   0.01267  Uiso   1.00
C76    C     0.73212   0.17798   0.52058   0.01267  Uiso   1.00
C77    C     0.68740   0.21870   0.54150   0.01267  Uiso   1.00
C78    C     0.61416   0.26794   0.51354   0.01267  Uiso   1.00
C79    C     0.58411   0.27679   0.46159   0.01267  Uiso   1.00
C80    C     0.56740   0.08300   0.13440   0.01267  Uiso   1.00
C81    C     0.62345   0.23695   0.44115   0.01267  Uiso   1.00
C82    C     0.69879   0.18741   0.46821   0.01267  Uiso   1.00
C83    C     0.84835   0.11415   0.60215   0.01267  Uiso   1.00
C84    C     0.90974   0.15276   0.60176   0.01267  Uiso   1.00
C85    C     0.95623   0.13657   0.65057   0.01267  Uiso   1.00
C86    C     0.94025   0.08375   0.70115   0.01267  Uiso   1.00
C87    C     0.88124   0.04656   0.70036   0.01267  Uiso   1.00
C88    C     0.83517   0.06163   0.65223   0.01267  Uiso   1.00
C89    C     0.99410   0.06600   0.75140   0.01267  Uiso   1.00
C90    C     0.63516   0.32184   0.56284   0.01267  Uiso   1.00
C91    C     0.56953   0.31147   0.53547   0.01267  Uiso   1.00
C92    C     0.59580   0.36390   0.58390   0.01267  Uiso   1.00
C93    C     0.48764   0.39196   0.57996   0.01267  Uiso   1.00
C94    C     0.42310   0.38030   0.55310   0.01267  Uiso   1.00
C95    C     0.46247   0.33837   0.53309   0.01267  Uiso   1.00
C96    C     0.44992   0.43528   0.59988   0.01267  Uiso   1.00
C97    C     0.98850   0.33100   0.44860   0.01267  Uiso   1.00
C98    C     0.96071   0.32949   0.39889   0.01267  Uiso   1.00
C99    C     0.87601   0.29839   0.40819   0.01267  Uiso   1.00
C100   C     0.84762   0.29998   0.35978   0.01267  Uiso   1.00
C101   C     0.89994   0.32816   0.30396   0.01267  Uiso   1.00
C102   C     0.98451   0.35709   0.29709   0.01267  Uiso   1.00
C103   C     0.01401   0.35659   0.34319   0.01267  Uiso   1.00
C104   C     0.86169   0.33211   0.25431   0.01267  Uiso   1.00
C105   C     0.75446   0.33674   0.25214   0.01267  Uiso   1.00
C106   C     0.71218   0.34172   0.20572   0.01267  Uiso   1.00
C107   C     0.59936   0.35254   0.20034   0.01267  Uiso   1.00
C108   C     0.56575   0.35575   0.15395   0.01267  Uiso   1.00
C109   C     0.64119   0.35321   0.10701   0.01267  Uiso   1.00
C110   C     0.75092   0.34638   0.10718   0.01267  Uiso   1.00
C111   C     0.78773   0.33967   0.15707   0.01267  Uiso   1.00
C112   C     0.89919   0.33231   0.16051   0.01267  Uiso   1.00
C113   C     0.93753   0.32797   0.20777   0.01267  Uiso   1.00
C114   C     0.51529   0.36471   0.24491   0.01267  Uiso   1.00
C115   C     0.45596   0.42404   0.22304   0.01267  Uiso   1.00
C116   C     0.37499   0.43971   0.26091   0.01267  Uiso   1.00
C117   C     0.36431   0.39849   0.32189   0.01267  Uiso   1.00
C118   C     0.41543   0.34377   0.34177   0.01267  Uiso   1.00
C119   C     0.49211   0.32709   0.30129   0.01267  Uiso   1.00
C120   C     0.83139   0.35411   0.05391   0.01267  Uiso   1.00
C121   C     0.87824   0.40326   0.02346   0.01267  Uiso   1.00
C122   C     0.95610   0.41220   0.97180   0.01267  Uiso   1.00
C123   C     0.98136   0.37254   0.95194   0.01267  Uiso   1.00
C124   C     0.93068   0.32202   0.97942   0.01267  Uiso   1.00
C125   C     0.94760   0.28130   0.95850   0.01267  Uiso   1.00
C126   C     0.89564   0.23206   0.98646   0.01267  Uiso   1.00
C127   C     0.82249   0.22321   0.03841   0.01267  Uiso   1.00
C128   C     0.28480   0.41700   0.36560   0.01267  Uiso   1.00
C129   C     0.80155   0.26305   0.05885   0.01267  Uiso   1.00
C130   C     0.85441   0.31259   0.03179   0.01267  Uiso   1.00
C131   C     0.06465   0.38585   0.89785   0.01267  Uiso   1.00
C132   C     0.16426   0.34724   0.89824   0.01267  Uiso   1.00
C133   C     0.24337   0.36343   0.84943   0.01267  Uiso   1.00
C134   C     0.22515   0.41625   0.79885   0.01267  Uiso   1.00
C135   C     0.12816   0.45344   0.79964   0.01267  Uiso   1.00
C136   C     0.04903   0.43837   0.84777   0.01267  Uiso   1.00
C137   C     0.31150   0.43400   0.74860   0.01267  Uiso   1.00
C138   C     0.01984   0.17816   0.93716   0.01267  Uiso   1.00
C139   C     0.91647   0.18853   0.96453   0.01267  Uiso   1.00
C140   C     0.04360   0.13610   0.91610   0.01267  Uiso   1.00
C141   C     0.95956   0.10804   0.92004   0.01267  Uiso   1.00
C142   C     0.85650   0.11970   0.94690   0.01267  Uiso   1.00
C143   C     0.83393   0.16163   0.96691   0.01267  Uiso   1.00
C144   C     0.98508   0.06472   0.90012   0.01267  Uiso   1.00
C145   C     0.23190   0.94860   0.83100   0.01267  Uiso   1.00
C146   C     0.31091   0.89889   0.82949   0.01267  Uiso   1.00
C147   C     0.41741   0.90819   0.79839   0.01267  Uiso   1.00
C148   C     0.49262   0.85978   0.79998   0.01267  Uiso   1.00
C149   C     0.46794   0.80396   0.82816   0.01267  Uiso   1.00
C150   C     0.36131   0.79709   0.85709   0.01267  Uiso   1.00
C151   C     0.28621   0.84319   0.85659   0.01267  Uiso   1.00
C152   C     0.55189   0.75431   0.83211   0.01267  Uiso   1.00
C153   C     0.65666   0.75214   0.83674   0.01267  Uiso   1.00
C154   C     0.74038   0.70572   0.84172   0.01267  Uiso   1.00
C155   C     0.84776   0.70034   0.85254   0.01267  Uiso   1.00
C156   C     0.92455   0.65395   0.85575   0.01267  Uiso   1.00
C157   C     0.89859   0.60701   0.85321   0.01267  Uiso   1.00
C158   C     0.79552   0.60718   0.84638   0.01267  Uiso   1.00
C159   C     0.71553   0.65707   0.83967   0.01267  Uiso   1.00
C160   C     0.60799   0.66051   0.83231   0.01267  Uiso   1.00
C161   C     0.52673   0.70777   0.82797   0.01267  Uiso   1.00
C162   C     0.87509   0.74491   0.86471   0.01267  Uiso   1.00
C163   C     0.89696   0.72304   0.92404   0.01267  Uiso   1.00
C164   C     0.92439   0.76091   0.93971   0.01267  Uiso   1.00
C165   C     0.91531   0.82189   0.89849   0.01267  Uiso   1.00
C166   C     0.89903   0.84177   0.84377   0.01267  Uiso   1.00
C167   C     0.87951   0.80129   0.82709   0.01267  Uiso   1.00
C168   C     0.76059   0.55391   0.85411   0.01267  Uiso   1.00
C169   C     0.69504   0.52346   0.90326   0.01267  Uiso   1.00
C170   C     0.65990   0.47180   0.91220   0.01267  Uiso   1.00
C171   C     0.69416   0.45194   0.87254   0.01267  Uiso   1.00
C172   C     0.76788   0.47942   0.82202   0.01267  Uiso   1.00
C173   C     0.81260   0.45850   0.78130   0.01267  Uiso   1.00
C174   C     0.88584   0.48646   0.73206   0.01267  Uiso   1.00
C175   C     0.91589   0.53841   0.72321   0.01267  Uiso   1.00
C176   C     0.93260   0.86560   0.91700   0.01267  Uiso   1.00
C177   C     0.87655   0.55885   0.76305   0.01267  Uiso   1.00
C178   C     0.80121   0.53179   0.81259   0.01267  Uiso   1.00
C179   C     0.65165   0.39785   0.88585   0.01267  Uiso   1.00
C180   C     0.59026   0.39824   0.84724   0.01267  Uiso   1.00
C181   C     0.54377   0.34943   0.86343   0.01267  Uiso   1.00
C182   C     0.55975   0.29885   0.91625   0.01267  Uiso   1.00
C183   C     0.61876   0.29964   0.95344   0.01267  Uiso   1.00
C184   C     0.66483   0.34777   0.93837   0.01267  Uiso   1.00
C185   C     0.50590   0.24860   0.93400   0.01267  Uiso   1.00
C186   C     0.86484   0.43716   0.67816   0.01267  Uiso   1.00
C187   C     0.93047   0.46453   0.68853   0.01267  Uiso   1.00
C188   C     0.90420   0.41610   0.63610   0.01267  Uiso   1.00
C189   C     0.01236   0.42004   0.60804   0.01267  Uiso   1.00
C190   C     0.07690   0.44690   0.61970   0.01267  Uiso   1.00
C191   C     0.03753   0.46691   0.66163   0.01267  Uiso   1.00
C192   C     0.05008   0.40012   0.56472   0.01267  Uiso   1.00
O1     O     0.89380   0.93933   0.64107   0.01267  Uiso   1.00
O2     O     0.64246   0.95620   0.55688   0.01267  Uiso   1.00
O3     O     0.56572   0.50126   0.69530   0.01267  Uiso   1.00
O4     O     0.43739   0.56160   0.64162   0.01267  Uiso   1.00
O5     O     0.28566   0.65954   0.53474   0.01267  Uiso   1.00
O6     O     0.21305   0.58286   0.61384   0.01267  Uiso   1.00
O7     O     0.21434   0.29916   0.52316   0.01267  Uiso   1.00
O8     O     0.09486   0.24645   0.59383   0.01267  Uiso   1.00
O9     O     0.41653   0.12088   0.94766   0.01267  Uiso   1.00
O10    O     0.58651   0.09584   0.96214   0.01267  Uiso   1.00
O11    O     0.52580   0.14107   0.43933   0.01267  Uiso   1.00
O12    O     0.84446   0.05688   0.45620   0.01267  Uiso   1.00
O13    O     0.23772   0.19530   0.00126   0.01267  Uiso   1.00
O14    O     0.35939   0.14162   0.06160   0.01267  Uiso   1.00
O15    O     0.52006   0.03474   0.15954   0.01267  Uiso   1.00
O16    O     0.59025   0.11384   0.08286   0.01267  Uiso   1.00
O17    O     0.96334   0.02316   0.79916   0.01267  Uiso   1.00
O18    O     0.06486   0.09383   0.74645   0.01267  Uiso   1.00
O19    O     0.51493   0.44766   0.62088   0.01267  Uiso   1.00
O20    O     0.35551   0.46214   0.59584   0.01267  Uiso   1.00
O21    O     0.60620   0.35893   0.06067   0.01267  Uiso   1.00
O22    O     0.85754   0.44312   0.04380   0.01267  Uiso   1.00
O23    O     0.93428   0.30470   0.49874   0.01267  Uiso   1.00
O24    O     0.06261   0.35838   0.43840   0.01267  Uiso   1.00
O25    O     0.21434   0.46526   0.34046   0.01267  Uiso   1.00
O26    O     0.28695   0.38616   0.41714   0.01267  Uiso   1.00
O27    O     0.28566   0.47684   0.70084   0.01267  Uiso   1.00
O28    O     0.40514   0.40617   0.75355   0.01267  Uiso   1.00
O29    O     0.08347   0.05234   0.87912   0.01267  Uiso   1.00
O30    O     0.91349   0.03786   0.90416   0.01267  Uiso   1.00
O31    O     0.97420   0.56067   0.85893   0.01267  Uiso   1.00
O32    O     0.65554   0.54380   0.94312   0.01267  Uiso   1.00
O33    O     0.26228   0.99874   0.80470   0.01267  Uiso   1.00
O34    O     0.14061   0.93840   0.85838   0.01267  Uiso   1.00
O35    O     0.97994   0.84046   0.96526   0.01267  Uiso   1.00
O36    O     0.90975   0.91714   0.88616   0.01267  Uiso   1.00
O37    O     0.53666   0.20084   0.97684   0.01267  Uiso   1.00
O38    O     0.43514   0.25355   0.90617   0.01267  Uiso   1.00
O39    O     0.98507   0.37912   0.55234   0.01267  Uiso   1.00
O40    O     0.14449   0.40416   0.53786   0.01267  Uiso   1.00
