data_TADYII_clean
_audit_creation_date              2014-07-02
_audit_creation_method            'Materials Studio'
_symmetry_space_group_name_H-M    'P1'
_symmetry_Int_Tables_number       1
_symmetry_cell_setting            triclinic
loop_
_symmetry_equiv_pos_as_xyz
  x,y,z
_cell_length_a                    15.9007
_cell_length_b                    15.9007
_cell_length_c                    15.9007
_cell_angle_alpha                 63.1563
_cell_angle_beta                  74.0844
_cell_angle_gamma                 105.9160
loop_
_atom_site_label
_atom_site_type_symbol
_atom_site_fract_x
_atom_site_fract_y
_atom_site_fract_z
_atom_site_U_iso_or_equiv
_atom_site_adp_type
_atom_site_occupancy
Ni1    Ni    1.00000   0.50000   0.50000   0.01267  Uiso   1.00
Ni2    Ni    0.50000   0.00000   0.50000   0.01267  Uiso   1.00
Ni3    Ni    1.00000   0.50000   0.00000   0.01267  Uiso   1.00
Ni4    Ni    0.50000   0.50000   0.50000   0.01267  Uiso   1.00
H1     H     0.15920   0.54420   0.29740   0.01267  Uiso   1.00
H2     H     0.25580   0.61580   0.28940   0.01267  Uiso   1.00
H3     H     0.08680   0.66390   0.25790   0.01267  Uiso   1.00
H4     H     0.18690   0.75370   0.22380   0.01267  Uiso   1.00
H5     H     0.93660   0.73190   0.38770   0.01267  Uiso   1.00
H6     H     0.93480   0.65430   0.35230   0.01267  Uiso   1.00
H7     H     0.20140   0.43290   0.41850   0.01267  Uiso   1.00
H8     H     0.20000   0.49450   0.47290   0.01267  Uiso   1.00
H9     H     0.11790   0.75350   0.41980   0.01267  Uiso   1.00
H10    H     0.19870   0.83900   0.30090   0.01267  Uiso   1.00
H11    H     0.14770   0.92800   0.36630   0.01267  Uiso   1.00
H12    H     0.10760   0.93640   0.28460   0.01267  Uiso   1.00
H13    H     0.03670   0.85480   0.40710   0.01267  Uiso   1.00
H14    H     0.17060   0.65500   0.38780   0.01267  Uiso   1.00
H15    H     0.04020   0.36940   0.47580   0.01267  Uiso   1.00
H16    H     0.34080   0.04340   0.61500   0.01267  Uiso   1.00
H17    H     0.24420   0.95480   0.64000   0.01267  Uiso   1.00
H18    H     0.41320   0.15530   0.42290   0.01267  Uiso   1.00
H19    H     0.31310   0.08930   0.43320   0.01267  Uiso   1.00
H20    H     0.56340   0.17570   0.20470   0.01267  Uiso   1.00
H21    H     0.56520   0.21290   0.28050   0.01267  Uiso   1.00
H22    H     0.29860   0.88010   0.76850   0.01267  Uiso   1.00
H23    H     0.30000   0.82710   0.70550   0.01267  Uiso   1.00
H24    H     0.38210   0.96230   0.36440   0.01267  Uiso   1.00
H25    H     0.30130   0.00040   0.35970   0.01267  Uiso   1.00
H26    H     0.35230   0.98600   0.21970   0.01267  Uiso   1.00
H27    H     0.39240   0.10780   0.17120   0.01267  Uiso   1.00
H28    H     0.46330   0.05620   0.18190   0.01267  Uiso   1.00
H29    H     0.32940   0.94160   0.51560   0.01267  Uiso   1.00
H30    H     0.45980   0.98400   0.67080   0.01267  Uiso   1.00
H31    H     0.15840   0.70260   0.95660   0.01267  Uiso   1.00
H32    H     0.09480   0.71060   0.04520   0.01267  Uiso   1.00
H33    H     0.07820   0.74210   0.84470   0.01267  Uiso   1.00
H34    H     0.02250   0.77620   0.91070   0.01267  Uiso   1.00
H35    H     0.88040   0.61230   0.82430   0.01267  Uiso   1.00
H36    H     0.99340   0.64770   0.78710   0.01267  Uiso   1.00
H37    H     0.14860   0.58150   0.11990   0.01267  Uiso   1.00
H38    H     0.03260   0.52710   0.17290   0.01267  Uiso   1.00
H39    H     0.82670   0.58020   0.03770   0.01267  Uiso   1.00
H40    H     0.86010   0.69910   0.99960   0.01267  Uiso   1.00
H41    H     0.70570   0.63370   0.01400   0.01267  Uiso   1.00
H42    H     0.77900   0.71540   0.89220   0.01267  Uiso   1.00
H43    H     0.73810   0.59290   0.94380   0.01267  Uiso   1.00
H44    H     0.95720   0.61220   0.05840   0.01267  Uiso   1.00
H45    H     0.15480   0.52420   0.01600   0.01267  Uiso   1.00
H46    H     0.34160   0.38500   0.45580   0.01267  Uiso   1.00
H47    H     0.40520   0.36000   0.38420   0.01267  Uiso   1.00
H48    H     0.42180   0.57710   0.33610   0.01267  Uiso   1.00
H49    H     0.47750   0.56680   0.24630   0.01267  Uiso   1.00
H50    H     0.61960   0.79530   0.26810   0.01267  Uiso   1.00
H51    H     0.50660   0.71950   0.34570   0.01267  Uiso   1.00
H52    H     0.35140   0.23150   0.56710   0.01267  Uiso   1.00
H53    H     0.46740   0.29450   0.50550   0.01267  Uiso   1.00
H54    H     0.67330   0.63560   0.24650   0.01267  Uiso   1.00
H55    H     0.63990   0.64030   0.16100   0.01267  Uiso   1.00
H56    H     0.79430   0.78030   0.07200   0.01267  Uiso   1.00
H57    H     0.72100   0.82880   0.06360   0.01267  Uiso   1.00
H58    H     0.76190   0.81810   0.14520   0.01267  Uiso   1.00
H59    H     0.54280   0.48440   0.34500   0.01267  Uiso   1.00
H60    H     0.34520   0.32920   0.63060   0.01267  Uiso   1.00
H61    H     0.84080   0.45580   0.70260   0.01267  Uiso   1.00
H62    H     0.74420   0.38420   0.71060   0.01267  Uiso   1.00
H63    H     0.91320   0.33610   0.74210   0.01267  Uiso   1.00
H64    H     0.81310   0.24630   0.77620   0.01267  Uiso   1.00
H65    H     0.06340   0.26810   0.61230   0.01267  Uiso   1.00
H66    H     0.06520   0.34570   0.64770   0.01267  Uiso   1.00
H67    H     0.79860   0.56710   0.58150   0.01267  Uiso   1.00
H68    H     0.80000   0.50550   0.52710   0.01267  Uiso   1.00
H69    H     0.88210   0.24650   0.58020   0.01267  Uiso   1.00
H70    H     0.80130   0.16100   0.69910   0.01267  Uiso   1.00
H71    H     0.85230   0.07200   0.63370   0.01267  Uiso   1.00
H72    H     0.89240   0.06360   0.71540   0.01267  Uiso   1.00
H73    H     0.96330   0.14520   0.59290   0.01267  Uiso   1.00
H74    H     0.82940   0.34500   0.61220   0.01267  Uiso   1.00
H75    H     0.95980   0.63060   0.52420   0.01267  Uiso   1.00
H76    H     0.65920   0.95660   0.38500   0.01267  Uiso   1.00
H77    H     0.75580   0.04520   0.36000   0.01267  Uiso   1.00
H78    H     0.58680   0.84470   0.57710   0.01267  Uiso   1.00
H79    H     0.68690   0.91070   0.56680   0.01267  Uiso   1.00
H80    H     0.43660   0.82430   0.79530   0.01267  Uiso   1.00
H81    H     0.43480   0.78710   0.71950   0.01267  Uiso   1.00
H82    H     0.70140   0.11990   0.23150   0.01267  Uiso   1.00
H83    H     0.70000   0.17290   0.29450   0.01267  Uiso   1.00
H84    H     0.61790   0.03770   0.63560   0.01267  Uiso   1.00
H85    H     0.69870   0.99960   0.64030   0.01267  Uiso   1.00
H86    H     0.64770   0.01400   0.78030   0.01267  Uiso   1.00
H87    H     0.60760   0.89220   0.82880   0.01267  Uiso   1.00
H88    H     0.53670   0.94380   0.81810   0.01267  Uiso   1.00
H89    H     0.67060   0.05840   0.48440   0.01267  Uiso   1.00
H90    H     0.54020   0.01600   0.32920   0.01267  Uiso   1.00
H91    H     0.84160   0.29740   0.04340   0.01267  Uiso   1.00
H92    H     0.90520   0.28940   0.95480   0.01267  Uiso   1.00
H93    H     0.92180   0.25790   0.15530   0.01267  Uiso   1.00
H94    H     0.97750   0.22380   0.08930   0.01267  Uiso   1.00
H95    H     0.11960   0.38770   0.17570   0.01267  Uiso   1.00
H96    H     0.00660   0.35230   0.21290   0.01267  Uiso   1.00
H97    H     0.85140   0.41850   0.88010   0.01267  Uiso   1.00
H98    H     0.96740   0.47290   0.82710   0.01267  Uiso   1.00
H99    H     0.17330   0.41980   0.96230   0.01267  Uiso   1.00
H100   H     0.13990   0.30090   0.00040   0.01267  Uiso   1.00
H101   H     0.29430   0.36630   0.98600   0.01267  Uiso   1.00
H102   H     0.22100   0.28460   0.10780   0.01267  Uiso   1.00
H103   H     0.26190   0.40710   0.05620   0.01267  Uiso   1.00
H104   H     0.04280   0.38780   0.94160   0.01267  Uiso   1.00
H105   H     0.84520   0.47580   0.98400   0.01267  Uiso   1.00
H106   H     0.65840   0.61500   0.54420   0.01267  Uiso   1.00
H107   H     0.59480   0.64000   0.61580   0.01267  Uiso   1.00
H108   H     0.57820   0.42290   0.66390   0.01267  Uiso   1.00
H109   H     0.52250   0.43320   0.75370   0.01267  Uiso   1.00
H110   H     0.38040   0.20470   0.73190   0.01267  Uiso   1.00
H111   H     0.49340   0.28050   0.65430   0.01267  Uiso   1.00
H112   H     0.64860   0.76850   0.43290   0.01267  Uiso   1.00
H113   H     0.53260   0.70550   0.49450   0.01267  Uiso   1.00
H114   H     0.32670   0.36440   0.75350   0.01267  Uiso   1.00
H115   H     0.36010   0.35970   0.83900   0.01267  Uiso   1.00
H116   H     0.20570   0.21970   0.92800   0.01267  Uiso   1.00
H117   H     0.27900   0.17120   0.93640   0.01267  Uiso   1.00
H118   H     0.23810   0.18190   0.85480   0.01267  Uiso   1.00
H119   H     0.45720   0.51560   0.65500   0.01267  Uiso   1.00
H120   H     0.65480   0.67080   0.36940   0.01267  Uiso   1.00
W1     W     0.75000   0.37500   0.37500   0.01267  Uiso   1.00
W2     W     0.25000   0.62500   0.62500   0.01267  Uiso   1.00
C1     C     0.87802   0.43822   0.39120   0.01267  Uiso   1.00
C2     C     0.70091   0.28910   0.54539   0.01267  Uiso   1.00
C3     C     0.18580   0.56710   0.33570   0.01267  Uiso   1.00
C4     C     0.12220   0.69890   0.28310   0.01267  Uiso   1.00
C5     C     0.96430   0.68570   0.38360   0.01267  Uiso   1.00
C6     C     0.17050   0.47130   0.43640   0.01267  Uiso   1.00
C7     C     0.12900   0.80540   0.34940   0.01267  Uiso   1.00
C8     C     0.10280   0.88860   0.35220   0.01267  Uiso   1.00
C9     C     0.62198   0.23078   0.43980   0.01267  Uiso   1.00
C10    C     0.79909   0.25370   0.41181   0.01267  Uiso   1.00
C11    C     0.31420   0.97850   0.61870   0.01267  Uiso   1.00
C12    C     0.37780   0.09470   0.42330   0.01267  Uiso   1.00
C13    C     0.53570   0.15210   0.27860   0.01267  Uiso   1.00
C14    C     0.32950   0.89310   0.69920   0.01267  Uiso   1.00
C15    C     0.37100   0.02160   0.32360   0.01267  Uiso   1.00
C16    C     0.39720   0.04500   0.21420   0.01267  Uiso   1.00
C17    C     0.17058   0.60880   0.76922   0.01267  Uiso   1.00
C18    C     0.16551   0.45461   0.74630   0.01267  Uiso   1.00
C19    C     0.09720   0.66430   0.02150   0.01267  Uiso   1.00
C20    C     0.01800   0.71690   0.90530   0.01267  Uiso   1.00
C21    C     0.93070   0.61640   0.84790   0.01267  Uiso   1.00
C22    C     0.09230   0.56360   0.10690   0.01267  Uiso   1.00
C23    C     0.84520   0.65060   0.97840   0.01267  Uiso   1.00
C24    C     0.75920   0.64780   0.95500   0.01267  Uiso   1.00
C25    C     0.32942   0.56020   0.56178   0.01267  Uiso   1.00
C26    C     0.33449   0.58819   0.71090   0.01267  Uiso   1.00
C27    C     0.40280   0.38130   0.43290   0.01267  Uiso   1.00
C28    C     0.48200   0.57670   0.30110   0.01267  Uiso   1.00
C29    C     0.56930   0.72140   0.31430   0.01267  Uiso   1.00
C30    C     0.40770   0.30080   0.52870   0.01267  Uiso   1.00
C31    C     0.65480   0.67640   0.19460   0.01267  Uiso   1.00
C32    C     0.74080   0.78580   0.11140   0.01267  Uiso   1.00
C33    C     0.12198   0.56178   0.60880   0.01267  Uiso   1.00
C34    C     0.29909   0.71090   0.45461   0.01267  Uiso   1.00
C35    C     0.81420   0.43290   0.66430   0.01267  Uiso   1.00
C36    C     0.87780   0.30110   0.71690   0.01267  Uiso   1.00
C37    C     0.03570   0.31430   0.61640   0.01267  Uiso   1.00
C38    C     0.82950   0.52870   0.56360   0.01267  Uiso   1.00
C39    C     0.87100   0.19460   0.65060   0.01267  Uiso   1.00
C40    C     0.89720   0.11140   0.64780   0.01267  Uiso   1.00
C41    C     0.37802   0.76922   0.56020   0.01267  Uiso   1.00
C42    C     0.20091   0.74630   0.58819   0.01267  Uiso   1.00
C43    C     0.68580   0.02150   0.38130   0.01267  Uiso   1.00
C44    C     0.62220   0.90530   0.57670   0.01267  Uiso   1.00
C45    C     0.46430   0.84790   0.72140   0.01267  Uiso   1.00
C46    C     0.67050   0.10690   0.30080   0.01267  Uiso   1.00
C47    C     0.62900   0.97840   0.67640   0.01267  Uiso   1.00
C48    C     0.60280   0.95500   0.78580   0.01267  Uiso   1.00
C49    C     0.82942   0.39120   0.23078   0.01267  Uiso   1.00
C50    C     0.83449   0.54539   0.25370   0.01267  Uiso   1.00
C51    C     0.90280   0.33570   0.97850   0.01267  Uiso   1.00
C52    C     0.98200   0.28310   0.09470   0.01267  Uiso   1.00
C53    C     0.06930   0.38360   0.15210   0.01267  Uiso   1.00
C54    C     0.90770   0.43640   0.89310   0.01267  Uiso   1.00
C55    C     0.15480   0.34940   0.02160   0.01267  Uiso   1.00
C56    C     0.24080   0.35220   0.04500   0.01267  Uiso   1.00
C57    C     0.67058   0.43980   0.43822   0.01267  Uiso   1.00
C58    C     0.66551   0.41181   0.28910   0.01267  Uiso   1.00
C59    C     0.59720   0.61870   0.56710   0.01267  Uiso   1.00
C60    C     0.51800   0.42330   0.69890   0.01267  Uiso   1.00
C61    C     0.43070   0.27860   0.68570   0.01267  Uiso   1.00
C62    C     0.59230   0.69920   0.47130   0.01267  Uiso   1.00
C63    C     0.34520   0.32360   0.80540   0.01267  Uiso   1.00
C64    C     0.25920   0.21420   0.88860   0.01267  Uiso   1.00
N1     N     0.94299   0.46926   0.40633   0.01267  Uiso   1.00
N2     N     0.67695   0.24542   0.63637   0.01267  Uiso   1.00
N3     N     0.13475   0.62064   0.36709   0.01267  Uiso   1.00
N4     N     0.07015   0.74926   0.31491   0.01267  Uiso   1.00
N5     N     0.06256   0.40121   0.50605   0.01267  Uiso   1.00
N6     N     0.55701   0.15068   0.47373   0.01267  Uiso   1.00
N7     N     0.82305   0.18668   0.43153   0.01267  Uiso   1.00
N8     N     0.36525   0.99816   0.51411   0.01267  Uiso   1.00
N9     N     0.42985   0.11494   0.32089   0.01267  Uiso   1.00
N10    N     0.43744   0.93139   0.66135   0.01267  Uiso   1.00
N11    N     0.12441   0.59367   0.84932   0.01267  Uiso   1.00
N12    N     0.11821   0.36363   0.81332   0.01267  Uiso   1.00
N13    N     0.01227   0.63291   0.00184   0.01267  Uiso   1.00
N14    N     0.93583   0.68509   0.88506   0.01267  Uiso   1.00
N15    N     0.09274   0.49395   0.06861   0.01267  Uiso   1.00
N16    N     0.37559   0.52627   0.53074   0.01267  Uiso   1.00
N17    N     0.38179   0.56847   0.75458   0.01267  Uiso   1.00
N18    N     0.48773   0.48589   0.37936   0.01267  Uiso   1.00
N19    N     0.56417   0.67911   0.25074   0.01267  Uiso   1.00
N20    N     0.40726   0.33865   0.59879   0.01267  Uiso   1.00
N21    N     0.05701   0.53074   0.59367   0.01267  Uiso   1.00
N22    N     0.32305   0.75458   0.36363   0.01267  Uiso   1.00
N23    N     0.86525   0.37936   0.63291   0.01267  Uiso   1.00
N24    N     0.92985   0.25074   0.68509   0.01267  Uiso   1.00
N25    N     0.93744   0.59879   0.49395   0.01267  Uiso   1.00
N26    N     0.44299   0.84932   0.52627   0.01267  Uiso   1.00
N27    N     0.17695   0.81332   0.56847   0.01267  Uiso   1.00
N28    N     0.63475   0.00184   0.48589   0.01267  Uiso   1.00
N29    N     0.57015   0.88506   0.67911   0.01267  Uiso   1.00
N30    N     0.56256   0.06861   0.33865   0.01267  Uiso   1.00
N31    N     0.87559   0.40633   0.15068   0.01267  Uiso   1.00
N32    N     0.88179   0.63637   0.18668   0.01267  Uiso   1.00
N33    N     0.98773   0.36709   0.99816   0.01267  Uiso   1.00
N34    N     0.06417   0.31491   0.11494   0.01267  Uiso   1.00
N35    N     0.90726   0.50605   0.93139   0.01267  Uiso   1.00
N36    N     0.62441   0.47373   0.46926   0.01267  Uiso   1.00
N37    N     0.61821   0.43153   0.24542   0.01267  Uiso   1.00
N38    N     0.51227   0.51411   0.62064   0.01267  Uiso   1.00
N39    N     0.43583   0.32089   0.74926   0.01267  Uiso   1.00
N40    N     0.59274   0.66135   0.40121   0.01267  Uiso   1.00
