data_image0
_cell_length_a       17.124
_cell_length_b       17.124
_cell_length_c       5.3921
_cell_angle_alpha    90
_cell_angle_beta     90
_cell_angle_gamma    90

_symmetry_space_group_name_H-M    "P 1"
_symmetry_int_tables_number       1

loop_
  _symmetry_equiv_pos_as_xyz
  'x, y, z'

loop_
  _atom_site_label
  _atom_site_occupancy
  _atom_site_fract_x
  _atom_site_fract_y
  _atom_site_fract_z
  _atom_site_thermal_displace_type
  _atom_site_B_iso_or_equiv
  _atom_site_type_symbol
  N1       1.0000 0.27801  0.36691  0.25520  Biso   1.000  N
  N2       1.0000 0.19234  0.33264  0.53860  Biso   1.000  N
  C1       1.0000 0.26450  0.32068  0.44840  Biso   1.000  C
  C2       1.0000 0.21040  0.41040  0.22710  Biso   1.000  C
  H1       1.0000 0.20250  0.44820  0.10580  Biso   1.000  H
  C3       1.0000 0.15810  0.39010  0.39950  Biso   1.000  C
  H2       1.0000 0.10840  0.41100  0.42080  Biso   1.000  H
  C4       1.0000 0.15410  0.28840  0.73770  Biso   1.000  C
  H3       1.0000 0.13850  0.32350  0.86990  Biso   1.000  H
  H4       1.0000 0.19010  0.25030  0.80570  Biso   1.000  H
  C5       1.0000 0.08290  0.24750  0.63200  Biso   1.000  C
  H5       1.0000 0.04750  0.28650  0.56580  Biso   1.000  H
  H6       1.0000 0.09930  0.21440  0.49560  Biso   1.000  H
  C6       1.0000 0.04000  0.19870  0.81740  Biso   1.000  C
  O1       1.0000 0.97650  0.16960  0.74910  Biso   1.000  O
  O2       1.0000 0.07010  0.19040  0.02870  Biso   1.000  O
  H7       1.0000 0.04190  0.16280  0.11450  Biso   1.000  H
  N3       1.0000 0.72199  0.63309  0.25520  Biso   1.000  N
  N4       1.0000 0.80766  0.66736  0.53860  Biso   1.000  N
  C7       1.0000 0.73550  0.67932  0.44840  Biso   1.000  C
  C8       1.0000 0.78960  0.58960  0.22710  Biso   1.000  C
  H8       1.0000 0.79750  0.55180  0.10580  Biso   1.000  H
  C9       1.0000 0.84190  0.60990  0.39950  Biso   1.000  C
  H9       1.0000 0.89160  0.58900  0.42080  Biso   1.000  H
  C10      1.0000 0.84590  0.71160  0.73770  Biso   1.000  C
  H10      1.0000 0.86150  0.67650  0.86990  Biso   1.000  H
  H11      1.0000 0.80990  0.74970  0.80570  Biso   1.000  H
  C11      1.0000 0.91710  0.75250  0.63200  Biso   1.000  C
  H12      1.0000 0.95250  0.71350  0.56580  Biso   1.000  H
  H13      1.0000 0.90070  0.78560  0.49560  Biso   1.000  H
  C12      1.0000 0.96000  0.80130  0.81740  Biso   1.000  C
  O3       1.0000 0.02350  0.83040  0.74910  Biso   1.000  O
  O4       1.0000 0.92990  0.80960  0.02870  Biso   1.000  O
  H14      1.0000 0.95810  0.83720  0.11450  Biso   1.000  H
  N5       1.0000 0.13309  0.77801  0.25520  Biso   1.000  N
  N6       1.0000 0.16736  0.69234  0.53860  Biso   1.000  N
  C13      1.0000 0.17932  0.76450  0.44840  Biso   1.000  C
  C14      1.0000 0.08960  0.71040  0.22710  Biso   1.000  C
  H15      1.0000 0.05180  0.70250  0.10580  Biso   1.000  H
  C15      1.0000 0.10990  0.65810  0.39950  Biso   1.000  C
  H16      1.0000 0.08900  0.60840  0.42080  Biso   1.000  H
  C16      1.0000 0.21160  0.65410  0.73770  Biso   1.000  C
  H17      1.0000 0.17650  0.63850  0.86990  Biso   1.000  H
  H18      1.0000 0.24970  0.69010  0.80570  Biso   1.000  H
  C17      1.0000 0.25250  0.58290  0.63200  Biso   1.000  C
  H19      1.0000 0.21350  0.54750  0.56580  Biso   1.000  H
  H20      1.0000 0.28560  0.59930  0.49560  Biso   1.000  H
  C18      1.0000 0.30130  0.54000  0.81740  Biso   1.000  C
  O5       1.0000 0.33040  0.47650  0.74910  Biso   1.000  O
  O6       1.0000 0.30960  0.57010  0.02870  Biso   1.000  O
  H21      1.0000 0.33720  0.54190  0.11450  Biso   1.000  H
  N7       1.0000 0.86691  0.22199  0.25520  Biso   1.000  N
  N8       1.0000 0.83264  0.30766  0.53860  Biso   1.000  N
  C19      1.0000 0.82068  0.23550  0.44840  Biso   1.000  C
  C20      1.0000 0.91040  0.28960  0.22710  Biso   1.000  C
  H22      1.0000 0.94820  0.29750  0.10580  Biso   1.000  H
  C21      1.0000 0.89010  0.34190  0.39950  Biso   1.000  C
  H23      1.0000 0.91100  0.39160  0.42080  Biso   1.000  H
  C22      1.0000 0.78840  0.34590  0.73770  Biso   1.000  C
  H24      1.0000 0.82350  0.36150  0.86990  Biso   1.000  H
  H25      1.0000 0.75030  0.30990  0.80570  Biso   1.000  H
  C23      1.0000 0.74750  0.41710  0.63200  Biso   1.000  C
  H26      1.0000 0.78650  0.45250  0.56580  Biso   1.000  H
  H27      1.0000 0.71440  0.40070  0.49560  Biso   1.000  H
  C24      1.0000 0.69870  0.46000  0.81740  Biso   1.000  C
  O7       1.0000 0.66960  0.52350  0.74910  Biso   1.000  O
  O8       1.0000 0.69040  0.42990  0.02870  Biso   1.000  O
  H28      1.0000 0.66280  0.45810  0.11450  Biso   1.000  H
  N9       1.0000 0.22199  0.86691  0.74480  Biso   1.000  N
  N10      1.0000 0.30766  0.83264  0.46140  Biso   1.000  N
  C25      1.0000 0.23550  0.82068  0.55160  Biso   1.000  C
  C26      1.0000 0.28960  0.91040  0.77290  Biso   1.000  C
  H29      1.0000 0.29750  0.94820  0.89420  Biso   1.000  H
  C27      1.0000 0.34190  0.89010  0.60050  Biso   1.000  C
  H30      1.0000 0.39160  0.91100  0.57920  Biso   1.000  H
  C28      1.0000 0.34590  0.78840  0.26230  Biso   1.000  C
  H31      1.0000 0.36150  0.82350  0.13010  Biso   1.000  H
  H32      1.0000 0.30990  0.75030  0.19430  Biso   1.000  H
  C29      1.0000 0.41710  0.74750  0.36800  Biso   1.000  C
  H33      1.0000 0.45250  0.78650  0.43420  Biso   1.000  H
  H34      1.0000 0.40070  0.71440  0.50440  Biso   1.000  H
  C30      1.0000 0.46000  0.69870  0.18260  Biso   1.000  C
  O9       1.0000 0.52350  0.66960  0.25090  Biso   1.000  O
  O10      1.0000 0.42990  0.69040  0.97130  Biso   1.000  O
  H35      1.0000 0.45810  0.66280  0.88550  Biso   1.000  H
  N11      1.0000 0.77801  0.13309  0.74480  Biso   1.000  N
  N12      1.0000 0.69234  0.16736  0.46140  Biso   1.000  N
  C31      1.0000 0.76450  0.17932  0.55160  Biso   1.000  C
  C32      1.0000 0.71040  0.08960  0.77290  Biso   1.000  C
  H36      1.0000 0.70250  0.05180  0.89420  Biso   1.000  H
  C33      1.0000 0.65810  0.10990  0.60050  Biso   1.000  C
  H37      1.0000 0.60840  0.08900  0.57920  Biso   1.000  H
  C34      1.0000 0.65410  0.21160  0.26230  Biso   1.000  C
  H38      1.0000 0.63850  0.17650  0.13010  Biso   1.000  H
  H39      1.0000 0.69010  0.24970  0.19430  Biso   1.000  H
  C35      1.0000 0.58290  0.25250  0.36800  Biso   1.000  C
  H40      1.0000 0.54750  0.21350  0.43420  Biso   1.000  H
  H41      1.0000 0.59930  0.28560  0.50440  Biso   1.000  H
  C36      1.0000 0.54000  0.30130  0.18260  Biso   1.000  C
  O11      1.0000 0.47650  0.33040  0.25090  Biso   1.000  O
  O12      1.0000 0.57010  0.30960  0.97130  Biso   1.000  O
  H42      1.0000 0.54190  0.33720  0.88550  Biso   1.000  H
  N13      1.0000 0.36691  0.27801  0.74480  Biso   1.000  N
  N14      1.0000 0.33264  0.19234  0.46140  Biso   1.000  N
  C37      1.0000 0.32068  0.26450  0.55160  Biso   1.000  C
  C38      1.0000 0.41040  0.21040  0.77290  Biso   1.000  C
  H43      1.0000 0.44820  0.20250  0.89420  Biso   1.000  H
  C39      1.0000 0.39010  0.15810  0.60050  Biso   1.000  C
  H44      1.0000 0.41100  0.10840  0.57920  Biso   1.000  H
  C40      1.0000 0.28840  0.15410  0.26230  Biso   1.000  C
  H45      1.0000 0.32350  0.13850  0.13010  Biso   1.000  H
  H46      1.0000 0.25030  0.19010  0.19430  Biso   1.000  H
  C41      1.0000 0.24750  0.08290  0.36800  Biso   1.000  C
  H47      1.0000 0.28650  0.04750  0.43420  Biso   1.000  H
  H48      1.0000 0.21440  0.09930  0.50440  Biso   1.000  H
  C42      1.0000 0.19870  0.04000  0.18260  Biso   1.000  C
  O13      1.0000 0.16960  0.97650  0.25090  Biso   1.000  O
  O14      1.0000 0.19040  0.07010  0.97130  Biso   1.000  O
  H49      1.0000 0.16280  0.04190  0.88550  Biso   1.000  H
  N15      1.0000 0.63309  0.72199  0.74480  Biso   1.000  N
  N16      1.0000 0.66736  0.80766  0.46140  Biso   1.000  N
  C43      1.0000 0.67932  0.73550  0.55160  Biso   1.000  C
  C44      1.0000 0.58960  0.78960  0.77290  Biso   1.000  C
  H50      1.0000 0.55180  0.79750  0.89420  Biso   1.000  H
  C45      1.0000 0.60990  0.84190  0.60050  Biso   1.000  C
  H51      1.0000 0.58900  0.89160  0.57920  Biso   1.000  H
  C46      1.0000 0.71160  0.84590  0.26230  Biso   1.000  C
  H52      1.0000 0.67650  0.86150  0.13010  Biso   1.000  H
  H53      1.0000 0.74970  0.80990  0.19430  Biso   1.000  H
  C47      1.0000 0.75250  0.91710  0.36800  Biso   1.000  C
  H54      1.0000 0.71350  0.95250  0.43420  Biso   1.000  H
  H55      1.0000 0.78560  0.90070  0.50440  Biso   1.000  H
  C48      1.0000 0.80130  0.96000  0.18260  Biso   1.000  C
  O15      1.0000 0.83040  0.02350  0.25090  Biso   1.000  O
  O16      1.0000 0.80960  0.92990  0.97130  Biso   1.000  O
  H56      1.0000 0.83720  0.95810  0.88550  Biso   1.000  H
  Cd1      1.0000 0.38470  0.38470  0.00000  Biso   1.000  Cd
  Cd2      1.0000 0.61530  0.61530  0.00000  Biso   1.000  Cd
  Cd3      1.0000 0.11530  0.88470  0.00000  Biso   1.000  Cd
  Cd4      1.0000 0.88470  0.11530  0.00000  Biso   1.000  Cd
