data_image0
_cell_length_a       8.611
_cell_length_b       9.096
_cell_length_c       11.371
_cell_angle_alpha    104.811
_cell_angle_beta     111.368
_cell_angle_gamma    94.248

_symmetry_space_group_name_H-M    "P 1"
_symmetry_int_tables_number       1

loop_
  _symmetry_equiv_pos_as_xyz
  'x, y, z'

loop_
  _atom_site_label
  _atom_site_occupancy
  _atom_site_fract_x
  _atom_site_fract_y
  _atom_site_fract_z
  _atom_site_thermal_displace_type
  _atom_site_B_iso_or_equiv
  _atom_site_type_symbol
  P1       1.0000 0.17090  0.48318  0.18037  Biso   1.000  P
  P2       1.0000 0.22918  0.46388  0.66575  Biso   1.000  P
  P3       1.0000 0.85930  0.99224  0.20976  Biso   1.000  P
  Al1      1.0000 0.04841  0.32627  0.35600  Biso   1.000  Al
  Al2      1.0000 0.17332  0.36380  0.89655  Biso   1.000  Al
  O1       1.0000 0.19040  0.36840  0.06570  Biso   1.000  O
  O2       1.0000 0.02610  0.56670  0.13780  Biso   1.000  O
  O3       1.0000 0.33250  0.61200  0.25760  Biso   1.000  O
  O4       1.0000 0.15530  0.39560  0.27420  Biso   1.000  O
  O5       1.0000 0.41800  0.52250  0.73380  Biso   1.000  O
  O6       1.0000 0.17950  0.36930  0.52060  Biso   1.000  O
  O7       1.0000 0.16790  0.35720  0.73020  Biso   1.000  O
  O8       1.0000 0.13950  0.60440  0.66880  Biso   1.000  O
  O9       1.0000 0.92340  0.84600  0.16560  Biso   1.000  O
  O10      1.0000 0.01290  0.12440  0.29210  Biso   1.000  O
  O11      1.0000 0.77500  0.96650  0.30610  Biso   1.000  O
  O12      1.0000 0.73280  0.03310  0.09900  Biso   1.000  O
  O13      1.0000 0.40880  0.30680  0.94270  Biso   1.000  O
  O14      1.0000 0.68380  0.42410  0.02600  Biso   1.000  O
  C1       1.0000 0.52630  0.42190  0.99080  Biso   1.000  C
  H1       1.0000 0.40300  0.58100  0.26500  Biso   1.000  H
  H2       1.0000 0.82300  0.03800  0.37100  Biso   1.000  H
  P4       1.0000 0.82910  0.51682  0.81963  Biso   1.000  P
  P5       1.0000 0.77082  0.53612  0.33425  Biso   1.000  P
  P6       1.0000 0.14070  0.00776  0.79024  Biso   1.000  P
  Al3      1.0000 0.95159  0.67373  0.64400  Biso   1.000  Al
  Al4      1.0000 0.82668  0.63620  0.10345  Biso   1.000  Al
  O15      1.0000 0.80960  0.63160  0.93430  Biso   1.000  O
  O16      1.0000 0.97390  0.43330  0.86220  Biso   1.000  O
  O17      1.0000 0.66750  0.38800  0.74240  Biso   1.000  O
  O18      1.0000 0.84470  0.60440  0.72580  Biso   1.000  O
  O19      1.0000 0.58200  0.47750  0.26620  Biso   1.000  O
  O20      1.0000 0.82050  0.63070  0.47940  Biso   1.000  O
  O21      1.0000 0.83210  0.64280  0.26980  Biso   1.000  O
  O22      1.0000 0.86050  0.39560  0.33120  Biso   1.000  O
  O23      1.0000 0.07660  0.15400  0.83440  Biso   1.000  O
  O24      1.0000 0.98710  0.87560  0.70790  Biso   1.000  O
  O25      1.0000 0.22500  0.03350  0.69390  Biso   1.000  O
  O26      1.0000 0.26720  0.96690  0.90100  Biso   1.000  O
  O27      1.0000 0.59120  0.69320  0.05730  Biso   1.000  O
  O28      1.0000 0.31620  0.57590  0.97400  Biso   1.000  O
  C2       1.0000 0.47370  0.57810  0.00920  Biso   1.000  C
  H3       1.0000 0.59700  0.41900  0.73500  Biso   1.000  H
  H4       1.0000 0.17700  0.96200  0.62900  Biso   1.000  H
