data_TAGBUZ_clean
_audit_creation_date              2014-07-02
_audit_creation_method            'Materials Studio'
_symmetry_space_group_name_H-M    'P1'
_symmetry_Int_Tables_number       1
_symmetry_cell_setting            triclinic
loop_
_symmetry_equiv_pos_as_xyz
  x,y,z
_cell_length_a                    10.3350
_cell_length_b                    10.3350
_cell_length_c                    17.0150
_cell_angle_alpha                 84.8412
_cell_angle_beta                  74.6906
_cell_angle_gamma                 114.6630
loop_
_atom_site_label
_atom_site_type_symbol
_atom_site_fract_x
_atom_site_fract_y
_atom_site_fract_z
_atom_site_U_iso_or_equiv
_atom_site_adp_type
_atom_site_occupancy
Ag1    Ag    0.85369   0.37452   0.30825   0.01267  Uiso   1.00
Ag2    Ag    0.81723   0.83806   0.80825   0.01267  Uiso   1.00
H1     H     0.45480   0.59960   0.50800   0.01267  Uiso   1.00
H2     H     0.43790   0.79430   0.56020   0.01267  Uiso   1.00
H3     H     0.89060   0.03700   0.45740   0.01267  Uiso   1.00
H4     H     0.90700   0.84310   0.40390   0.01267  Uiso   1.00
H5     H     0.73210   0.33950   0.53200   0.01267  Uiso   1.00
H6     H     0.12460   0.47650   0.57950   0.01267  Uiso   1.00
H7     H     0.86350   0.04540   0.60390   0.01267  Uiso   1.00
H8     H     0.05740   0.85740   0.55320   0.01267  Uiso   1.00
H9     H     0.29090   0.05970   0.48440   0.01267  Uiso   1.00
H10    H     0.42580   0.80680   0.34860   0.01267  Uiso   1.00
H11    H     0.19100   0.60350   0.42050   0.01267  Uiso   1.00
H12    H     0.11740   0.41650   0.71590   0.01267  Uiso   1.00
H13    H     0.31010   0.58210   0.75560   0.01267  Uiso   1.00
H14    H     0.58600   0.41740   0.64400   0.01267  Uiso   1.00
H15    H     0.39110   0.24860   0.60590   0.01267  Uiso   1.00
H16    H     0.39240   0.03720   0.00800   0.01267  Uiso   1.00
H17    H     0.14550   0.00190   0.06020   0.01267  Uiso   1.00
H18    H     0.00560   0.65200   0.95740   0.01267  Uiso   1.00
H19    H     0.25300   0.68910   0.90390   0.01267  Uiso   1.00
H20    H     0.62850   0.73590   0.03200   0.01267  Uiso   1.00
H21    H     0.44400   0.29590   0.07950   0.01267  Uiso   1.00
H22    H     0.85070   0.53260   0.10390   0.01267  Uiso   1.00
H23    H     0.08940   0.38940   0.05320   0.01267  Uiso   1.00
H24    H     0.95590   0.22470   0.98440   0.01267  Uiso   1.00
H25    H     0.34460   0.22560   0.84860   0.01267  Uiso   1.00
H26    H     0.47600   0.38850   0.92050   0.01267  Uiso   1.00
H27    H     0.36760   0.16670   0.21590   0.01267  Uiso   1.00
H28    H     0.16230   0.93430   0.25560   0.01267  Uiso   1.00
H29    H     0.43860   0.77000   0.14400   0.01267  Uiso   1.00
H30    H     0.64550   0.00300   0.10590   0.01267  Uiso   1.00
C1     C     0.69710   0.58170   0.42020   0.01267  Uiso   1.00
C2     C     0.68270   0.70310   0.45100   0.01267  Uiso   1.00
C3     C     0.54250   0.68810   0.49780   0.01267  Uiso   1.00
C4     C     0.53249   0.80341   0.52930   0.01267  Uiso   1.00
C5     C     0.66346   0.93404   0.51510   0.01267  Uiso   1.00
C6     C     0.80290   0.94860   0.46770   0.01267  Uiso   1.00
C7     C     0.81270   0.83330   0.43580   0.01267  Uiso   1.00
C8     C     0.64843   0.06018   0.54719   0.01267  Uiso   1.00
C9     C     0.78187   0.17547   0.56246   0.01267  Uiso   1.00
C10    C     0.80389   0.31861   0.54690   0.01267  Uiso   1.00
C11    C     0.93228   0.43132   0.55340   0.01267  Uiso   1.00
C12    C     0.03586   0.39987   0.57767   0.01267  Uiso   1.00
C13    C     0.00924   0.25483   0.59953   0.01267  Uiso   1.00
C14    C     0.88164   0.14308   0.59068   0.01267  Uiso   1.00
C15    C     0.95017   0.58471   0.53792   0.01267  Uiso   1.00
C16    C     0.10447   0.71101   0.49452   0.01267  Uiso   1.00
C17    C     0.13280   0.84750   0.51270   0.01267  Uiso   1.00
C18    C     0.27060   0.96810   0.47170   0.01267  Uiso   1.00
C19    C     0.37975   0.95090   0.41055   0.01267  Uiso   1.00
C20    C     0.35190   0.81620   0.39030   0.01267  Uiso   1.00
C21    C     0.21200   0.69520   0.43320   0.01267  Uiso   1.00
C22    C     0.52820   0.07480   0.36980   0.01267  Uiso   1.00
C23    C     0.11609   0.21231   0.62660   0.01267  Uiso   1.00
C24    C     0.23679   0.32034   0.65447   0.01267  Uiso   1.00
C25    C     0.21235   0.41796   0.70069   0.01267  Uiso   1.00
C26    C     0.32650   0.51670   0.72420   0.01267  Uiso   1.00
C27    C     0.46680   0.51700   0.70020   0.01267  Uiso   1.00
C28    C     0.49180   0.41750   0.65750   0.01267  Uiso   1.00
C29    C     0.37590   0.31750   0.63460   0.01267  Uiso   1.00
C30    C     0.59010   0.62820   0.71970   0.01267  Uiso   1.00
C31    C     0.49810   0.88270   0.92020   0.01267  Uiso   1.00
C32    C     0.34590   0.86630   0.95100   0.01267  Uiso   1.00
C33    C     0.31410   0.95970   0.99780   0.01267  Uiso   1.00
C34    C     0.16729   0.93821   0.02930   0.01267  Uiso   1.00
C35    C     0.05086   0.82144   0.01510   0.01267  Uiso   1.00
C36    C     0.08370   0.72940   0.96770   0.01267  Uiso   1.00
C37    C     0.23090   0.75150   0.93580   0.01267  Uiso   1.00
C38    C     0.89263   0.80438   0.04719   0.01267  Uiso   1.00
C39    C     0.76207   0.65567   0.06246   0.01267  Uiso   1.00
C40    C     0.63449   0.64921   0.04690   0.01267  Uiso   1.00
C41    C     0.51528   0.51432   0.05340   0.01267  Uiso   1.00
C42    C     0.52246   0.38647   0.07767   0.01267  Uiso   1.00
C43    C     0.64564   0.39123   0.09953   0.01267  Uiso   1.00
C44    C     0.76624   0.52768   0.09068   0.01267  Uiso   1.00
C45    C     0.37737   0.51191   0.03792   0.01267  Uiso   1.00
C46    C     0.29447   0.40101   0.99452   0.01267  Uiso   1.00
C47    C     0.13980   0.35450   0.01270   0.01267  Uiso   1.00
C48    C     0.06020   0.25770   0.97170   0.01267  Uiso   1.00
C49    C     0.13855   0.20970   0.91055   0.01267  Uiso   1.00
C50    C     0.29350   0.25780   0.89030   0.01267  Uiso   1.00
C51    C     0.37160   0.35480   0.93320   0.01267  Uiso   1.00
C52    C     0.05540   0.10200   0.86980   0.01267  Uiso   1.00
C53    C     0.66109   0.25731   0.12660   0.01267  Uiso   1.00
C54    C     0.52519   0.10874   0.15447   0.01267  Uiso   1.00
C55    C     0.38135   0.08696   0.20069   0.01267  Uiso   1.00
C56    C     0.25910   0.94930   0.22420   0.01267  Uiso   1.00
C57    C     0.28280   0.83300   0.20020   0.01267  Uiso   1.00
C58    C     0.42500   0.85070   0.15750   0.01267  Uiso   1.00
C59    C     0.54790   0.98950   0.13460   0.01267  Uiso   1.00
C60    C     0.15210   0.69020   0.21970   0.01267  Uiso   1.00
N1     N     0.71510   0.48920   0.39630   0.01267  Uiso   1.00
N2     N     0.64457   0.17010   0.33993   0.01267  Uiso   1.00
N3     N     0.68380   0.71730   0.73450   0.01267  Uiso   1.00
N4     N     0.61450   0.88860   0.89630   0.01267  Uiso   1.00
N5     N     0.98997   0.01550   0.83993   0.01267  Uiso   1.00
N6     N     0.04820   0.58170   0.23450   0.01267  Uiso   1.00
O1     O     0.53354   0.07258   0.55656   0.01267  Uiso   1.00
O2     O     0.83932   0.60548   0.55940   0.01267  Uiso   1.00
O3     O     0.10743   0.09186   0.62511   0.01267  Uiso   1.00
O4     O     0.87086   0.90990   0.05656   0.01267  Uiso   1.00
O5     O     0.33512   0.60128   0.05940   0.01267  Uiso   1.00
O6     O     0.78303   0.26746   0.12511   0.01267  Uiso   1.00
