data_image0
_cell_length_a       14.1381
_cell_length_b       14.1381
_cell_length_c       21.558
_cell_angle_alpha    90
_cell_angle_beta     90
_cell_angle_gamma    120

_symmetry_space_group_name_H-M    "P 1"
_symmetry_int_tables_number       1

loop_
  _symmetry_equiv_pos_as_xyz
  'x, y, z'

loop_
  _atom_site_label
  _atom_site_occupancy
  _atom_site_fract_x
  _atom_site_fract_y
  _atom_site_fract_z
  _atom_site_thermal_displace_type
  _atom_site_B_iso_or_equiv
  _atom_site_type_symbol
  C1       1.0000 0.19350  0.00320  0.08480  Biso   1.000  C
  C2       1.0000 0.27080  0.99900  0.13110  Biso   1.000  C
  C3       1.0000 0.29550  0.91860  0.14420  Biso   1.000  C
  H1       1.0000 0.26520  0.85040  0.12540  Biso   1.000  H
  O1       1.0000 0.20230  0.09390  0.07557  Biso   1.000  O
  O2       1.0000 0.12990  0.91620  0.06100  Biso   1.000  O
  C4       1.0000 0.86017  0.33653  0.41813  Biso   1.000  C
  C5       1.0000 0.93747  0.33233  0.46443  Biso   1.000  C
  C6       1.0000 0.96217  0.25193  0.47753  Biso   1.000  C
  H2       1.0000 0.93187  0.18373  0.45873  Biso   1.000  H
  O3       1.0000 0.86897  0.42723  0.40890  Biso   1.000  O
  O4       1.0000 0.79657  0.24953  0.39433  Biso   1.000  O
  C7       1.0000 0.52683  0.66987  0.75147  Biso   1.000  C
  C8       1.0000 0.60413  0.66567  0.79777  Biso   1.000  C
  C9       1.0000 0.62883  0.58527  0.81087  Biso   1.000  C
  H3       1.0000 0.59853  0.51707  0.79207  Biso   1.000  H
  O5       1.0000 0.53563  0.76057  0.74224  Biso   1.000  O
  O6       1.0000 0.46323  0.58287  0.72767  Biso   1.000  O
  C10      1.0000 0.99680  0.19030  0.08480  Biso   1.000  C
  C11      1.0000 0.00100  0.27180  0.13110  Biso   1.000  C
  C12      1.0000 0.08140  0.37690  0.14420  Biso   1.000  C
  H4       1.0000 0.14960  0.41480  0.12540  Biso   1.000  H
  O7       1.0000 0.90610  0.10840  0.07557  Biso   1.000  O
  O8       1.0000 0.08380  0.21370  0.06100  Biso   1.000  O
  C13      1.0000 0.66347  0.52363  0.41813  Biso   1.000  C
  C14      1.0000 0.66767  0.60513  0.46443  Biso   1.000  C
  C15      1.0000 0.74807  0.71023  0.47753  Biso   1.000  C
  H5       1.0000 0.81627  0.74813  0.45873  Biso   1.000  H
  O9       1.0000 0.57277  0.44173  0.40890  Biso   1.000  O
  O10      1.0000 0.75047  0.54703  0.39433  Biso   1.000  O
  C16      1.0000 0.33013  0.85697  0.75147  Biso   1.000  C
  C17      1.0000 0.33433  0.93847  0.79777  Biso   1.000  C
  C18      1.0000 0.41473  0.04357  0.81087  Biso   1.000  C
  H6       1.0000 0.48293  0.08147  0.79207  Biso   1.000  H
  O11      1.0000 0.23943  0.77507  0.74224  Biso   1.000  O
  O12      1.0000 0.41713  0.88037  0.72767  Biso   1.000  O
  C19      1.0000 0.80970  0.80650  0.08480  Biso   1.000  C
  C20      1.0000 0.72820  0.72920  0.13110  Biso   1.000  C
  C21      1.0000 0.62310  0.70450  0.14420  Biso   1.000  C
  H7       1.0000 0.58520  0.73480  0.12540  Biso   1.000  H
  O13      1.0000 0.89160  0.79770  0.07557  Biso   1.000  O
  O14      1.0000 0.78630  0.87010  0.06100  Biso   1.000  O
  C22      1.0000 0.47637  0.13983  0.41813  Biso   1.000  C
  C23      1.0000 0.39487  0.06253  0.46443  Biso   1.000  C
  C24      1.0000 0.28977  0.03783  0.47753  Biso   1.000  C
  H8       1.0000 0.25187  0.06813  0.45873  Biso   1.000  H
  O15      1.0000 0.55827  0.13103  0.40890  Biso   1.000  O
  O16      1.0000 0.45297  0.20343  0.39433  Biso   1.000  O
  C25      1.0000 0.14303  0.47317  0.75147  Biso   1.000  C
  C26      1.0000 0.06153  0.39587  0.79777  Biso   1.000  C
  C27      1.0000 0.95643  0.37117  0.81087  Biso   1.000  C
  H9       1.0000 0.91853  0.40147  0.79207  Biso   1.000  H
  O17      1.0000 0.22493  0.46437  0.74224  Biso   1.000  O
  O18      1.0000 0.11963  0.53677  0.72767  Biso   1.000  O
  C28      1.0000 0.00320  0.19350  0.91520  Biso   1.000  C
  C29      1.0000 0.99900  0.27080  0.86890  Biso   1.000  C
  C30      1.0000 0.91860  0.29550  0.85580  Biso   1.000  C
  H10      1.0000 0.85040  0.26520  0.87460  Biso   1.000  H
  O19      1.0000 0.09390  0.20230  0.92443  Biso   1.000  O
  O20      1.0000 0.91620  0.12990  0.93900  Biso   1.000  O
  C31      1.0000 0.66987  0.52683  0.24853  Biso   1.000  C
  C32      1.0000 0.66567  0.60413  0.20223  Biso   1.000  C
  C33      1.0000 0.58527  0.62883  0.18913  Biso   1.000  C
  H11      1.0000 0.51707  0.59853  0.20793  Biso   1.000  H
  O21      1.0000 0.76057  0.53563  0.25776  Biso   1.000  O
  O22      1.0000 0.58287  0.46323  0.27233  Biso   1.000  O
  C34      1.0000 0.33653  0.86017  0.58187  Biso   1.000  C
  C35      1.0000 0.33233  0.93747  0.53557  Biso   1.000  C
  C36      1.0000 0.25193  0.96217  0.52247  Biso   1.000  C
  H12      1.0000 0.18373  0.93187  0.54127  Biso   1.000  H
  O23      1.0000 0.42723  0.86897  0.59110  Biso   1.000  O
  O24      1.0000 0.24953  0.79657  0.60567  Biso   1.000  O
  C37      1.0000 0.19030  0.99680  0.91520  Biso   1.000  C
  C38      1.0000 0.27180  0.00100  0.86890  Biso   1.000  C
  C39      1.0000 0.37690  0.08140  0.85580  Biso   1.000  C
  H13      1.0000 0.41480  0.14960  0.87460  Biso   1.000  H
  O25      1.0000 0.10840  0.90610  0.92443  Biso   1.000  O
  O26      1.0000 0.21370  0.08380  0.93900  Biso   1.000  O
  C40      1.0000 0.85697  0.33013  0.24853  Biso   1.000  C
  C41      1.0000 0.93847  0.33433  0.20223  Biso   1.000  C
  C42      1.0000 0.04357  0.41473  0.18913  Biso   1.000  C
  H14      1.0000 0.08147  0.48293  0.20793  Biso   1.000  H
  O27      1.0000 0.77507  0.23943  0.25776  Biso   1.000  O
  O28      1.0000 0.88037  0.41713  0.27233  Biso   1.000  O
  C43      1.0000 0.52363  0.66347  0.58187  Biso   1.000  C
  C44      1.0000 0.60513  0.66767  0.53557  Biso   1.000  C
  C45      1.0000 0.71023  0.74807  0.52247  Biso   1.000  C
  H15      1.0000 0.74813  0.81627  0.54127  Biso   1.000  H
  O29      1.0000 0.44173  0.57277  0.59110  Biso   1.000  O
  O30      1.0000 0.54703  0.75047  0.60567  Biso   1.000  O
  C46      1.0000 0.80650  0.80970  0.91520  Biso   1.000  C
  C47      1.0000 0.72920  0.72820  0.86890  Biso   1.000  C
  C48      1.0000 0.70450  0.62310  0.85580  Biso   1.000  C
  H16      1.0000 0.73480  0.58520  0.87460  Biso   1.000  H
  O31      1.0000 0.79770  0.89160  0.92443  Biso   1.000  O
  O32      1.0000 0.87010  0.78630  0.93900  Biso   1.000  O
  C49      1.0000 0.47317  0.14303  0.24853  Biso   1.000  C
  C50      1.0000 0.39587  0.06153  0.20223  Biso   1.000  C
  C51      1.0000 0.37117  0.95643  0.18913  Biso   1.000  C
  H17      1.0000 0.40147  0.91853  0.20793  Biso   1.000  H
  O33      1.0000 0.46437  0.22493  0.25776  Biso   1.000  O
  O34      1.0000 0.53677  0.11963  0.27233  Biso   1.000  O
  C52      1.0000 0.13983  0.47637  0.58187  Biso   1.000  C
  C53      1.0000 0.06253  0.39487  0.53557  Biso   1.000  C
  C54      1.0000 0.03783  0.28977  0.52247  Biso   1.000  C
  H18      1.0000 0.06813  0.25187  0.54127  Biso   1.000  H
  O35      1.0000 0.13103  0.55827  0.59110  Biso   1.000  O
  O36      1.0000 0.20343  0.45297  0.60567  Biso   1.000  O
  Mg1      1.0000 0.14289  0.14289  0.00000  Biso   1.000  Mg
  Mg2      1.0000 0.80956  0.47622  0.33333  Biso   1.000  Mg
  Mg3      1.0000 0.47622  0.80956  0.66667  Biso   1.000  Mg
  Mg4      1.0000 0.85711  0.00000  0.00000  Biso   1.000  Mg
  Mg5      1.0000 0.52378  0.33333  0.33333  Biso   1.000  Mg
  Mg6      1.0000 0.19044  0.66667  0.66667  Biso   1.000  Mg
  Mg7      1.0000 0.00000  0.85711  0.00000  Biso   1.000  Mg
  Mg8      1.0000 0.66667  0.19044  0.33333  Biso   1.000  Mg
  Mg9      1.0000 0.33333  0.52378  0.66667  Biso   1.000  Mg
  O37      1.0000 0.33333  0.08722  0.16667  Biso   1.000  O
  O38      1.0000 0.00000  0.42055  0.50000  Biso   1.000  O
  O39      1.0000 0.91278  0.24612  0.16667  Biso   1.000  O
  O40      1.0000 0.57945  0.57945  0.50000  Biso   1.000  O
  O41      1.0000 0.75388  0.66667  0.16667  Biso   1.000  O
  O42      1.0000 0.42055  0.00000  0.50000  Biso   1.000  O
  O43      1.0000 0.08722  0.33333  0.83333  Biso   1.000  O
  O44      1.0000 0.24612  0.91278  0.83333  Biso   1.000  O
  O45      1.0000 0.66667  0.75388  0.83333  Biso   1.000  O
  O46      1.0000 0.00000  0.00000  0.00000  Biso   1.000  O
  O47      1.0000 0.66667  0.33333  0.33333  Biso   1.000  O
  O48      1.0000 0.33333  0.66667  0.66667  Biso   1.000  O
