data_image0
_cell_length_a       22.803
_cell_length_b       13.4571
_cell_length_c       15.5637
_cell_angle_alpha    90
_cell_angle_beta     93.761
_cell_angle_gamma    90

_symmetry_space_group_name_H-M    "P 1"
_symmetry_int_tables_number       1

loop_
  _symmetry_equiv_pos_as_xyz
  'x, y, z'

loop_
  _atom_site_label
  _atom_site_occupancy
  _atom_site_fract_x
  _atom_site_fract_y
  _atom_site_fract_z
  _atom_site_thermal_displace_type
  _atom_site_B_iso_or_equiv
  _atom_site_type_symbol
  Mg1      1.0000 0.74815  0.19108  0.74504  Biso   1.000  Mg
  Mg2      1.0000 0.84600  0.97119  0.76204  Biso   1.000  Mg
  Mg3      1.0000 0.90580  0.22721  0.73406  Biso   1.000  Mg
  S1       1.0000 0.73022  0.88479  0.99951  Biso   1.000  S
  S2       1.0000 0.82555  0.45765  0.49698  Biso   1.000  S
  C1       1.0000 0.64950  0.00890  0.95820  Biso   1.000  C
  C2       1.0000 0.71680  0.41510  0.46830  Biso   1.000  C
  C3       1.0000 0.98320  0.91460  0.53650  Biso   1.000  C
  C4       1.0000 0.97870  0.17530  0.96430  Biso   1.000  C
  C5       1.0000 0.96740  0.00750  0.55980  Biso   1.000  C
  C6       1.0000 0.66800  0.88170  0.05810  Biso   1.000  C
  C7       1.0000 0.62830  0.95080  0.03130  Biso   1.000  C
  C8       1.0000 0.70320  0.97980  0.93560  Biso   1.000  C
  C9       1.0000 0.92870  0.03760  0.62970  Biso   1.000  C
  C10      1.0000 0.96460  0.08020  0.93860  Biso   1.000  C
  C11      1.0000 0.66510  0.81330  0.13220  Biso   1.000  C
  C12      1.0000 0.92110  0.04660  0.86820  Biso   1.000  C
  C13      1.0000 0.73810  0.35350  0.53710  Biso   1.000  C
  C14      1.0000 0.73730  0.02200  0.86670  Biso   1.000  C
  C15      1.0000 0.83270  0.31600  0.62650  Biso   1.000  C
  C16      1.0000 0.75480  0.55170  0.37090  Biso   1.000  C
  C17      1.0000 0.75990  0.47700  0.43940  Biso   1.000  C
  C18      1.0000 0.79580  0.36730  0.55940  Biso   1.000  C
  O1       1.0000 0.92370  0.12820  0.64090  Biso   1.000  O
  O2       1.0000 0.78510  0.98100  0.85440  Biso   1.000  O
  O3       1.0000 0.71070  0.54730  0.31680  Biso   1.000  O
  O4       1.0000 0.71430  0.09190  0.82500  Biso   1.000  O
  O5       1.0000 0.90650  0.96790  0.66990  Biso   1.000  O
  O6       1.0000 0.61840  0.81840  0.17050  Biso   1.000  O
  O7       1.0000 0.89593  0.10800  0.81650  Biso   1.000  O
  O8       1.0000 0.91030  0.95610  0.86370  Biso   1.000  O
  O9       1.0000 0.70820  0.75920  0.15120  Biso   1.000  O
  O10      1.0000 0.88690  0.33770  0.63600  Biso   1.000  O
  O11      1.0000 0.79180  0.61910  0.36760  Biso   1.000  O
  O12      1.0000 0.81070  0.25260  0.67350  Biso   1.000  O
  Mg4      1.0000 0.24815  0.69108  0.74504  Biso   1.000  Mg
  Mg5      1.0000 0.34600  0.47119  0.76204  Biso   1.000  Mg
  Mg6      1.0000 0.40580  0.72721  0.73406  Biso   1.000  Mg
  S3       1.0000 0.23022  0.38479  0.99951  Biso   1.000  S
  S4       1.0000 0.32555  0.95765  0.49698  Biso   1.000  S
  C19      1.0000 0.14950  0.50890  0.95820  Biso   1.000  C
  C20      1.0000 0.21680  0.91510  0.46830  Biso   1.000  C
  C21      1.0000 0.48320  0.41460  0.53650  Biso   1.000  C
  C22      1.0000 0.47870  0.67530  0.96430  Biso   1.000  C
  C23      1.0000 0.46740  0.50750  0.55980  Biso   1.000  C
  C24      1.0000 0.16800  0.38170  0.05810  Biso   1.000  C
  C25      1.0000 0.12830  0.45080  0.03130  Biso   1.000  C
  C26      1.0000 0.20320  0.47980  0.93560  Biso   1.000  C
  C27      1.0000 0.42870  0.53760  0.62970  Biso   1.000  C
  C28      1.0000 0.46460  0.58020  0.93860  Biso   1.000  C
  C29      1.0000 0.16510  0.31330  0.13220  Biso   1.000  C
  C30      1.0000 0.42110  0.54660  0.86820  Biso   1.000  C
  C31      1.0000 0.23810  0.85350  0.53710  Biso   1.000  C
  C32      1.0000 0.23730  0.52200  0.86670  Biso   1.000  C
  C33      1.0000 0.33270  0.81600  0.62650  Biso   1.000  C
  C34      1.0000 0.25480  0.05170  0.37090  Biso   1.000  C
  C35      1.0000 0.25990  0.97700  0.43940  Biso   1.000  C
  C36      1.0000 0.29580  0.86730  0.55940  Biso   1.000  C
  O13      1.0000 0.42370  0.62820  0.64090  Biso   1.000  O
  O14      1.0000 0.28510  0.48100  0.85440  Biso   1.000  O
  O15      1.0000 0.21070  0.04730  0.31680  Biso   1.000  O
  O16      1.0000 0.21430  0.59190  0.82500  Biso   1.000  O
  O17      1.0000 0.40650  0.46790  0.66990  Biso   1.000  O
  O18      1.0000 0.11840  0.31840  0.17050  Biso   1.000  O
  O19      1.0000 0.39593  0.60800  0.81650  Biso   1.000  O
  O20      1.0000 0.41030  0.45610  0.86370  Biso   1.000  O
  O21      1.0000 0.20820  0.25920  0.15120  Biso   1.000  O
  O22      1.0000 0.38690  0.83770  0.63600  Biso   1.000  O
  O23      1.0000 0.29180  0.11910  0.36760  Biso   1.000  O
  O24      1.0000 0.31070  0.75260  0.67350  Biso   1.000  O
  Mg7      1.0000 0.25185  0.19108  0.25496  Biso   1.000  Mg
  Mg8      1.0000 0.15400  0.97119  0.23796  Biso   1.000  Mg
  Mg9      1.0000 0.09420  0.22721  0.26594  Biso   1.000  Mg
  S5       1.0000 0.26978  0.88479  0.00049  Biso   1.000  S
  S6       1.0000 0.17445  0.45765  0.50302  Biso   1.000  S
  C37      1.0000 0.35050  0.00890  0.04180  Biso   1.000  C
  C38      1.0000 0.28320  0.41510  0.53170  Biso   1.000  C
  C39      1.0000 0.01680  0.91460  0.46350  Biso   1.000  C
  C40      1.0000 0.02130  0.17530  0.03570  Biso   1.000  C
  C41      1.0000 0.03260  0.00750  0.44020  Biso   1.000  C
  C42      1.0000 0.33200  0.88170  0.94190  Biso   1.000  C
  C43      1.0000 0.37170  0.95080  0.96870  Biso   1.000  C
  C44      1.0000 0.29680  0.97980  0.06440  Biso   1.000  C
  C45      1.0000 0.07130  0.03760  0.37030  Biso   1.000  C
  C46      1.0000 0.03540  0.08020  0.06140  Biso   1.000  C
  C47      1.0000 0.33490  0.81330  0.86780  Biso   1.000  C
  C48      1.0000 0.07890  0.04660  0.13180  Biso   1.000  C
  C49      1.0000 0.26190  0.35350  0.46290  Biso   1.000  C
  C50      1.0000 0.26270  0.02200  0.13330  Biso   1.000  C
  C51      1.0000 0.16730  0.31600  0.37350  Biso   1.000  C
  C52      1.0000 0.24520  0.55170  0.62910  Biso   1.000  C
  C53      1.0000 0.24010  0.47700  0.56060  Biso   1.000  C
  C54      1.0000 0.20420  0.36730  0.44060  Biso   1.000  C
  O25      1.0000 0.07630  0.12820  0.35910  Biso   1.000  O
  O26      1.0000 0.21490  0.98100  0.14560  Biso   1.000  O
  O27      1.0000 0.28930  0.54730  0.68320  Biso   1.000  O
  O28      1.0000 0.28570  0.09190  0.17500  Biso   1.000  O
  O29      1.0000 0.09350  0.96790  0.33010  Biso   1.000  O
  O30      1.0000 0.38160  0.81840  0.82950  Biso   1.000  O
  O31      1.0000 0.10407  0.10800  0.18350  Biso   1.000  O
  O32      1.0000 0.08970  0.95610  0.13630  Biso   1.000  O
  O33      1.0000 0.29180  0.75920  0.84880  Biso   1.000  O
  O34      1.0000 0.11310  0.33770  0.36400  Biso   1.000  O
  O35      1.0000 0.20820  0.61910  0.63240  Biso   1.000  O
  O36      1.0000 0.18930  0.25260  0.32650  Biso   1.000  O
  Mg10     1.0000 0.75185  0.69108  0.25496  Biso   1.000  Mg
  Mg11     1.0000 0.65400  0.47119  0.23796  Biso   1.000  Mg
  Mg12     1.0000 0.59420  0.72721  0.26594  Biso   1.000  Mg
  S7       1.0000 0.76978  0.38479  0.00049  Biso   1.000  S
  S8       1.0000 0.67445  0.95765  0.50302  Biso   1.000  S
  C55      1.0000 0.85050  0.50890  0.04180  Biso   1.000  C
  C56      1.0000 0.78320  0.91510  0.53170  Biso   1.000  C
  C57      1.0000 0.51680  0.41460  0.46350  Biso   1.000  C
  C58      1.0000 0.52130  0.67530  0.03570  Biso   1.000  C
  C59      1.0000 0.53260  0.50750  0.44020  Biso   1.000  C
  C60      1.0000 0.83200  0.38170  0.94190  Biso   1.000  C
  C61      1.0000 0.87170  0.45080  0.96870  Biso   1.000  C
  C62      1.0000 0.79680  0.47980  0.06440  Biso   1.000  C
  C63      1.0000 0.57130  0.53760  0.37030  Biso   1.000  C
  C64      1.0000 0.53540  0.58020  0.06140  Biso   1.000  C
  C65      1.0000 0.83490  0.31330  0.86780  Biso   1.000  C
  C66      1.0000 0.57890  0.54660  0.13180  Biso   1.000  C
  C67      1.0000 0.76190  0.85350  0.46290  Biso   1.000  C
  C68      1.0000 0.76270  0.52200  0.13330  Biso   1.000  C
  C69      1.0000 0.66730  0.81600  0.37350  Biso   1.000  C
  C70      1.0000 0.74520  0.05170  0.62910  Biso   1.000  C
  C71      1.0000 0.74010  0.97700  0.56060  Biso   1.000  C
  C72      1.0000 0.70420  0.86730  0.44060  Biso   1.000  C
  O37      1.0000 0.57630  0.62820  0.35910  Biso   1.000  O
  O38      1.0000 0.71490  0.48100  0.14560  Biso   1.000  O
  O39      1.0000 0.78930  0.04730  0.68320  Biso   1.000  O
  O40      1.0000 0.78570  0.59190  0.17500  Biso   1.000  O
  O41      1.0000 0.59350  0.46790  0.33010  Biso   1.000  O
  O42      1.0000 0.88160  0.31840  0.82950  Biso   1.000  O
  O43      1.0000 0.60407  0.60800  0.18350  Biso   1.000  O
  O44      1.0000 0.58970  0.45610  0.13630  Biso   1.000  O
  O45      1.0000 0.79180  0.25920  0.84880  Biso   1.000  O
  O46      1.0000 0.61310  0.83770  0.36400  Biso   1.000  O
  O47      1.0000 0.70820  0.11910  0.63240  Biso   1.000  O
  O48      1.0000 0.68930  0.75260  0.32650  Biso   1.000  O
  S9       1.0000 0.00000  0.09549  0.50000  Biso   1.000  S
  S10      1.0000 0.50000  0.59549  0.50000  Biso   1.000  S
  S11      1.0000 0.00000  0.99283  0.00000  Biso   1.000  S
  S12      1.0000 0.50000  0.49283  0.00000  Biso   1.000  S
