data_image0
_cell_length_a       16.682
_cell_length_b       21.662
_cell_length_c       27.674
_cell_angle_alpha    90
_cell_angle_beta     96.49
_cell_angle_gamma    90

_symmetry_space_group_name_H-M    "P 1"
_symmetry_int_tables_number       1

loop_
  _symmetry_equiv_pos_as_xyz
  'x, y, z'

loop_
  _atom_site_label
  _atom_site_occupancy
  _atom_site_fract_x
  _atom_site_fract_y
  _atom_site_fract_z
  _atom_site_thermal_displace_type
  _atom_site_B_iso_or_equiv
  _atom_site_type_symbol
  W1       1.0000 0.76300  0.90400  0.13530  Biso   1.000  W
  W2       1.0000 0.14338  0.00219  0.41560  Biso   1.000  W
  Cu1      1.0000 0.88260  0.98464  0.17032  Biso   1.000  Cu
  Cu2      1.0000 0.69246  0.93186  0.21319  Biso   1.000  Cu
  Cu3      1.0000 0.84101  0.88166  0.05928  Biso   1.000  Cu
  Cu4      1.0000 0.25249  0.02045  0.49208  Biso   1.000  Cu
  Cu5      1.0000 0.04578  0.98679  0.33377  Biso   1.000  Cu
  Cu6      1.0000 0.25973  0.02594  0.35512  Biso   1.000  Cu
  Cu7      1.0000 0.13949  0.16634  0.22166  Biso   1.000  Cu
  Cu8      1.0000 0.03685  0.15274  0.09400  Biso   1.000  Cu
  Cu9      1.0000 0.55092  0.97148  0.35889  Biso   1.000  Cu
  S1       1.0000 0.74408  0.99904  0.16363  Biso   1.000  S
  S2       1.0000 0.70810  0.83810  0.18235  Biso   1.000  S
  S3       1.0000 0.70834  0.89670  0.05891  Biso   1.000  S
  S4       1.0000 0.89555  0.88701  0.13658  Biso   1.000  S
  S5       1.0000 0.15760  0.94688  0.48295  Biso   1.000  S
  S6       1.0000 0.23381  0.07930  0.42533  Biso   1.000  S
  S7       1.0000 0.16854  0.94405  0.35210  Biso   1.000  S
  S8       1.0000 0.02061  0.03975  0.39965  Biso   1.000  S
  S9       1.0000 0.16175  0.16560  0.14354  Biso   1.000  S
  N1       1.0000 0.93520  0.05270  0.13840  Biso   1.000  N
  N2       1.0000 0.63830  0.94910  0.26840  Biso   1.000  N
  N3       1.0000 0.92720  0.85800  0.97010  Biso   1.000  N
  N4       1.0000 0.37350  0.03130  0.58150  Biso   1.000  N
  N5       1.0000 0.93530  0.97580  0.23940  Biso   1.000  N
  N6       1.0000 0.37240  0.00210  0.35390  Biso   1.000  N
  N7       1.0000 0.21330  0.08170  0.30120  Biso   1.000  N
  C1       1.0000 0.97200  0.08980  0.11980  Biso   1.000  C
  C2       1.0000 0.60560  0.95860  0.30230  Biso   1.000  C
  C3       1.0000 0.89410  0.86710  0.00460  Biso   1.000  C
  C4       1.0000 0.32850  0.02930  0.54780  Biso   1.000  C
  C5       1.0000 0.97560  0.97830  0.27550  Biso   1.000  C
  C6       1.0000 0.44010  0.98970  0.35600  Biso   1.000  C
  C7       1.0000 0.18180  0.11150  0.27110  Biso   1.000  C
  W3       1.0000 0.23700  0.40400  0.86470  Biso   1.000  W
  W4       1.0000 0.85662  0.50219  0.58440  Biso   1.000  W
  Cu10     1.0000 0.11740  0.48464  0.82968  Biso   1.000  Cu
  Cu11     1.0000 0.30754  0.43186  0.78681  Biso   1.000  Cu
  Cu12     1.0000 0.15899  0.38166  0.94072  Biso   1.000  Cu
  Cu13     1.0000 0.74751  0.52045  0.50792  Biso   1.000  Cu
  Cu14     1.0000 0.95422  0.48679  0.66623  Biso   1.000  Cu
  Cu15     1.0000 0.74027  0.52594  0.64488  Biso   1.000  Cu
  Cu16     1.0000 0.86051  0.66634  0.77834  Biso   1.000  Cu
  Cu17     1.0000 0.96315  0.65274  0.90600  Biso   1.000  Cu
  Cu18     1.0000 0.44908  0.47148  0.64111  Biso   1.000  Cu
  S10      1.0000 0.25592  0.49904  0.83637  Biso   1.000  S
  S11      1.0000 0.29190  0.33810  0.81765  Biso   1.000  S
  S12      1.0000 0.29166  0.39670  0.94109  Biso   1.000  S
  S13      1.0000 0.10445  0.38701  0.86342  Biso   1.000  S
  S14      1.0000 0.84240  0.44688  0.51705  Biso   1.000  S
  S15      1.0000 0.76619  0.57930  0.57467  Biso   1.000  S
  S16      1.0000 0.83146  0.44405  0.64790  Biso   1.000  S
  S17      1.0000 0.97939  0.53975  0.60035  Biso   1.000  S
  S18      1.0000 0.83825  0.66560  0.85646  Biso   1.000  S
  N8       1.0000 0.06480  0.55270  0.86160  Biso   1.000  N
  N9       1.0000 0.36170  0.44910  0.73160  Biso   1.000  N
  N10      1.0000 0.07280  0.35800  0.02990  Biso   1.000  N
  N11      1.0000 0.62650  0.53130  0.41850  Biso   1.000  N
  N12      1.0000 0.06470  0.47580  0.76060  Biso   1.000  N
  N13      1.0000 0.62760  0.50210  0.64610  Biso   1.000  N
  N14      1.0000 0.78670  0.58170  0.69880  Biso   1.000  N
  C8       1.0000 0.02800  0.58980  0.88020  Biso   1.000  C
  C9       1.0000 0.39440  0.45860  0.69770  Biso   1.000  C
  C10      1.0000 0.10590  0.36710  0.99540  Biso   1.000  C
  C11      1.0000 0.67150  0.52930  0.45220  Biso   1.000  C
  C12      1.0000 0.02440  0.47830  0.72450  Biso   1.000  C
  C13      1.0000 0.55990  0.48970  0.64400  Biso   1.000  C
  C14      1.0000 0.81820  0.61150  0.72890  Biso   1.000  C
  W5       1.0000 0.23700  0.09600  0.86470  Biso   1.000  W
  W6       1.0000 0.85662  0.99781  0.58440  Biso   1.000  W
  Cu19     1.0000 0.11740  0.01536  0.82968  Biso   1.000  Cu
  Cu20     1.0000 0.30754  0.06814  0.78681  Biso   1.000  Cu
  Cu21     1.0000 0.15899  0.11834  0.94072  Biso   1.000  Cu
  Cu22     1.0000 0.74751  0.97955  0.50792  Biso   1.000  Cu
  Cu23     1.0000 0.95422  0.01321  0.66623  Biso   1.000  Cu
  Cu24     1.0000 0.74027  0.97406  0.64488  Biso   1.000  Cu
  Cu25     1.0000 0.86051  0.83366  0.77834  Biso   1.000  Cu
  Cu26     1.0000 0.96315  0.84726  0.90600  Biso   1.000  Cu
  Cu27     1.0000 0.44908  0.02852  0.64111  Biso   1.000  Cu
  S19      1.0000 0.25592  0.00096  0.83637  Biso   1.000  S
  S20      1.0000 0.29190  0.16190  0.81765  Biso   1.000  S
  S21      1.0000 0.29166  0.10330  0.94109  Biso   1.000  S
  S22      1.0000 0.10445  0.11299  0.86342  Biso   1.000  S
  S23      1.0000 0.84240  0.05312  0.51705  Biso   1.000  S
  S24      1.0000 0.76619  0.92070  0.57467  Biso   1.000  S
  S25      1.0000 0.83146  0.05595  0.64790  Biso   1.000  S
  S26      1.0000 0.97939  0.96025  0.60035  Biso   1.000  S
  S27      1.0000 0.83825  0.83440  0.85646  Biso   1.000  S
  N15      1.0000 0.06480  0.94730  0.86160  Biso   1.000  N
  N16      1.0000 0.36170  0.05090  0.73160  Biso   1.000  N
  N17      1.0000 0.07280  0.14200  0.02990  Biso   1.000  N
  N18      1.0000 0.62650  0.96870  0.41850  Biso   1.000  N
  N19      1.0000 0.06470  0.02420  0.76060  Biso   1.000  N
  N20      1.0000 0.62760  0.99790  0.64610  Biso   1.000  N
  N21      1.0000 0.78670  0.91830  0.69880  Biso   1.000  N
  C15      1.0000 0.02800  0.91020  0.88020  Biso   1.000  C
  C16      1.0000 0.39440  0.04140  0.69770  Biso   1.000  C
  C17      1.0000 0.10590  0.13290  0.99540  Biso   1.000  C
  C18      1.0000 0.67150  0.97070  0.45220  Biso   1.000  C
  C19      1.0000 0.02440  0.02170  0.72450  Biso   1.000  C
  C20      1.0000 0.55990  0.01030  0.64400  Biso   1.000  C
  C21      1.0000 0.81820  0.88850  0.72890  Biso   1.000  C
  W7       1.0000 0.76300  0.59600  0.13530  Biso   1.000  W
  W8       1.0000 0.14338  0.49781  0.41560  Biso   1.000  W
  Cu28     1.0000 0.88260  0.51536  0.17032  Biso   1.000  Cu
  Cu29     1.0000 0.69246  0.56814  0.21319  Biso   1.000  Cu
  Cu30     1.0000 0.84101  0.61834  0.05928  Biso   1.000  Cu
  Cu31     1.0000 0.25249  0.47955  0.49208  Biso   1.000  Cu
  Cu32     1.0000 0.04578  0.51321  0.33377  Biso   1.000  Cu
  Cu33     1.0000 0.25973  0.47406  0.35512  Biso   1.000  Cu
  Cu34     1.0000 0.13949  0.33366  0.22166  Biso   1.000  Cu
  Cu35     1.0000 0.03685  0.34726  0.09400  Biso   1.000  Cu
  Cu36     1.0000 0.55092  0.52852  0.35889  Biso   1.000  Cu
  S28      1.0000 0.74408  0.50096  0.16363  Biso   1.000  S
  S29      1.0000 0.70810  0.66190  0.18235  Biso   1.000  S
  S30      1.0000 0.70834  0.60330  0.05891  Biso   1.000  S
  S31      1.0000 0.89555  0.61299  0.13658  Biso   1.000  S
  S32      1.0000 0.15760  0.55312  0.48295  Biso   1.000  S
  S33      1.0000 0.23381  0.42070  0.42533  Biso   1.000  S
  S34      1.0000 0.16854  0.55595  0.35210  Biso   1.000  S
  S35      1.0000 0.02061  0.46025  0.39965  Biso   1.000  S
  S36      1.0000 0.16175  0.33440  0.14354  Biso   1.000  S
  N22      1.0000 0.93520  0.44730  0.13840  Biso   1.000  N
  N23      1.0000 0.63830  0.55090  0.26840  Biso   1.000  N
  N24      1.0000 0.92720  0.64200  0.97010  Biso   1.000  N
  N25      1.0000 0.37350  0.46870  0.58150  Biso   1.000  N
  N26      1.0000 0.93530  0.52420  0.23940  Biso   1.000  N
  N27      1.0000 0.37240  0.49790  0.35390  Biso   1.000  N
  N28      1.0000 0.21330  0.41830  0.30120  Biso   1.000  N
  C22      1.0000 0.97200  0.41020  0.11980  Biso   1.000  C
  C23      1.0000 0.60560  0.54140  0.30230  Biso   1.000  C
  C24      1.0000 0.89410  0.63290  0.00460  Biso   1.000  C
  C25      1.0000 0.32850  0.47070  0.54780  Biso   1.000  C
  C26      1.0000 0.97560  0.52170  0.27550  Biso   1.000  C
  C27      1.0000 0.44010  0.51030  0.35600  Biso   1.000  C
  C28      1.0000 0.18180  0.38850  0.27110  Biso   1.000  C
  W9       1.0000 0.09051  0.25000  0.15521  Biso   1.000  W
  S37      1.0000 0.06420  0.25000  0.23338  Biso   1.000  S
  S38      1.0000 0.97760  0.25000  0.10544  Biso   1.000  S
  W10      1.0000 0.90949  0.75000  0.84479  Biso   1.000  W
  S39      1.0000 0.93580  0.75000  0.76662  Biso   1.000  S
  S40      1.0000 0.02240  0.75000  0.89456  Biso   1.000  S
