data_image0
_cell_length_a       24.561
_cell_length_b       18.908
_cell_length_c       9.7049
_cell_angle_alpha    90
_cell_angle_beta     108.76
_cell_angle_gamma    90

_symmetry_space_group_name_H-M    "P 1"
_symmetry_int_tables_number       1

loop_
  _symmetry_equiv_pos_as_xyz
  'x, y, z'

loop_
  _atom_site_label
  _atom_site_occupancy
  _atom_site_fract_x
  _atom_site_fract_y
  _atom_site_fract_z
  _atom_site_thermal_displace_type
  _atom_site_B_iso_or_equiv
  _atom_site_type_symbol
  Co1      1.0000 0.00236  0.20504  0.50687  Biso   1.000  Co
  O1       1.0000 0.94750  0.02134  0.77760  Biso   1.000  O
  O2       1.0000 0.93092  0.96817  0.56300  Biso   1.000  O
  O3       1.0000 0.93247  0.82356  0.57150  Biso   1.000  O
  O4       1.0000 0.94868  0.76934  0.78570  Biso   1.000  O
  O5       1.0000 0.62410  0.15990  0.94340  Biso   1.000  O
  O6       1.0000 0.56025  0.11630  0.74380  Biso   1.000  O
  O7       1.0000 0.56476  0.74420  0.92970  Biso   1.000  O
  O8       1.0000 0.55774  0.68023  0.73070  Biso   1.000  O
  O9       1.0000 0.97460  0.10361  0.52030  Biso   1.000  O
  C1       1.0000 0.87700  0.93170  0.71500  Biso   1.000  C
  C2       1.0000 0.83410  0.96860  0.74800  Biso   1.000  C
  H1       1.0000 0.83620  0.01770  0.75290  Biso   1.000  H
  C3       1.0000 0.78800  0.93540  0.77420  Biso   1.000  C
  C4       1.0000 0.78730  0.86020  0.77900  Biso   1.000  C
  C5       1.0000 0.83270  0.82350  0.75390  Biso   1.000  C
  H2       1.0000 0.83390  0.77450  0.76290  Biso   1.000  H
  C6       1.0000 0.87610  0.85750  0.71580  Biso   1.000  C
  C7       1.0000 0.92260  0.81460  0.68710  Biso   1.000  C
  C8       1.0000 0.92220  0.97510  0.68050  Biso   1.000  C
  C9       1.0000 0.74080  0.98220  0.78910  Biso   1.000  C
  C10      1.0000 0.75470  0.04150  0.87290  Biso   1.000  C
  H3       1.0000 0.79310  0.05200  0.92130  Biso   1.000  H
  C11      1.0000 0.71260  0.08600  0.88680  Biso   1.000  C
  H4       1.0000 0.72250  0.12510  0.94800  Biso   1.000  H
  C12      1.0000 0.65540  0.07310  0.81050  Biso   1.000  C
  C13      1.0000 0.64160  0.01460  0.72000  Biso   1.000  C
  H5       1.0000 0.60350  0.00590  0.66580  Biso   1.000  H
  C14      1.0000 0.68440  0.96890  0.70980  Biso   1.000  C
  H6       1.0000 0.67490  0.92950  0.64940  Biso   1.000  H
  C15      1.0000 0.73890  0.82000  0.80620  Biso   1.000  C
  C16      1.0000 0.71670  0.83890  0.91630  Biso   1.000  C
  H7       1.0000 0.73510  0.87360  0.98320  Biso   1.000  H
  C17      1.0000 0.66770  0.80690  0.92700  Biso   1.000  C
  H8       1.0000 0.65330  0.82030  0.00070  Biso   1.000  H
  C18      1.0000 0.63960  0.75440  0.82780  Biso   1.000  C
  C19      1.0000 0.66430  0.73210  0.72460  Biso   1.000  C
  H9       1.0000 0.64780  0.69500  0.66230  Biso   1.000  H
  C20      1.0000 0.71300  0.76480  0.71420  Biso   1.000  C
  H10      1.0000 0.72870  0.74960  0.64410  Biso   1.000  H
  C21      1.0000 0.61030  0.11980  0.83400  Biso   1.000  C
  C22      1.0000 0.58430  0.72480  0.83180  Biso   1.000  C
  Co2      1.0000 0.50236  0.70504  0.50687  Biso   1.000  Co
  O10      1.0000 0.44750  0.52134  0.77760  Biso   1.000  O
  O11      1.0000 0.43092  0.46817  0.56300  Biso   1.000  O
  O12      1.0000 0.43247  0.32356  0.57150  Biso   1.000  O
  O13      1.0000 0.44868  0.26934  0.78570  Biso   1.000  O
  O14      1.0000 0.12410  0.65990  0.94340  Biso   1.000  O
  O15      1.0000 0.06025  0.61630  0.74380  Biso   1.000  O
  O16      1.0000 0.06476  0.24420  0.92970  Biso   1.000  O
  O17      1.0000 0.05774  0.18023  0.73070  Biso   1.000  O
  O18      1.0000 0.47460  0.60361  0.52030  Biso   1.000  O
  C23      1.0000 0.37700  0.43170  0.71500  Biso   1.000  C
  C24      1.0000 0.33410  0.46860  0.74800  Biso   1.000  C
  H11      1.0000 0.33620  0.51770  0.75290  Biso   1.000  H
  C25      1.0000 0.28800  0.43540  0.77420  Biso   1.000  C
  C26      1.0000 0.28730  0.36020  0.77900  Biso   1.000  C
  C27      1.0000 0.33270  0.32350  0.75390  Biso   1.000  C
  H12      1.0000 0.33390  0.27450  0.76290  Biso   1.000  H
  C28      1.0000 0.37610  0.35750  0.71580  Biso   1.000  C
  C29      1.0000 0.42260  0.31460  0.68710  Biso   1.000  C
  C30      1.0000 0.42220  0.47510  0.68050  Biso   1.000  C
  C31      1.0000 0.24080  0.48220  0.78910  Biso   1.000  C
  C32      1.0000 0.25470  0.54150  0.87290  Biso   1.000  C
  H13      1.0000 0.29310  0.55200  0.92130  Biso   1.000  H
  C33      1.0000 0.21260  0.58600  0.88680  Biso   1.000  C
  H14      1.0000 0.22250  0.62510  0.94800  Biso   1.000  H
  C34      1.0000 0.15540  0.57310  0.81050  Biso   1.000  C
  C35      1.0000 0.14160  0.51460  0.72000  Biso   1.000  C
  H15      1.0000 0.10350  0.50590  0.66580  Biso   1.000  H
  C36      1.0000 0.18440  0.46890  0.70980  Biso   1.000  C
  H16      1.0000 0.17490  0.42950  0.64940  Biso   1.000  H
  C37      1.0000 0.23890  0.32000  0.80620  Biso   1.000  C
  C38      1.0000 0.21670  0.33890  0.91630  Biso   1.000  C
  H17      1.0000 0.23510  0.37360  0.98320  Biso   1.000  H
  C39      1.0000 0.16770  0.30690  0.92700  Biso   1.000  C
  H18      1.0000 0.15330  0.32030  0.00070  Biso   1.000  H
  C40      1.0000 0.13960  0.25440  0.82780  Biso   1.000  C
  C41      1.0000 0.16430  0.23210  0.72460  Biso   1.000  C
  H19      1.0000 0.14780  0.19500  0.66230  Biso   1.000  H
  C42      1.0000 0.21300  0.26480  0.71420  Biso   1.000  C
  H20      1.0000 0.22870  0.24960  0.64410  Biso   1.000  H
  C43      1.0000 0.11030  0.61980  0.83400  Biso   1.000  C
  C44      1.0000 0.08430  0.22480  0.83180  Biso   1.000  C
  Co3      1.0000 0.99764  0.20504  0.99313  Biso   1.000  Co
  O19      1.0000 0.05250  0.02134  0.72240  Biso   1.000  O
  O20      1.0000 0.06908  0.96817  0.93700  Biso   1.000  O
  O21      1.0000 0.06753  0.82356  0.92850  Biso   1.000  O
  O22      1.0000 0.05132  0.76934  0.71430  Biso   1.000  O
  O23      1.0000 0.37590  0.15990  0.55660  Biso   1.000  O
  O24      1.0000 0.43975  0.11630  0.75620  Biso   1.000  O
  O25      1.0000 0.43524  0.74420  0.57030  Biso   1.000  O
  O26      1.0000 0.44226  0.68023  0.76930  Biso   1.000  O
  O27      1.0000 0.02540  0.10361  0.97970  Biso   1.000  O
  C45      1.0000 0.12300  0.93170  0.78500  Biso   1.000  C
  C46      1.0000 0.16590  0.96860  0.75200  Biso   1.000  C
  H21      1.0000 0.16380  0.01770  0.74710  Biso   1.000  H
  C47      1.0000 0.21200  0.93540  0.72580  Biso   1.000  C
  C48      1.0000 0.21270  0.86020  0.72100  Biso   1.000  C
  C49      1.0000 0.16730  0.82350  0.74610  Biso   1.000  C
  H22      1.0000 0.16610  0.77450  0.73710  Biso   1.000  H
  C50      1.0000 0.12390  0.85750  0.78420  Biso   1.000  C
  C51      1.0000 0.07740  0.81460  0.81290  Biso   1.000  C
  C52      1.0000 0.07780  0.97510  0.81950  Biso   1.000  C
  C53      1.0000 0.25920  0.98220  0.71090  Biso   1.000  C
  C54      1.0000 0.24530  0.04150  0.62710  Biso   1.000  C
  H23      1.0000 0.20690  0.05200  0.57870  Biso   1.000  H
  C55      1.0000 0.28740  0.08600  0.61320  Biso   1.000  C
  H24      1.0000 0.27750  0.12510  0.55200  Biso   1.000  H
  C56      1.0000 0.34460  0.07310  0.68950  Biso   1.000  C
  C57      1.0000 0.35840  0.01460  0.78000  Biso   1.000  C
  H25      1.0000 0.39650  0.00590  0.83420  Biso   1.000  H
  C58      1.0000 0.31560  0.96890  0.79020  Biso   1.000  C
  H26      1.0000 0.32510  0.92950  0.85060  Biso   1.000  H
  C59      1.0000 0.26110  0.82000  0.69380  Biso   1.000  C
  C60      1.0000 0.28330  0.83890  0.58370  Biso   1.000  C
  H27      1.0000 0.26490  0.87360  0.51680  Biso   1.000  H
  C61      1.0000 0.33230  0.80690  0.57300  Biso   1.000  C
  H28      1.0000 0.34670  0.82030  0.49930  Biso   1.000  H
  C62      1.0000 0.36040  0.75440  0.67220  Biso   1.000  C
  C63      1.0000 0.33570  0.73210  0.77540  Biso   1.000  C
  H29      1.0000 0.35220  0.69500  0.83770  Biso   1.000  H
  C64      1.0000 0.28700  0.76480  0.78580  Biso   1.000  C
  H30      1.0000 0.27130  0.74960  0.85590  Biso   1.000  H
  C65      1.0000 0.38970  0.11980  0.66600  Biso   1.000  C
  C66      1.0000 0.41570  0.72480  0.66820  Biso   1.000  C
  Co4      1.0000 0.49764  0.70504  0.99313  Biso   1.000  Co
  O28      1.0000 0.55250  0.52134  0.72240  Biso   1.000  O
  O29      1.0000 0.56908  0.46817  0.93700  Biso   1.000  O
  O30      1.0000 0.56753  0.32356  0.92850  Biso   1.000  O
  O31      1.0000 0.55132  0.26934  0.71430  Biso   1.000  O
  O32      1.0000 0.87590  0.65990  0.55660  Biso   1.000  O
  O33      1.0000 0.93975  0.61630  0.75620  Biso   1.000  O
  O34      1.0000 0.93524  0.24420  0.57030  Biso   1.000  O
  O35      1.0000 0.94226  0.18023  0.76930  Biso   1.000  O
  O36      1.0000 0.52540  0.60361  0.97970  Biso   1.000  O
  C67      1.0000 0.62300  0.43170  0.78500  Biso   1.000  C
  C68      1.0000 0.66590  0.46860  0.75200  Biso   1.000  C
  H31      1.0000 0.66380  0.51770  0.74710  Biso   1.000  H
  C69      1.0000 0.71200  0.43540  0.72580  Biso   1.000  C
  C70      1.0000 0.71270  0.36020  0.72100  Biso   1.000  C
  C71      1.0000 0.66730  0.32350  0.74610  Biso   1.000  C
  H32      1.0000 0.66610  0.27450  0.73710  Biso   1.000  H
  C72      1.0000 0.62390  0.35750  0.78420  Biso   1.000  C
  C73      1.0000 0.57740  0.31460  0.81290  Biso   1.000  C
  C74      1.0000 0.57780  0.47510  0.81950  Biso   1.000  C
  C75      1.0000 0.75920  0.48220  0.71090  Biso   1.000  C
  C76      1.0000 0.74530  0.54150  0.62710  Biso   1.000  C
  H33      1.0000 0.70690  0.55200  0.57870  Biso   1.000  H
  C77      1.0000 0.78740  0.58600  0.61320  Biso   1.000  C
  H34      1.0000 0.77750  0.62510  0.55200  Biso   1.000  H
  C78      1.0000 0.84460  0.57310  0.68950  Biso   1.000  C
  C79      1.0000 0.85840  0.51460  0.78000  Biso   1.000  C
  H35      1.0000 0.89650  0.50590  0.83420  Biso   1.000  H
  C80      1.0000 0.81560  0.46890  0.79020  Biso   1.000  C
  H36      1.0000 0.82510  0.42950  0.85060  Biso   1.000  H
  C81      1.0000 0.76110  0.32000  0.69380  Biso   1.000  C
  C82      1.0000 0.78330  0.33890  0.58370  Biso   1.000  C
  H37      1.0000 0.76490  0.37360  0.51680  Biso   1.000  H
  C83      1.0000 0.83230  0.30690  0.57300  Biso   1.000  C
  H38      1.0000 0.84670  0.32030  0.49930  Biso   1.000  H
  C84      1.0000 0.86040  0.25440  0.67220  Biso   1.000  C
  C85      1.0000 0.83570  0.23210  0.77540  Biso   1.000  C
  H39      1.0000 0.85220  0.19500  0.83770  Biso   1.000  H
  C86      1.0000 0.78700  0.26480  0.78580  Biso   1.000  C
  H40      1.0000 0.77130  0.24960  0.85590  Biso   1.000  H
  C87      1.0000 0.88970  0.61980  0.66600  Biso   1.000  C
  C88      1.0000 0.91570  0.22480  0.66820  Biso   1.000  C
  Co5      1.0000 0.99764  0.79496  0.49313  Biso   1.000  Co
  O37      1.0000 0.05250  0.97866  0.22240  Biso   1.000  O
  O38      1.0000 0.06908  0.03183  0.43700  Biso   1.000  O
  O39      1.0000 0.06753  0.17644  0.42850  Biso   1.000  O
  O40      1.0000 0.05132  0.23066  0.21430  Biso   1.000  O
  O41      1.0000 0.37590  0.84010  0.05660  Biso   1.000  O
  O42      1.0000 0.43975  0.88370  0.25620  Biso   1.000  O
  O43      1.0000 0.43524  0.25580  0.07030  Biso   1.000  O
  O44      1.0000 0.44226  0.31977  0.26930  Biso   1.000  O
  O45      1.0000 0.02540  0.89639  0.47970  Biso   1.000  O
  C89      1.0000 0.12300  0.06830  0.28500  Biso   1.000  C
  C90      1.0000 0.16590  0.03140  0.25200  Biso   1.000  C
  H41      1.0000 0.16380  0.98230  0.24710  Biso   1.000  H
  C91      1.0000 0.21200  0.06460  0.22580  Biso   1.000  C
  C92      1.0000 0.21270  0.13980  0.22100  Biso   1.000  C
  C93      1.0000 0.16730  0.17650  0.24610  Biso   1.000  C
  H42      1.0000 0.16610  0.22550  0.23710  Biso   1.000  H
  C94      1.0000 0.12390  0.14250  0.28420  Biso   1.000  C
  C95      1.0000 0.07740  0.18540  0.31290  Biso   1.000  C
  C96      1.0000 0.07780  0.02490  0.31950  Biso   1.000  C
  C97      1.0000 0.25920  0.01780  0.21090  Biso   1.000  C
  C98      1.0000 0.24530  0.95850  0.12710  Biso   1.000  C
  H43      1.0000 0.20690  0.94800  0.07870  Biso   1.000  H
  C99      1.0000 0.28740  0.91400  0.11320  Biso   1.000  C
  H44      1.0000 0.27750  0.87490  0.05200  Biso   1.000  H
  C100     1.0000 0.34460  0.92690  0.18950  Biso   1.000  C
  C101     1.0000 0.35840  0.98540  0.28000  Biso   1.000  C
  H45      1.0000 0.39650  0.99410  0.33420  Biso   1.000  H
  C102     1.0000 0.31560  0.03110  0.29020  Biso   1.000  C
  H46      1.0000 0.32510  0.07050  0.35060  Biso   1.000  H
  C103     1.0000 0.26110  0.18000  0.19380  Biso   1.000  C
  C104     1.0000 0.28330  0.16110  0.08370  Biso   1.000  C
  H47      1.0000 0.26490  0.12640  0.01680  Biso   1.000  H
  C105     1.0000 0.33230  0.19310  0.07300  Biso   1.000  C
  H48      1.0000 0.34670  0.17970  0.99930  Biso   1.000  H
  C106     1.0000 0.36040  0.24560  0.17220  Biso   1.000  C
  C107     1.0000 0.33570  0.26790  0.27540  Biso   1.000  C
  H49      1.0000 0.35220  0.30500  0.33770  Biso   1.000  H
  C108     1.0000 0.28700  0.23520  0.28580  Biso   1.000  C
  H50      1.0000 0.27130  0.25040  0.35590  Biso   1.000  H
  C109     1.0000 0.38970  0.88020  0.16600  Biso   1.000  C
  C110     1.0000 0.41570  0.27520  0.16820  Biso   1.000  C
  Co6      1.0000 0.49764  0.29496  0.49313  Biso   1.000  Co
  O46      1.0000 0.55250  0.47866  0.22240  Biso   1.000  O
  O47      1.0000 0.56908  0.53183  0.43700  Biso   1.000  O
  O48      1.0000 0.56753  0.67644  0.42850  Biso   1.000  O
  O49      1.0000 0.55132  0.73066  0.21430  Biso   1.000  O
  O50      1.0000 0.87590  0.34010  0.05660  Biso   1.000  O
  O51      1.0000 0.93975  0.38370  0.25620  Biso   1.000  O
  O52      1.0000 0.93524  0.75580  0.07030  Biso   1.000  O
  O53      1.0000 0.94226  0.81977  0.26930  Biso   1.000  O
  O54      1.0000 0.52540  0.39639  0.47970  Biso   1.000  O
  C111     1.0000 0.62300  0.56830  0.28500  Biso   1.000  C
  C112     1.0000 0.66590  0.53140  0.25200  Biso   1.000  C
  H51      1.0000 0.66380  0.48230  0.24710  Biso   1.000  H
  C113     1.0000 0.71200  0.56460  0.22580  Biso   1.000  C
  C114     1.0000 0.71270  0.63980  0.22100  Biso   1.000  C
  C115     1.0000 0.66730  0.67650  0.24610  Biso   1.000  C
  H52      1.0000 0.66610  0.72550  0.23710  Biso   1.000  H
  C116     1.0000 0.62390  0.64250  0.28420  Biso   1.000  C
  C117     1.0000 0.57740  0.68540  0.31290  Biso   1.000  C
  C118     1.0000 0.57780  0.52490  0.31950  Biso   1.000  C
  C119     1.0000 0.75920  0.51780  0.21090  Biso   1.000  C
  C120     1.0000 0.74530  0.45850  0.12710  Biso   1.000  C
  H53      1.0000 0.70690  0.44800  0.07870  Biso   1.000  H
  C121     1.0000 0.78740  0.41400  0.11320  Biso   1.000  C
  H54      1.0000 0.77750  0.37490  0.05200  Biso   1.000  H
  C122     1.0000 0.84460  0.42690  0.18950  Biso   1.000  C
  C123     1.0000 0.85840  0.48540  0.28000  Biso   1.000  C
  H55      1.0000 0.89650  0.49410  0.33420  Biso   1.000  H
  C124     1.0000 0.81560  0.53110  0.29020  Biso   1.000  C
  H56      1.0000 0.82510  0.57050  0.35060  Biso   1.000  H
  C125     1.0000 0.76110  0.68000  0.19380  Biso   1.000  C
  C126     1.0000 0.78330  0.66110  0.08370  Biso   1.000  C
  H57      1.0000 0.76490  0.62640  0.01680  Biso   1.000  H
  C127     1.0000 0.83230  0.69310  0.07300  Biso   1.000  C
  H58      1.0000 0.84670  0.67970  0.99930  Biso   1.000  H
  C128     1.0000 0.86040  0.74560  0.17220  Biso   1.000  C
  C129     1.0000 0.83570  0.76790  0.27540  Biso   1.000  C
  H59      1.0000 0.85220  0.80500  0.33770  Biso   1.000  H
  C130     1.0000 0.78700  0.73520  0.28580  Biso   1.000  C
  H60      1.0000 0.77130  0.75040  0.35590  Biso   1.000  H
  C131     1.0000 0.88970  0.38020  0.16600  Biso   1.000  C
  C132     1.0000 0.91570  0.77520  0.16820  Biso   1.000  C
  Co7      1.0000 0.00236  0.79496  0.00687  Biso   1.000  Co
  O55      1.0000 0.94750  0.97866  0.27760  Biso   1.000  O
  O56      1.0000 0.93092  0.03183  0.06300  Biso   1.000  O
  O57      1.0000 0.93247  0.17644  0.07150  Biso   1.000  O
  O58      1.0000 0.94868  0.23066  0.28570  Biso   1.000  O
  O59      1.0000 0.62410  0.84010  0.44340  Biso   1.000  O
  O60      1.0000 0.56025  0.88370  0.24380  Biso   1.000  O
  O61      1.0000 0.56476  0.25580  0.42970  Biso   1.000  O
  O62      1.0000 0.55774  0.31977  0.23070  Biso   1.000  O
  O63      1.0000 0.97460  0.89639  0.02030  Biso   1.000  O
  C133     1.0000 0.87700  0.06830  0.21500  Biso   1.000  C
  C134     1.0000 0.83410  0.03140  0.24800  Biso   1.000  C
  H61      1.0000 0.83620  0.98230  0.25290  Biso   1.000  H
  C135     1.0000 0.78800  0.06460  0.27420  Biso   1.000  C
  C136     1.0000 0.78730  0.13980  0.27900  Biso   1.000  C
  C137     1.0000 0.83270  0.17650  0.25390  Biso   1.000  C
  H62      1.0000 0.83390  0.22550  0.26290  Biso   1.000  H
  C138     1.0000 0.87610  0.14250  0.21580  Biso   1.000  C
  C139     1.0000 0.92260  0.18540  0.18710  Biso   1.000  C
  C140     1.0000 0.92220  0.02490  0.18050  Biso   1.000  C
  C141     1.0000 0.74080  0.01780  0.28910  Biso   1.000  C
  C142     1.0000 0.75470  0.95850  0.37290  Biso   1.000  C
  H63      1.0000 0.79310  0.94800  0.42130  Biso   1.000  H
  C143     1.0000 0.71260  0.91400  0.38680  Biso   1.000  C
  H64      1.0000 0.72250  0.87490  0.44800  Biso   1.000  H
  C144     1.0000 0.65540  0.92690  0.31050  Biso   1.000  C
  C145     1.0000 0.64160  0.98540  0.22000  Biso   1.000  C
  H65      1.0000 0.60350  0.99410  0.16580  Biso   1.000  H
  C146     1.0000 0.68440  0.03110  0.20980  Biso   1.000  C
  H66      1.0000 0.67490  0.07050  0.14940  Biso   1.000  H
  C147     1.0000 0.73890  0.18000  0.30620  Biso   1.000  C
  C148     1.0000 0.71670  0.16110  0.41630  Biso   1.000  C
  H67      1.0000 0.73510  0.12640  0.48320  Biso   1.000  H
  C149     1.0000 0.66770  0.19310  0.42700  Biso   1.000  C
  H68      1.0000 0.65330  0.17970  0.50070  Biso   1.000  H
  C150     1.0000 0.63960  0.24560  0.32780  Biso   1.000  C
  C151     1.0000 0.66430  0.26790  0.22460  Biso   1.000  C
  H69      1.0000 0.64780  0.30500  0.16230  Biso   1.000  H
  C152     1.0000 0.71300  0.23520  0.21420  Biso   1.000  C
  H70      1.0000 0.72870  0.25040  0.14410  Biso   1.000  H
  C153     1.0000 0.61030  0.88020  0.33400  Biso   1.000  C
  C154     1.0000 0.58430  0.27520  0.33180  Biso   1.000  C
  Co8      1.0000 0.50236  0.29496  0.00687  Biso   1.000  Co
  O64      1.0000 0.44750  0.47866  0.27760  Biso   1.000  O
  O65      1.0000 0.43092  0.53183  0.06300  Biso   1.000  O
  O66      1.0000 0.43247  0.67644  0.07150  Biso   1.000  O
  O67      1.0000 0.44868  0.73066  0.28570  Biso   1.000  O
  O68      1.0000 0.12410  0.34010  0.44340  Biso   1.000  O
  O69      1.0000 0.06025  0.38370  0.24380  Biso   1.000  O
  O70      1.0000 0.06476  0.75580  0.42970  Biso   1.000  O
  O71      1.0000 0.05774  0.81977  0.23070  Biso   1.000  O
  O72      1.0000 0.47460  0.39639  0.02030  Biso   1.000  O
  C155     1.0000 0.37700  0.56830  0.21500  Biso   1.000  C
  C156     1.0000 0.33410  0.53140  0.24800  Biso   1.000  C
  H71      1.0000 0.33620  0.48230  0.25290  Biso   1.000  H
  C157     1.0000 0.28800  0.56460  0.27420  Biso   1.000  C
  C158     1.0000 0.28730  0.63980  0.27900  Biso   1.000  C
  C159     1.0000 0.33270  0.67650  0.25390  Biso   1.000  C
  H72      1.0000 0.33390  0.72550  0.26290  Biso   1.000  H
  C160     1.0000 0.37610  0.64250  0.21580  Biso   1.000  C
  C161     1.0000 0.42260  0.68540  0.18710  Biso   1.000  C
  C162     1.0000 0.42220  0.52490  0.18050  Biso   1.000  C
  C163     1.0000 0.24080  0.51780  0.28910  Biso   1.000  C
  C164     1.0000 0.25470  0.45850  0.37290  Biso   1.000  C
  H73      1.0000 0.29310  0.44800  0.42130  Biso   1.000  H
  C165     1.0000 0.21260  0.41400  0.38680  Biso   1.000  C
  H74      1.0000 0.22250  0.37490  0.44800  Biso   1.000  H
  C166     1.0000 0.15540  0.42690  0.31050  Biso   1.000  C
  C167     1.0000 0.14160  0.48540  0.22000  Biso   1.000  C
  H75      1.0000 0.10350  0.49410  0.16580  Biso   1.000  H
  C168     1.0000 0.18440  0.53110  0.20980  Biso   1.000  C
  H76      1.0000 0.17490  0.57050  0.14940  Biso   1.000  H
  C169     1.0000 0.23890  0.68000  0.30620  Biso   1.000  C
  C170     1.0000 0.21670  0.66110  0.41630  Biso   1.000  C
  H77      1.0000 0.23510  0.62640  0.48320  Biso   1.000  H
  C171     1.0000 0.16770  0.69310  0.42700  Biso   1.000  C
  H78      1.0000 0.15330  0.67970  0.50070  Biso   1.000  H
  C172     1.0000 0.13960  0.74560  0.32780  Biso   1.000  C
  C173     1.0000 0.16430  0.76790  0.22460  Biso   1.000  C
  H79      1.0000 0.14780  0.80500  0.16230  Biso   1.000  H
  C174     1.0000 0.21300  0.73520  0.21420  Biso   1.000  C
  H80      1.0000 0.22870  0.75040  0.14410  Biso   1.000  H
  C175     1.0000 0.11030  0.38020  0.33400  Biso   1.000  C
  C176     1.0000 0.08430  0.77520  0.33180  Biso   1.000  C
  Co9      1.0000 0.00000  0.00000  0.00000  Biso   1.000  Co
  Co10     1.0000 0.50000  0.50000  0.00000  Biso   1.000  Co
  Co11     1.0000 0.00000  0.00000  0.50000  Biso   1.000  Co
  Co12     1.0000 0.50000  0.50000  0.50000  Biso   1.000  Co
  Co13     1.0000 0.00000  0.10319  0.75000  Biso   1.000  Co
  Co14     1.0000 0.50000  0.60319  0.75000  Biso   1.000  Co
  Co15     1.0000 0.00000  0.89681  0.25000  Biso   1.000  Co
  Co16     1.0000 0.50000  0.39681  0.25000  Biso   1.000  Co
  Co17     1.0000 0.00000  0.31233  0.25000  Biso   1.000  Co
  Co18     1.0000 0.50000  0.81233  0.25000  Biso   1.000  Co
  Co19     1.0000 0.00000  0.68767  0.75000  Biso   1.000  Co
  Co20     1.0000 0.50000  0.18767  0.75000  Biso   1.000  Co
