data_image0
_cell_length_a       10.0173
_cell_length_b       19.8278
_cell_length_c       10.0473
_cell_angle_alpha    90
_cell_angle_beta     113.771
_cell_angle_gamma    90

_symmetry_space_group_name_H-M    "P 1"
_symmetry_int_tables_number       1

loop_
  _symmetry_equiv_pos_as_xyz
  'x, y, z'

loop_
  _atom_site_label
  _atom_site_occupancy
  _atom_site_fract_x
  _atom_site_fract_y
  _atom_site_fract_z
  _atom_site_thermal_displace_type
  _atom_site_B_iso_or_equiv
  _atom_site_type_symbol
  C1       1.0000 0.46600  0.06193  0.04420  Biso   1.000  C
  V1       1.0000 0.28701  0.25997  0.73871  Biso   1.000  V
  V2       1.0000 0.26825  0.10894  0.49708  Biso   1.000  V
  P1       1.0000 0.00944  0.36448  0.67902  Biso   1.000  P
  P2       1.0000 0.51163  0.13468  0.82832  Biso   1.000  P
  F1       1.0000 0.19426  0.19330  0.58641  Biso   1.000  F
  F2       1.0000 0.34077  0.31324  0.91588  Biso   1.000  F
  F3       1.0000 0.19739  0.05531  0.59976  Biso   1.000  F
  O1       1.0000 0.10650  0.31496  0.64370  Biso   1.000  O
  O2       1.0000 0.85190  0.34022  0.63020  Biso   1.000  O
  O3       1.0000 0.06510  0.37979  0.84220  Biso   1.000  O
  O4       1.0000 0.46350  0.11777  0.66700  Biso   1.000  O
  O5       1.0000 0.67180  0.15704  0.88100  Biso   1.000  O
  O6       1.0000 0.41590  0.18663  0.85860  Biso   1.000  O
  C2       1.0000 0.00590  0.44103  0.58020  Biso   1.000  C
  C3       1.0000 0.10380  0.45093  0.51500  Biso   1.000  C
  H1       1.0000 0.17530  0.41760  0.52510  Biso   1.000  H
  C4       1.0000 0.90220  0.49089  0.56450  Biso   1.000  C
  H2       1.0000 0.83510  0.48500  0.60860  Biso   1.000  H
  C5       1.0000 0.50290  0.05911  0.92380  Biso   1.000  C
  C6       1.0000 0.46240  0.00349  0.11950  Biso   1.000  C
  H3       1.0000 0.43640  0.00600  0.20050  Biso   1.000  H
  H4       1.0000 0.44310  0.10410  0.07470  Biso   1.000  H
  H5       1.0000 0.74700  0.16200  0.98800  Biso   1.000  H
  C7       1.0000 0.53400  0.56193  0.45580  Biso   1.000  C
  V3       1.0000 0.71299  0.75997  0.76129  Biso   1.000  V
  V4       1.0000 0.73175  0.60894  0.00292  Biso   1.000  V
  P3       1.0000 0.99056  0.86448  0.82098  Biso   1.000  P
  P4       1.0000 0.48837  0.63468  0.67168  Biso   1.000  P
  F4       1.0000 0.80574  0.69330  0.91359  Biso   1.000  F
  F5       1.0000 0.65923  0.81324  0.58412  Biso   1.000  F
  F6       1.0000 0.80261  0.55531  0.90024  Biso   1.000  F
  O7       1.0000 0.89350  0.81496  0.85630  Biso   1.000  O
  O8       1.0000 0.14810  0.84022  0.86980  Biso   1.000  O
  O9       1.0000 0.93490  0.87979  0.65780  Biso   1.000  O
  O10      1.0000 0.53650  0.61777  0.83300  Biso   1.000  O
  O11      1.0000 0.32820  0.65704  0.61900  Biso   1.000  O
  O12      1.0000 0.58410  0.68663  0.64140  Biso   1.000  O
  C8       1.0000 0.99410  0.94103  0.91980  Biso   1.000  C
  C9       1.0000 0.89620  0.95093  0.98500  Biso   1.000  C
  H6       1.0000 0.82470  0.91760  0.97490  Biso   1.000  H
  C10      1.0000 0.09780  0.99089  0.93550  Biso   1.000  C
  H7       1.0000 0.16490  0.98500  0.89140  Biso   1.000  H
  C11      1.0000 0.49710  0.55911  0.57620  Biso   1.000  C
  C12      1.0000 0.53760  0.50349  0.38050  Biso   1.000  C
  H8       1.0000 0.56360  0.50600  0.29950  Biso   1.000  H
  H9       1.0000 0.55690  0.60410  0.42530  Biso   1.000  H
  H10      1.0000 0.25300  0.66200  0.51200  Biso   1.000  H
  C13      1.0000 0.53400  0.93807  0.95580  Biso   1.000  C
  V5       1.0000 0.71299  0.74003  0.26129  Biso   1.000  V
  V6       1.0000 0.73175  0.89106  0.50292  Biso   1.000  V
  P5       1.0000 0.99056  0.63552  0.32098  Biso   1.000  P
  P6       1.0000 0.48837  0.86532  0.17168  Biso   1.000  P
  F7       1.0000 0.80574  0.80670  0.41359  Biso   1.000  F
  F8       1.0000 0.65923  0.68676  0.08412  Biso   1.000  F
  F9       1.0000 0.80261  0.94469  0.40024  Biso   1.000  F
  O13      1.0000 0.89350  0.68504  0.35630  Biso   1.000  O
  O14      1.0000 0.14810  0.65978  0.36980  Biso   1.000  O
  O15      1.0000 0.93490  0.62021  0.15780  Biso   1.000  O
  O16      1.0000 0.53650  0.88223  0.33300  Biso   1.000  O
  O17      1.0000 0.32820  0.84296  0.11900  Biso   1.000  O
  O18      1.0000 0.58410  0.81337  0.14140  Biso   1.000  O
  C14      1.0000 0.99410  0.55897  0.41980  Biso   1.000  C
  C15      1.0000 0.89620  0.54907  0.48500  Biso   1.000  C
  H11      1.0000 0.82470  0.58240  0.47490  Biso   1.000  H
  C16      1.0000 0.09780  0.50911  0.43550  Biso   1.000  C
  H12      1.0000 0.16490  0.51500  0.39140  Biso   1.000  H
  C17      1.0000 0.49710  0.94089  0.07620  Biso   1.000  C
  C18      1.0000 0.53760  0.99651  0.88050  Biso   1.000  C
  H13      1.0000 0.56360  0.99400  0.79950  Biso   1.000  H
  H14      1.0000 0.55690  0.89590  0.92530  Biso   1.000  H
  H15      1.0000 0.25300  0.83800  0.01200  Biso   1.000  H
  C19      1.0000 0.46600  0.43807  0.54420  Biso   1.000  C
  V7       1.0000 0.28701  0.24003  0.23871  Biso   1.000  V
  V8       1.0000 0.26825  0.39106  0.99708  Biso   1.000  V
  P7       1.0000 0.00944  0.13552  0.17902  Biso   1.000  P
  P8       1.0000 0.51163  0.36532  0.32832  Biso   1.000  P
  F10      1.0000 0.19426  0.30670  0.08641  Biso   1.000  F
  F11      1.0000 0.34077  0.18676  0.41588  Biso   1.000  F
  F12      1.0000 0.19739  0.44469  0.09976  Biso   1.000  F
  O19      1.0000 0.10650  0.18504  0.14370  Biso   1.000  O
  O20      1.0000 0.85190  0.15978  0.13020  Biso   1.000  O
  O21      1.0000 0.06510  0.12021  0.34220  Biso   1.000  O
  O22      1.0000 0.46350  0.38223  0.16700  Biso   1.000  O
  O23      1.0000 0.67180  0.34296  0.38100  Biso   1.000  O
  O24      1.0000 0.41590  0.31337  0.35860  Biso   1.000  O
  C20      1.0000 0.00590  0.05897  0.08020  Biso   1.000  C
  C21      1.0000 0.10380  0.04907  0.01500  Biso   1.000  C
  H16      1.0000 0.17530  0.08240  0.02510  Biso   1.000  H
  C22      1.0000 0.90220  0.00911  0.06450  Biso   1.000  C
  H17      1.0000 0.83510  0.01500  0.10860  Biso   1.000  H
  C23      1.0000 0.50290  0.44089  0.42380  Biso   1.000  C
  C24      1.0000 0.46240  0.49651  0.61950  Biso   1.000  C
  H18      1.0000 0.43640  0.49400  0.70050  Biso   1.000  H
  H19      1.0000 0.44310  0.39590  0.57470  Biso   1.000  H
  H20      1.0000 0.74700  0.33800  0.48800  Biso   1.000  H
