data_image0
_cell_length_a       8.6945
_cell_length_b       20.808
_cell_length_c       34.079
_cell_angle_alpha    90
_cell_angle_beta     90
_cell_angle_gamma    90

_symmetry_space_group_name_H-M    "P 1"
_symmetry_int_tables_number       1

loop_
  _symmetry_equiv_pos_as_xyz
  'x, y, z'

loop_
  _atom_site_label
  _atom_site_occupancy
  _atom_site_fract_x
  _atom_site_fract_y
  _atom_site_fract_z
  _atom_site_thermal_displace_type
  _atom_site_B_iso_or_equiv
  _atom_site_type_symbol
  O1       1.0000 0.24800  0.33300  0.59320  Biso   1.000  O
  O2       1.0000 0.00720  0.33300  0.57080  Biso   1.000  O
  O3       1.0000 0.24020  0.45770  0.63690  Biso   1.000  O
  C1       1.0000 0.14590  0.31920  0.56810  Biso   1.000  C
  C2       1.0000 0.20060  0.28500  0.53240  Biso   1.000  C
  C3       1.0000 0.09680  0.26660  0.50410  Biso   1.000  C
  C4       1.0000 0.14670  0.23170  0.47160  Biso   1.000  C
  C5       1.0000 0.21800  0.59070  0.65080  Biso   1.000  C
  C6       1.0000 0.21800  0.65750  0.65070  Biso   1.000  C
  H1       1.0000 0.99130  0.27750  0.50700  Biso   1.000  H
  H2       1.0000 0.07400  0.21930  0.45230  Biso   1.000  H
  H3       1.0000 0.27100  0.56800  0.67090  Biso   1.000  H
  H4       1.0000 0.27220  0.68000  0.67080  Biso   1.000  H
  O4       1.0000 0.24800  0.83300  0.09320  Biso   1.000  O
  O5       1.0000 0.00720  0.83300  0.07080  Biso   1.000  O
  O6       1.0000 0.24020  0.95770  0.13690  Biso   1.000  O
  C7       1.0000 0.14590  0.81920  0.06810  Biso   1.000  C
  C8       1.0000 0.20060  0.78500  0.03240  Biso   1.000  C
  C9       1.0000 0.09680  0.76660  0.00410  Biso   1.000  C
  C10      1.0000 0.14670  0.73170  0.97160  Biso   1.000  C
  C11      1.0000 0.21800  0.09070  0.15080  Biso   1.000  C
  C12      1.0000 0.21800  0.15750  0.15070  Biso   1.000  C
  H5       1.0000 0.99130  0.77750  0.00700  Biso   1.000  H
  H6       1.0000 0.07400  0.71930  0.95230  Biso   1.000  H
  H7       1.0000 0.27100  0.06800  0.17090  Biso   1.000  H
  H8       1.0000 0.27220  0.18000  0.17080  Biso   1.000  H
  O7       1.0000 0.74800  0.33300  0.09320  Biso   1.000  O
  O8       1.0000 0.50720  0.33300  0.07080  Biso   1.000  O
  O9       1.0000 0.74020  0.45770  0.13690  Biso   1.000  O
  C13      1.0000 0.64590  0.31920  0.06810  Biso   1.000  C
  C14      1.0000 0.70060  0.28500  0.03240  Biso   1.000  C
  C15      1.0000 0.59680  0.26660  0.00410  Biso   1.000  C
  C16      1.0000 0.64670  0.23170  0.97160  Biso   1.000  C
  C17      1.0000 0.71800  0.59070  0.15080  Biso   1.000  C
  C18      1.0000 0.71800  0.65750  0.15070  Biso   1.000  C
  H9       1.0000 0.49130  0.27750  0.00700  Biso   1.000  H
  H10      1.0000 0.57400  0.21930  0.95230  Biso   1.000  H
  H11      1.0000 0.77100  0.56800  0.17090  Biso   1.000  H
  H12      1.0000 0.77220  0.68000  0.17080  Biso   1.000  H
  O10      1.0000 0.74800  0.83300  0.59320  Biso   1.000  O
  O11      1.0000 0.50720  0.83300  0.57080  Biso   1.000  O
  O12      1.0000 0.74020  0.95770  0.63690  Biso   1.000  O
  C19      1.0000 0.64590  0.81920  0.56810  Biso   1.000  C
  C20      1.0000 0.70060  0.78500  0.53240  Biso   1.000  C
  C21      1.0000 0.59680  0.76660  0.50410  Biso   1.000  C
  C22      1.0000 0.64670  0.73170  0.47160  Biso   1.000  C
  C23      1.0000 0.71800  0.09070  0.65080  Biso   1.000  C
  C24      1.0000 0.71800  0.15750  0.65070  Biso   1.000  C
  H13      1.0000 0.49130  0.77750  0.50700  Biso   1.000  H
  H14      1.0000 0.57400  0.71930  0.45230  Biso   1.000  H
  H15      1.0000 0.77100  0.06800  0.67090  Biso   1.000  H
  H16      1.0000 0.77220  0.18000  0.67080  Biso   1.000  H
  O13      1.0000 0.50200  0.41700  0.59320  Biso   1.000  O
  O14      1.0000 0.74280  0.41700  0.57080  Biso   1.000  O
  O15      1.0000 0.50980  0.29230  0.63690  Biso   1.000  O
  C25      1.0000 0.60410  0.43080  0.56810  Biso   1.000  C
  C26      1.0000 0.54940  0.46500  0.53240  Biso   1.000  C
  C27      1.0000 0.65320  0.48340  0.50410  Biso   1.000  C
  C28      1.0000 0.60330  0.51830  0.47160  Biso   1.000  C
  C29      1.0000 0.53200  0.15930  0.65080  Biso   1.000  C
  C30      1.0000 0.53200  0.09250  0.65070  Biso   1.000  C
  H17      1.0000 0.75870  0.47250  0.50700  Biso   1.000  H
  H18      1.0000 0.67600  0.53070  0.45230  Biso   1.000  H
  H19      1.0000 0.47900  0.18200  0.67090  Biso   1.000  H
  H20      1.0000 0.47780  0.07000  0.67080  Biso   1.000  H
  O16      1.0000 0.50200  0.91700  0.09320  Biso   1.000  O
  O17      1.0000 0.74280  0.91700  0.07080  Biso   1.000  O
  O18      1.0000 0.50980  0.79230  0.13690  Biso   1.000  O
  C31      1.0000 0.60410  0.93080  0.06810  Biso   1.000  C
  C32      1.0000 0.54940  0.96500  0.03240  Biso   1.000  C
  C33      1.0000 0.65320  0.98340  0.00410  Biso   1.000  C
  C34      1.0000 0.60330  0.01830  0.97160  Biso   1.000  C
  C35      1.0000 0.53200  0.65930  0.15080  Biso   1.000  C
  C36      1.0000 0.53200  0.59250  0.15070  Biso   1.000  C
  H21      1.0000 0.75870  0.97250  0.00700  Biso   1.000  H
  H22      1.0000 0.67600  0.03070  0.95230  Biso   1.000  H
  H23      1.0000 0.47900  0.68200  0.17090  Biso   1.000  H
  H24      1.0000 0.47780  0.57000  0.17080  Biso   1.000  H
  O19      1.0000 0.00200  0.41700  0.09320  Biso   1.000  O
  O20      1.0000 0.24280  0.41700  0.07080  Biso   1.000  O
  O21      1.0000 0.00980  0.29230  0.13690  Biso   1.000  O
  C37      1.0000 0.10410  0.43080  0.06810  Biso   1.000  C
  C38      1.0000 0.04940  0.46500  0.03240  Biso   1.000  C
  C39      1.0000 0.15320  0.48340  0.00410  Biso   1.000  C
  C40      1.0000 0.10330  0.51830  0.97160  Biso   1.000  C
  C41      1.0000 0.03200  0.15930  0.15080  Biso   1.000  C
  C42      1.0000 0.03200  0.09250  0.15070  Biso   1.000  C
  H25      1.0000 0.25870  0.47250  0.00700  Biso   1.000  H
  H26      1.0000 0.17600  0.53070  0.95230  Biso   1.000  H
  H27      1.0000 0.97900  0.18200  0.17090  Biso   1.000  H
  H28      1.0000 0.97780  0.07000  0.17080  Biso   1.000  H
  O22      1.0000 0.00200  0.91700  0.59320  Biso   1.000  O
  O23      1.0000 0.24280  0.91700  0.57080  Biso   1.000  O
  O24      1.0000 0.00980  0.79230  0.63690  Biso   1.000  O
  C43      1.0000 0.10410  0.93080  0.56810  Biso   1.000  C
  C44      1.0000 0.04940  0.96500  0.53240  Biso   1.000  C
  C45      1.0000 0.15320  0.98340  0.50410  Biso   1.000  C
  C46      1.0000 0.10330  0.01830  0.47160  Biso   1.000  C
  C47      1.0000 0.03200  0.65930  0.65080  Biso   1.000  C
  C48      1.0000 0.03200  0.59250  0.65070  Biso   1.000  C
  H29      1.0000 0.25870  0.97250  0.50700  Biso   1.000  H
  H30      1.0000 0.17600  0.03070  0.45230  Biso   1.000  H
  H31      1.0000 0.97900  0.68200  0.67090  Biso   1.000  H
  H32      1.0000 0.97780  0.57000  0.67080  Biso   1.000  H
  O25      1.0000 0.50200  0.33300  0.15680  Biso   1.000  O
  O26      1.0000 0.74280  0.33300  0.17920  Biso   1.000  O
  O27      1.0000 0.50980  0.45770  0.11310  Biso   1.000  O
  C49      1.0000 0.60410  0.31920  0.18190  Biso   1.000  C
  C50      1.0000 0.54940  0.28500  0.21760  Biso   1.000  C
  C51      1.0000 0.65320  0.26660  0.24590  Biso   1.000  C
  C52      1.0000 0.60330  0.23170  0.27840  Biso   1.000  C
  C53      1.0000 0.53200  0.59070  0.09920  Biso   1.000  C
  C54      1.0000 0.53200  0.65750  0.09930  Biso   1.000  C
  H33      1.0000 0.75870  0.27750  0.24300  Biso   1.000  H
  H34      1.0000 0.67600  0.21930  0.29770  Biso   1.000  H
  H35      1.0000 0.47900  0.56800  0.07910  Biso   1.000  H
  H36      1.0000 0.47780  0.68000  0.07920  Biso   1.000  H
  O28      1.0000 0.50200  0.83300  0.65680  Biso   1.000  O
  O29      1.0000 0.74280  0.83300  0.67920  Biso   1.000  O
  O30      1.0000 0.50980  0.95770  0.61310  Biso   1.000  O
  C55      1.0000 0.60410  0.81920  0.68190  Biso   1.000  C
  C56      1.0000 0.54940  0.78500  0.71760  Biso   1.000  C
  C57      1.0000 0.65320  0.76660  0.74590  Biso   1.000  C
  C58      1.0000 0.60330  0.73170  0.77840  Biso   1.000  C
  C59      1.0000 0.53200  0.09070  0.59920  Biso   1.000  C
  C60      1.0000 0.53200  0.15750  0.59930  Biso   1.000  C
  H37      1.0000 0.75870  0.77750  0.74300  Biso   1.000  H
  H38      1.0000 0.67600  0.71930  0.79770  Biso   1.000  H
  H39      1.0000 0.47900  0.06800  0.57910  Biso   1.000  H
  H40      1.0000 0.47780  0.18000  0.57920  Biso   1.000  H
  O31      1.0000 0.00200  0.33300  0.65680  Biso   1.000  O
  O32      1.0000 0.24280  0.33300  0.67920  Biso   1.000  O
  O33      1.0000 0.00980  0.45770  0.61310  Biso   1.000  O
  C61      1.0000 0.10410  0.31920  0.68190  Biso   1.000  C
  C62      1.0000 0.04940  0.28500  0.71760  Biso   1.000  C
  C63      1.0000 0.15320  0.26660  0.74590  Biso   1.000  C
  C64      1.0000 0.10330  0.23170  0.77840  Biso   1.000  C
  C65      1.0000 0.03200  0.59070  0.59920  Biso   1.000  C
  C66      1.0000 0.03200  0.65750  0.59930  Biso   1.000  C
  H41      1.0000 0.25870  0.27750  0.74300  Biso   1.000  H
  H42      1.0000 0.17600  0.21930  0.79770  Biso   1.000  H
  H43      1.0000 0.97900  0.56800  0.57910  Biso   1.000  H
  H44      1.0000 0.97780  0.68000  0.57920  Biso   1.000  H
  O34      1.0000 0.00200  0.83300  0.15680  Biso   1.000  O
  O35      1.0000 0.24280  0.83300  0.17920  Biso   1.000  O
  O36      1.0000 0.00980  0.95770  0.11310  Biso   1.000  O
  C67      1.0000 0.10410  0.81920  0.18190  Biso   1.000  C
  C68      1.0000 0.04940  0.78500  0.21760  Biso   1.000  C
  C69      1.0000 0.15320  0.76660  0.24590  Biso   1.000  C
  C70      1.0000 0.10330  0.73170  0.27840  Biso   1.000  C
  C71      1.0000 0.03200  0.09070  0.09920  Biso   1.000  C
  C72      1.0000 0.03200  0.15750  0.09930  Biso   1.000  C
  H45      1.0000 0.25870  0.77750  0.24300  Biso   1.000  H
  H46      1.0000 0.17600  0.71930  0.29770  Biso   1.000  H
  H47      1.0000 0.97900  0.06800  0.07910  Biso   1.000  H
  H48      1.0000 0.97780  0.18000  0.07920  Biso   1.000  H
  O37      1.0000 0.24800  0.41700  0.15680  Biso   1.000  O
  O38      1.0000 0.00720  0.41700  0.17920  Biso   1.000  O
  O39      1.0000 0.24020  0.29230  0.11310  Biso   1.000  O
  C73      1.0000 0.14590  0.43080  0.18190  Biso   1.000  C
  C74      1.0000 0.20060  0.46500  0.21760  Biso   1.000  C
  C75      1.0000 0.09680  0.48340  0.24590  Biso   1.000  C
  C76      1.0000 0.14670  0.51830  0.27840  Biso   1.000  C
  C77      1.0000 0.21800  0.15930  0.09920  Biso   1.000  C
  C78      1.0000 0.21800  0.09250  0.09930  Biso   1.000  C
  H49      1.0000 0.99130  0.47250  0.24300  Biso   1.000  H
  H50      1.0000 0.07400  0.53070  0.29770  Biso   1.000  H
  H51      1.0000 0.27100  0.18200  0.07910  Biso   1.000  H
  H52      1.0000 0.27220  0.07000  0.07920  Biso   1.000  H
  O40      1.0000 0.24800  0.91700  0.65680  Biso   1.000  O
  O41      1.0000 0.00720  0.91700  0.67920  Biso   1.000  O
  O42      1.0000 0.24020  0.79230  0.61310  Biso   1.000  O
  C79      1.0000 0.14590  0.93080  0.68190  Biso   1.000  C
  C80      1.0000 0.20060  0.96500  0.71760  Biso   1.000  C
  C81      1.0000 0.09680  0.98340  0.74590  Biso   1.000  C
  C82      1.0000 0.14670  0.01830  0.77840  Biso   1.000  C
  C83      1.0000 0.21800  0.65930  0.59920  Biso   1.000  C
  C84      1.0000 0.21800  0.59250  0.59930  Biso   1.000  C
  H53      1.0000 0.99130  0.97250  0.74300  Biso   1.000  H
  H54      1.0000 0.07400  0.03070  0.79770  Biso   1.000  H
  H55      1.0000 0.27100  0.68200  0.57910  Biso   1.000  H
  H56      1.0000 0.27220  0.57000  0.57920  Biso   1.000  H
  O43      1.0000 0.74800  0.41700  0.65680  Biso   1.000  O
  O44      1.0000 0.50720  0.41700  0.67920  Biso   1.000  O
  O45      1.0000 0.74020  0.29230  0.61310  Biso   1.000  O
  C85      1.0000 0.64590  0.43080  0.68190  Biso   1.000  C
  C86      1.0000 0.70060  0.46500  0.71760  Biso   1.000  C
  C87      1.0000 0.59680  0.48340  0.74590  Biso   1.000  C
  C88      1.0000 0.64670  0.51830  0.77840  Biso   1.000  C
  C89      1.0000 0.71800  0.15930  0.59920  Biso   1.000  C
  C90      1.0000 0.71800  0.09250  0.59930  Biso   1.000  C
  H57      1.0000 0.49130  0.47250  0.74300  Biso   1.000  H
  H58      1.0000 0.57400  0.53070  0.79770  Biso   1.000  H
  H59      1.0000 0.77100  0.18200  0.57910  Biso   1.000  H
  H60      1.0000 0.77220  0.07000  0.57920  Biso   1.000  H
  O46      1.0000 0.74800  0.91700  0.15680  Biso   1.000  O
  O47      1.0000 0.50720  0.91700  0.17920  Biso   1.000  O
  O48      1.0000 0.74020  0.79230  0.11310  Biso   1.000  O
  C91      1.0000 0.64590  0.93080  0.18190  Biso   1.000  C
  C92      1.0000 0.70060  0.96500  0.21760  Biso   1.000  C
  C93      1.0000 0.59680  0.98340  0.24590  Biso   1.000  C
  C94      1.0000 0.64670  0.01830  0.27840  Biso   1.000  C
  C95      1.0000 0.71800  0.65930  0.09920  Biso   1.000  C
  C96      1.0000 0.71800  0.59250  0.09930  Biso   1.000  C
  H61      1.0000 0.49130  0.97250  0.24300  Biso   1.000  H
  H62      1.0000 0.57400  0.03070  0.29770  Biso   1.000  H
  H63      1.0000 0.77100  0.68200  0.07910  Biso   1.000  H
  H64      1.0000 0.77220  0.57000  0.07920  Biso   1.000  H
  O49      1.0000 0.75200  0.66700  0.40680  Biso   1.000  O
  O50      1.0000 0.99280  0.66700  0.42920  Biso   1.000  O
  O51      1.0000 0.75980  0.54230  0.36310  Biso   1.000  O
  C97      1.0000 0.85410  0.68080  0.43190  Biso   1.000  C
  C98      1.0000 0.79940  0.71500  0.46760  Biso   1.000  C
  C99      1.0000 0.90320  0.73340  0.49590  Biso   1.000  C
  C100     1.0000 0.85330  0.76830  0.52840  Biso   1.000  C
  C101     1.0000 0.78200  0.40930  0.34920  Biso   1.000  C
  C102     1.0000 0.78200  0.34250  0.34930  Biso   1.000  C
  H65      1.0000 0.00870  0.72250  0.49300  Biso   1.000  H
  H66      1.0000 0.92600  0.78070  0.54770  Biso   1.000  H
  H67      1.0000 0.72900  0.43200  0.32910  Biso   1.000  H
  H68      1.0000 0.72780  0.32000  0.32920  Biso   1.000  H
  O52      1.0000 0.75200  0.16700  0.90680  Biso   1.000  O
  O53      1.0000 0.99280  0.16700  0.92920  Biso   1.000  O
  O54      1.0000 0.75980  0.04230  0.86310  Biso   1.000  O
  C103     1.0000 0.85410  0.18080  0.93190  Biso   1.000  C
  C104     1.0000 0.79940  0.21500  0.96760  Biso   1.000  C
  C105     1.0000 0.90320  0.23340  0.99590  Biso   1.000  C
  C106     1.0000 0.85330  0.26830  0.02840  Biso   1.000  C
  C107     1.0000 0.78200  0.90930  0.84920  Biso   1.000  C
  C108     1.0000 0.78200  0.84250  0.84930  Biso   1.000  C
  H69      1.0000 0.00870  0.22250  0.99300  Biso   1.000  H
  H70      1.0000 0.92600  0.28070  0.04770  Biso   1.000  H
  H71      1.0000 0.72900  0.93200  0.82910  Biso   1.000  H
  H72      1.0000 0.72780  0.82000  0.82920  Biso   1.000  H
  O55      1.0000 0.25200  0.66700  0.90680  Biso   1.000  O
  O56      1.0000 0.49280  0.66700  0.92920  Biso   1.000  O
  O57      1.0000 0.25980  0.54230  0.86310  Biso   1.000  O
  C109     1.0000 0.35410  0.68080  0.93190  Biso   1.000  C
  C110     1.0000 0.29940  0.71500  0.96760  Biso   1.000  C
  C111     1.0000 0.40320  0.73340  0.99590  Biso   1.000  C
  C112     1.0000 0.35330  0.76830  0.02840  Biso   1.000  C
  C113     1.0000 0.28200  0.40930  0.84920  Biso   1.000  C
  C114     1.0000 0.28200  0.34250  0.84930  Biso   1.000  C
  H73      1.0000 0.50870  0.72250  0.99300  Biso   1.000  H
  H74      1.0000 0.42600  0.78070  0.04770  Biso   1.000  H
  H75      1.0000 0.22900  0.43200  0.82910  Biso   1.000  H
  H76      1.0000 0.22780  0.32000  0.82920  Biso   1.000  H
  O58      1.0000 0.25200  0.16700  0.40680  Biso   1.000  O
  O59      1.0000 0.49280  0.16700  0.42920  Biso   1.000  O
  O60      1.0000 0.25980  0.04230  0.36310  Biso   1.000  O
  C115     1.0000 0.35410  0.18080  0.43190  Biso   1.000  C
  C116     1.0000 0.29940  0.21500  0.46760  Biso   1.000  C
  C117     1.0000 0.40320  0.23340  0.49590  Biso   1.000  C
  C118     1.0000 0.35330  0.26830  0.52840  Biso   1.000  C
  C119     1.0000 0.28200  0.90930  0.34920  Biso   1.000  C
  C120     1.0000 0.28200  0.84250  0.34930  Biso   1.000  C
  H77      1.0000 0.50870  0.22250  0.49300  Biso   1.000  H
  H78      1.0000 0.42600  0.28070  0.54770  Biso   1.000  H
  H79      1.0000 0.22900  0.93200  0.32910  Biso   1.000  H
  H80      1.0000 0.22780  0.82000  0.32920  Biso   1.000  H
  O61      1.0000 0.49800  0.58300  0.40680  Biso   1.000  O
  O62      1.0000 0.25720  0.58300  0.42920  Biso   1.000  O
  O63      1.0000 0.49020  0.70770  0.36310  Biso   1.000  O
  C121     1.0000 0.39590  0.56920  0.43190  Biso   1.000  C
  C122     1.0000 0.45060  0.53500  0.46760  Biso   1.000  C
  C123     1.0000 0.34680  0.51660  0.49590  Biso   1.000  C
  C124     1.0000 0.39670  0.48170  0.52840  Biso   1.000  C
  C125     1.0000 0.46800  0.84070  0.34920  Biso   1.000  C
  C126     1.0000 0.46800  0.90750  0.34930  Biso   1.000  C
  H81      1.0000 0.24130  0.52750  0.49300  Biso   1.000  H
  H82      1.0000 0.32400  0.46930  0.54770  Biso   1.000  H
  H83      1.0000 0.52100  0.81800  0.32910  Biso   1.000  H
  H84      1.0000 0.52220  0.93000  0.32920  Biso   1.000  H
  O64      1.0000 0.49800  0.08300  0.90680  Biso   1.000  O
  O65      1.0000 0.25720  0.08300  0.92920  Biso   1.000  O
  O66      1.0000 0.49020  0.20770  0.86310  Biso   1.000  O
  C127     1.0000 0.39590  0.06920  0.93190  Biso   1.000  C
  C128     1.0000 0.45060  0.03500  0.96760  Biso   1.000  C
  C129     1.0000 0.34680  0.01660  0.99590  Biso   1.000  C
  C130     1.0000 0.39670  0.98170  0.02840  Biso   1.000  C
  C131     1.0000 0.46800  0.34070  0.84920  Biso   1.000  C
  C132     1.0000 0.46800  0.40750  0.84930  Biso   1.000  C
  H85      1.0000 0.24130  0.02750  0.99300  Biso   1.000  H
  H86      1.0000 0.32400  0.96930  0.04770  Biso   1.000  H
  H87      1.0000 0.52100  0.31800  0.82910  Biso   1.000  H
  H88      1.0000 0.52220  0.43000  0.82920  Biso   1.000  H
  O67      1.0000 0.99800  0.58300  0.90680  Biso   1.000  O
  O68      1.0000 0.75720  0.58300  0.92920  Biso   1.000  O
  O69      1.0000 0.99020  0.70770  0.86310  Biso   1.000  O
  C133     1.0000 0.89590  0.56920  0.93190  Biso   1.000  C
  C134     1.0000 0.95060  0.53500  0.96760  Biso   1.000  C
  C135     1.0000 0.84680  0.51660  0.99590  Biso   1.000  C
  C136     1.0000 0.89670  0.48170  0.02840  Biso   1.000  C
  C137     1.0000 0.96800  0.84070  0.84920  Biso   1.000  C
  C138     1.0000 0.96800  0.90750  0.84930  Biso   1.000  C
  H89      1.0000 0.74130  0.52750  0.99300  Biso   1.000  H
  H90      1.0000 0.82400  0.46930  0.04770  Biso   1.000  H
  H91      1.0000 0.02100  0.81800  0.82910  Biso   1.000  H
  H92      1.0000 0.02220  0.93000  0.82920  Biso   1.000  H
  O70      1.0000 0.99800  0.08300  0.40680  Biso   1.000  O
  O71      1.0000 0.75720  0.08300  0.42920  Biso   1.000  O
  O72      1.0000 0.99020  0.20770  0.36310  Biso   1.000  O
  C139     1.0000 0.89590  0.06920  0.43190  Biso   1.000  C
  C140     1.0000 0.95060  0.03500  0.46760  Biso   1.000  C
  C141     1.0000 0.84680  0.01660  0.49590  Biso   1.000  C
  C142     1.0000 0.89670  0.98170  0.52840  Biso   1.000  C
  C143     1.0000 0.96800  0.34070  0.34920  Biso   1.000  C
  C144     1.0000 0.96800  0.40750  0.34930  Biso   1.000  C
  H93      1.0000 0.74130  0.02750  0.49300  Biso   1.000  H
  H94      1.0000 0.82400  0.96930  0.54770  Biso   1.000  H
  H95      1.0000 0.02100  0.31800  0.32910  Biso   1.000  H
  H96      1.0000 0.02220  0.43000  0.32920  Biso   1.000  H
  O73      1.0000 0.49800  0.66700  0.84320  Biso   1.000  O
  O74      1.0000 0.25720  0.66700  0.82080  Biso   1.000  O
  O75      1.0000 0.49020  0.54230  0.88690  Biso   1.000  O
  C145     1.0000 0.39590  0.68080  0.81810  Biso   1.000  C
  C146     1.0000 0.45060  0.71500  0.78240  Biso   1.000  C
  C147     1.0000 0.34680  0.73340  0.75410  Biso   1.000  C
  C148     1.0000 0.39670  0.76830  0.72160  Biso   1.000  C
  C149     1.0000 0.46800  0.40930  0.90080  Biso   1.000  C
  C150     1.0000 0.46800  0.34250  0.90070  Biso   1.000  C
  H97      1.0000 0.24130  0.72250  0.75700  Biso   1.000  H
  H98      1.0000 0.32400  0.78070  0.70230  Biso   1.000  H
  H99      1.0000 0.52100  0.43200  0.92090  Biso   1.000  H
  H100     1.0000 0.52220  0.32000  0.92080  Biso   1.000  H
  O76      1.0000 0.49800  0.16700  0.34320  Biso   1.000  O
  O77      1.0000 0.25720  0.16700  0.32080  Biso   1.000  O
  O78      1.0000 0.49020  0.04230  0.38690  Biso   1.000  O
  C151     1.0000 0.39590  0.18080  0.31810  Biso   1.000  C
  C152     1.0000 0.45060  0.21500  0.28240  Biso   1.000  C
  C153     1.0000 0.34680  0.23340  0.25410  Biso   1.000  C
  C154     1.0000 0.39670  0.26830  0.22160  Biso   1.000  C
  C155     1.0000 0.46800  0.90930  0.40080  Biso   1.000  C
  C156     1.0000 0.46800  0.84250  0.40070  Biso   1.000  C
  H101     1.0000 0.24130  0.22250  0.25700  Biso   1.000  H
  H102     1.0000 0.32400  0.28070  0.20230  Biso   1.000  H
  H103     1.0000 0.52100  0.93200  0.42090  Biso   1.000  H
  H104     1.0000 0.52220  0.82000  0.42080  Biso   1.000  H
  O79      1.0000 0.99800  0.66700  0.34320  Biso   1.000  O
  O80      1.0000 0.75720  0.66700  0.32080  Biso   1.000  O
  O81      1.0000 0.99020  0.54230  0.38690  Biso   1.000  O
  C157     1.0000 0.89590  0.68080  0.31810  Biso   1.000  C
  C158     1.0000 0.95060  0.71500  0.28240  Biso   1.000  C
  C159     1.0000 0.84680  0.73340  0.25410  Biso   1.000  C
  C160     1.0000 0.89670  0.76830  0.22160  Biso   1.000  C
  C161     1.0000 0.96800  0.40930  0.40080  Biso   1.000  C
  C162     1.0000 0.96800  0.34250  0.40070  Biso   1.000  C
  H105     1.0000 0.74130  0.72250  0.25700  Biso   1.000  H
  H106     1.0000 0.82400  0.78070  0.20230  Biso   1.000  H
  H107     1.0000 0.02100  0.43200  0.42090  Biso   1.000  H
  H108     1.0000 0.02220  0.32000  0.42080  Biso   1.000  H
  O82      1.0000 0.99800  0.16700  0.84320  Biso   1.000  O
  O83      1.0000 0.75720  0.16700  0.82080  Biso   1.000  O
  O84      1.0000 0.99020  0.04230  0.88690  Biso   1.000  O
  C163     1.0000 0.89590  0.18080  0.81810  Biso   1.000  C
  C164     1.0000 0.95060  0.21500  0.78240  Biso   1.000  C
  C165     1.0000 0.84680  0.23340  0.75410  Biso   1.000  C
  C166     1.0000 0.89670  0.26830  0.72160  Biso   1.000  C
  C167     1.0000 0.96800  0.90930  0.90080  Biso   1.000  C
  C168     1.0000 0.96800  0.84250  0.90070  Biso   1.000  C
  H109     1.0000 0.74130  0.22250  0.75700  Biso   1.000  H
  H110     1.0000 0.82400  0.28070  0.70230  Biso   1.000  H
  H111     1.0000 0.02100  0.93200  0.92090  Biso   1.000  H
  H112     1.0000 0.02220  0.82000  0.92080  Biso   1.000  H
  O85      1.0000 0.75200  0.58300  0.84320  Biso   1.000  O
  O86      1.0000 0.99280  0.58300  0.82080  Biso   1.000  O
  O87      1.0000 0.75980  0.70770  0.88690  Biso   1.000  O
  C169     1.0000 0.85410  0.56920  0.81810  Biso   1.000  C
  C170     1.0000 0.79940  0.53500  0.78240  Biso   1.000  C
  C171     1.0000 0.90320  0.51660  0.75410  Biso   1.000  C
  C172     1.0000 0.85330  0.48170  0.72160  Biso   1.000  C
  C173     1.0000 0.78200  0.84070  0.90080  Biso   1.000  C
  C174     1.0000 0.78200  0.90750  0.90070  Biso   1.000  C
  H113     1.0000 0.00870  0.52750  0.75700  Biso   1.000  H
  H114     1.0000 0.92600  0.46930  0.70230  Biso   1.000  H
  H115     1.0000 0.72900  0.81800  0.92090  Biso   1.000  H
  H116     1.0000 0.72780  0.93000  0.92080  Biso   1.000  H
  O88      1.0000 0.75200  0.08300  0.34320  Biso   1.000  O
  O89      1.0000 0.99280  0.08300  0.32080  Biso   1.000  O
  O90      1.0000 0.75980  0.20770  0.38690  Biso   1.000  O
  C175     1.0000 0.85410  0.06920  0.31810  Biso   1.000  C
  C176     1.0000 0.79940  0.03500  0.28240  Biso   1.000  C
  C177     1.0000 0.90320  0.01660  0.25410  Biso   1.000  C
  C178     1.0000 0.85330  0.98170  0.22160  Biso   1.000  C
  C179     1.0000 0.78200  0.34070  0.40080  Biso   1.000  C
  C180     1.0000 0.78200  0.40750  0.40070  Biso   1.000  C
  H117     1.0000 0.00870  0.02750  0.25700  Biso   1.000  H
  H118     1.0000 0.92600  0.96930  0.20230  Biso   1.000  H
  H119     1.0000 0.72900  0.31800  0.42090  Biso   1.000  H
  H120     1.0000 0.72780  0.43000  0.42080  Biso   1.000  H
  O91      1.0000 0.25200  0.58300  0.34320  Biso   1.000  O
  O92      1.0000 0.49280  0.58300  0.32080  Biso   1.000  O
  O93      1.0000 0.25980  0.70770  0.38690  Biso   1.000  O
  C181     1.0000 0.35410  0.56920  0.31810  Biso   1.000  C
  C182     1.0000 0.29940  0.53500  0.28240  Biso   1.000  C
  C183     1.0000 0.40320  0.51660  0.25410  Biso   1.000  C
  C184     1.0000 0.35330  0.48170  0.22160  Biso   1.000  C
  C185     1.0000 0.28200  0.84070  0.40080  Biso   1.000  C
  C186     1.0000 0.28200  0.90750  0.40070  Biso   1.000  C
  H121     1.0000 0.50870  0.52750  0.25700  Biso   1.000  H
  H122     1.0000 0.42600  0.46930  0.20230  Biso   1.000  H
  H123     1.0000 0.22900  0.81800  0.42090  Biso   1.000  H
  H124     1.0000 0.22780  0.93000  0.42080  Biso   1.000  H
  O94      1.0000 0.25200  0.08300  0.84320  Biso   1.000  O
  O95      1.0000 0.49280  0.08300  0.82080  Biso   1.000  O
  O96      1.0000 0.25980  0.20770  0.88690  Biso   1.000  O
  C187     1.0000 0.35410  0.06920  0.81810  Biso   1.000  C
  C188     1.0000 0.29940  0.03500  0.78240  Biso   1.000  C
  C189     1.0000 0.40320  0.01660  0.75410  Biso   1.000  C
  C190     1.0000 0.35330  0.98170  0.72160  Biso   1.000  C
  C191     1.0000 0.28200  0.34070  0.90080  Biso   1.000  C
  C192     1.0000 0.28200  0.40750  0.90070  Biso   1.000  C
  H125     1.0000 0.50870  0.02750  0.75700  Biso   1.000  H
  H126     1.0000 0.42600  0.96930  0.70230  Biso   1.000  H
  H127     1.0000 0.22900  0.31800  0.92090  Biso   1.000  H
  H128     1.0000 0.22780  0.43000  0.92080  Biso   1.000  H
  Sc1      1.0000 0.37500  0.37500  0.63608  Biso   1.000  Sc
  Sc2      1.0000 0.37500  0.87500  0.13608  Biso   1.000  Sc
  Sc3      1.0000 0.87500  0.37500  0.13608  Biso   1.000  Sc
  Sc4      1.0000 0.87500  0.87500  0.63608  Biso   1.000  Sc
  Sc5      1.0000 0.37500  0.37500  0.11392  Biso   1.000  Sc
  Sc6      1.0000 0.37500  0.87500  0.61392  Biso   1.000  Sc
  Sc7      1.0000 0.87500  0.37500  0.61392  Biso   1.000  Sc
  Sc8      1.0000 0.87500  0.87500  0.11392  Biso   1.000  Sc
  Sc9      1.0000 0.62500  0.62500  0.36392  Biso   1.000  Sc
  Sc10     1.0000 0.62500  0.12500  0.86392  Biso   1.000  Sc
  Sc11     1.0000 0.12500  0.62500  0.86392  Biso   1.000  Sc
  Sc12     1.0000 0.12500  0.12500  0.36392  Biso   1.000  Sc
  Sc13     1.0000 0.62500  0.62500  0.88608  Biso   1.000  Sc
  Sc14     1.0000 0.62500  0.12500  0.38608  Biso   1.000  Sc
  Sc15     1.0000 0.12500  0.62500  0.38608  Biso   1.000  Sc
  Sc16     1.0000 0.12500  0.12500  0.88608  Biso   1.000  Sc
  C193     1.0000 0.12500  0.48590  0.62500  Biso   1.000  C
  C194     1.0000 0.12500  0.55800  0.62500  Biso   1.000  C
  C195     1.0000 0.12500  0.98590  0.12500  Biso   1.000  C
  C196     1.0000 0.12500  0.05800  0.12500  Biso   1.000  C
  C197     1.0000 0.62500  0.98590  0.62500  Biso   1.000  C
  C198     1.0000 0.62500  0.05800  0.62500  Biso   1.000  C
  C199     1.0000 0.62500  0.26410  0.62500  Biso   1.000  C
  C200     1.0000 0.62500  0.19200  0.62500  Biso   1.000  C
  C201     1.0000 0.62500  0.76410  0.12500  Biso   1.000  C
  C202     1.0000 0.62500  0.69200  0.12500  Biso   1.000  C
  C203     1.0000 0.62500  0.48590  0.12500  Biso   1.000  C
  C204     1.0000 0.62500  0.55800  0.12500  Biso   1.000  C
  C205     1.0000 0.12500  0.26410  0.12500  Biso   1.000  C
  C206     1.0000 0.12500  0.19200  0.12500  Biso   1.000  C
  C207     1.0000 0.12500  0.76410  0.62500  Biso   1.000  C
  C208     1.0000 0.12500  0.69200  0.62500  Biso   1.000  C
  C209     1.0000 0.87500  0.51410  0.37500  Biso   1.000  C
  C210     1.0000 0.87500  0.44200  0.37500  Biso   1.000  C
  C211     1.0000 0.87500  0.01410  0.87500  Biso   1.000  C
  C212     1.0000 0.87500  0.94200  0.87500  Biso   1.000  C
  C213     1.0000 0.37500  0.73590  0.37500  Biso   1.000  C
  C214     1.0000 0.37500  0.80800  0.37500  Biso   1.000  C
  C215     1.0000 0.37500  0.23590  0.87500  Biso   1.000  C
  C216     1.0000 0.37500  0.30800  0.87500  Biso   1.000  C
  C217     1.0000 0.37500  0.51410  0.87500  Biso   1.000  C
  C218     1.0000 0.37500  0.44200  0.87500  Biso   1.000  C
  C219     1.0000 0.37500  0.01410  0.37500  Biso   1.000  C
  C220     1.0000 0.37500  0.94200  0.37500  Biso   1.000  C
  C221     1.0000 0.87500  0.73590  0.87500  Biso   1.000  C
  C222     1.0000 0.87500  0.80800  0.87500  Biso   1.000  C
  C223     1.0000 0.87500  0.23590  0.37500  Biso   1.000  C
  C224     1.0000 0.87500  0.30800  0.37500  Biso   1.000  C
