data_image0
_cell_length_a       8.7745
_cell_length_b       20.668
_cell_length_c       34.203
_cell_angle_alpha    90
_cell_angle_beta     90
_cell_angle_gamma    90

_symmetry_space_group_name_H-M    "P 1"
_symmetry_int_tables_number       1

loop_
  _symmetry_equiv_pos_as_xyz
  'x, y, z'

loop_
  _atom_site_label
  _atom_site_occupancy
  _atom_site_fract_x
  _atom_site_fract_y
  _atom_site_fract_z
  _atom_site_thermal_displace_type
  _atom_site_B_iso_or_equiv
  _atom_site_type_symbol
  O1       1.0000 0.24640  0.33510  0.59290  Biso   1.000  O
  O2       1.0000 0.01050  0.33410  0.57020  Biso   1.000  O
  O3       1.0000 0.24440  0.45810  0.63660  Biso   1.000  O
  C1       1.0000 0.14930  0.32050  0.56820  Biso   1.000  C
  C2       1.0000 0.20120  0.28440  0.53250  Biso   1.000  C
  C3       1.0000 0.09600  0.26410  0.50490  Biso   1.000  C
  C4       1.0000 0.14620  0.22960  0.47250  Biso   1.000  C
  C5       1.0000 0.24510  0.59100  0.64170  Biso   1.000  C
  C6       1.0000 0.24520  0.65840  0.64160  Biso   1.000  C
  H1       1.0000 0.99080  0.27380  0.50810  Biso   1.000  H
  H2       1.0000 0.07460  0.21550  0.45350  Biso   1.000  H
  H3       1.0000 0.32240  0.56810  0.65540  Biso   1.000  H
  H4       1.0000 0.32230  0.68110  0.65540  Biso   1.000  H
  O4       1.0000 0.24640  0.83510  0.09290  Biso   1.000  O
  O5       1.0000 0.01050  0.83410  0.07020  Biso   1.000  O
  O6       1.0000 0.24440  0.95810  0.13660  Biso   1.000  O
  C7       1.0000 0.14930  0.82050  0.06820  Biso   1.000  C
  C8       1.0000 0.20120  0.78440  0.03250  Biso   1.000  C
  C9       1.0000 0.09600  0.76410  0.00490  Biso   1.000  C
  C10      1.0000 0.14620  0.72960  0.97250  Biso   1.000  C
  C11      1.0000 0.24510  0.09100  0.14170  Biso   1.000  C
  C12      1.0000 0.24520  0.15840  0.14160  Biso   1.000  C
  H5       1.0000 0.99080  0.77380  0.00810  Biso   1.000  H
  H6       1.0000 0.07460  0.71550  0.95350  Biso   1.000  H
  H7       1.0000 0.32240  0.06810  0.15540  Biso   1.000  H
  H8       1.0000 0.32230  0.18110  0.15540  Biso   1.000  H
  O7       1.0000 0.74640  0.33510  0.09290  Biso   1.000  O
  O8       1.0000 0.51050  0.33410  0.07020  Biso   1.000  O
  O9       1.0000 0.74440  0.45810  0.13660  Biso   1.000  O
  C13      1.0000 0.64930  0.32050  0.06820  Biso   1.000  C
  C14      1.0000 0.70120  0.28440  0.03250  Biso   1.000  C
  C15      1.0000 0.59600  0.26410  0.00490  Biso   1.000  C
  C16      1.0000 0.64620  0.22960  0.97250  Biso   1.000  C
  C17      1.0000 0.74510  0.59100  0.14170  Biso   1.000  C
  C18      1.0000 0.74520  0.65840  0.14160  Biso   1.000  C
  H9       1.0000 0.49080  0.27380  0.00810  Biso   1.000  H
  H10      1.0000 0.57460  0.21550  0.95350  Biso   1.000  H
  H11      1.0000 0.82240  0.56810  0.15540  Biso   1.000  H
  H12      1.0000 0.82230  0.68110  0.15540  Biso   1.000  H
  O10      1.0000 0.74640  0.83510  0.59290  Biso   1.000  O
  O11      1.0000 0.51050  0.83410  0.57020  Biso   1.000  O
  O12      1.0000 0.74440  0.95810  0.63660  Biso   1.000  O
  C19      1.0000 0.64930  0.82050  0.56820  Biso   1.000  C
  C20      1.0000 0.70120  0.78440  0.53250  Biso   1.000  C
  C21      1.0000 0.59600  0.76410  0.50490  Biso   1.000  C
  C22      1.0000 0.64620  0.72960  0.47250  Biso   1.000  C
  C23      1.0000 0.74510  0.09100  0.64170  Biso   1.000  C
  C24      1.0000 0.74520  0.15840  0.64160  Biso   1.000  C
  H13      1.0000 0.49080  0.77380  0.50810  Biso   1.000  H
  H14      1.0000 0.57460  0.71550  0.45350  Biso   1.000  H
  H15      1.0000 0.82240  0.06810  0.65540  Biso   1.000  H
  H16      1.0000 0.82230  0.18110  0.65540  Biso   1.000  H
  O13      1.0000 0.50360  0.41490  0.59290  Biso   1.000  O
  O14      1.0000 0.73950  0.41590  0.57020  Biso   1.000  O
  O15      1.0000 0.50560  0.29190  0.63660  Biso   1.000  O
  C25      1.0000 0.60070  0.42950  0.56820  Biso   1.000  C
  C26      1.0000 0.54880  0.46560  0.53250  Biso   1.000  C
  C27      1.0000 0.65400  0.48590  0.50490  Biso   1.000  C
  C28      1.0000 0.60380  0.52040  0.47250  Biso   1.000  C
  C29      1.0000 0.50490  0.15900  0.64170  Biso   1.000  C
  C30      1.0000 0.50480  0.09160  0.64160  Biso   1.000  C
  H17      1.0000 0.75920  0.47620  0.50810  Biso   1.000  H
  H18      1.0000 0.67540  0.53450  0.45350  Biso   1.000  H
  H19      1.0000 0.42760  0.18190  0.65540  Biso   1.000  H
  H20      1.0000 0.42770  0.06890  0.65540  Biso   1.000  H
  O16      1.0000 0.50360  0.91490  0.09290  Biso   1.000  O
  O17      1.0000 0.73950  0.91590  0.07020  Biso   1.000  O
  O18      1.0000 0.50560  0.79190  0.13660  Biso   1.000  O
  C31      1.0000 0.60070  0.92950  0.06820  Biso   1.000  C
  C32      1.0000 0.54880  0.96560  0.03250  Biso   1.000  C
  C33      1.0000 0.65400  0.98590  0.00490  Biso   1.000  C
  C34      1.0000 0.60380  0.02040  0.97250  Biso   1.000  C
  C35      1.0000 0.50490  0.65900  0.14170  Biso   1.000  C
  C36      1.0000 0.50480  0.59160  0.14160  Biso   1.000  C
  H21      1.0000 0.75920  0.97620  0.00810  Biso   1.000  H
  H22      1.0000 0.67540  0.03450  0.95350  Biso   1.000  H
  H23      1.0000 0.42760  0.68190  0.15540  Biso   1.000  H
  H24      1.0000 0.42770  0.56890  0.15540  Biso   1.000  H
  O19      1.0000 0.00360  0.41490  0.09290  Biso   1.000  O
  O20      1.0000 0.23950  0.41590  0.07020  Biso   1.000  O
  O21      1.0000 0.00560  0.29190  0.13660  Biso   1.000  O
  C37      1.0000 0.10070  0.42950  0.06820  Biso   1.000  C
  C38      1.0000 0.04880  0.46560  0.03250  Biso   1.000  C
  C39      1.0000 0.15400  0.48590  0.00490  Biso   1.000  C
  C40      1.0000 0.10380  0.52040  0.97250  Biso   1.000  C
  C41      1.0000 0.00490  0.15900  0.14170  Biso   1.000  C
  C42      1.0000 0.00480  0.09160  0.14160  Biso   1.000  C
  H25      1.0000 0.25920  0.47620  0.00810  Biso   1.000  H
  H26      1.0000 0.17540  0.53450  0.95350  Biso   1.000  H
  H27      1.0000 0.92760  0.18190  0.15540  Biso   1.000  H
  H28      1.0000 0.92770  0.06890  0.15540  Biso   1.000  H
  O22      1.0000 0.00360  0.91490  0.59290  Biso   1.000  O
  O23      1.0000 0.23950  0.91590  0.57020  Biso   1.000  O
  O24      1.0000 0.00560  0.79190  0.63660  Biso   1.000  O
  C43      1.0000 0.10070  0.92950  0.56820  Biso   1.000  C
  C44      1.0000 0.04880  0.96560  0.53250  Biso   1.000  C
  C45      1.0000 0.15400  0.98590  0.50490  Biso   1.000  C
  C46      1.0000 0.10380  0.02040  0.47250  Biso   1.000  C
  C47      1.0000 0.00490  0.65900  0.64170  Biso   1.000  C
  C48      1.0000 0.00480  0.59160  0.64160  Biso   1.000  C
  H29      1.0000 0.25920  0.97620  0.50810  Biso   1.000  H
  H30      1.0000 0.17540  0.03450  0.45350  Biso   1.000  H
  H31      1.0000 0.92760  0.68190  0.65540  Biso   1.000  H
  H32      1.0000 0.92770  0.56890  0.65540  Biso   1.000  H
  O25      1.0000 0.50360  0.33510  0.15710  Biso   1.000  O
  O26      1.0000 0.73950  0.33410  0.17980  Biso   1.000  O
  O27      1.0000 0.50560  0.45810  0.11340  Biso   1.000  O
  C49      1.0000 0.60070  0.32050  0.18180  Biso   1.000  C
  C50      1.0000 0.54880  0.28440  0.21750  Biso   1.000  C
  C51      1.0000 0.65400  0.26410  0.24510  Biso   1.000  C
  C52      1.0000 0.60380  0.22960  0.27750  Biso   1.000  C
  C53      1.0000 0.50490  0.59100  0.10830  Biso   1.000  C
  C54      1.0000 0.50480  0.65840  0.10840  Biso   1.000  C
  H33      1.0000 0.75920  0.27380  0.24190  Biso   1.000  H
  H34      1.0000 0.67540  0.21550  0.29650  Biso   1.000  H
  H35      1.0000 0.42760  0.56810  0.09460  Biso   1.000  H
  H36      1.0000 0.42770  0.68110  0.09460  Biso   1.000  H
  O28      1.0000 0.50360  0.83510  0.65710  Biso   1.000  O
  O29      1.0000 0.73950  0.83410  0.67980  Biso   1.000  O
  O30      1.0000 0.50560  0.95810  0.61340  Biso   1.000  O
  C55      1.0000 0.60070  0.82050  0.68180  Biso   1.000  C
  C56      1.0000 0.54880  0.78440  0.71750  Biso   1.000  C
  C57      1.0000 0.65400  0.76410  0.74510  Biso   1.000  C
  C58      1.0000 0.60380  0.72960  0.77750  Biso   1.000  C
  C59      1.0000 0.50490  0.09100  0.60830  Biso   1.000  C
  C60      1.0000 0.50480  0.15840  0.60840  Biso   1.000  C
  H37      1.0000 0.75920  0.77380  0.74190  Biso   1.000  H
  H38      1.0000 0.67540  0.71550  0.79650  Biso   1.000  H
  H39      1.0000 0.42760  0.06810  0.59460  Biso   1.000  H
  H40      1.0000 0.42770  0.18110  0.59460  Biso   1.000  H
  O31      1.0000 0.00360  0.33510  0.65710  Biso   1.000  O
  O32      1.0000 0.23950  0.33410  0.67980  Biso   1.000  O
  O33      1.0000 0.00560  0.45810  0.61340  Biso   1.000  O
  C61      1.0000 0.10070  0.32050  0.68180  Biso   1.000  C
  C62      1.0000 0.04880  0.28440  0.71750  Biso   1.000  C
  C63      1.0000 0.15400  0.26410  0.74510  Biso   1.000  C
  C64      1.0000 0.10380  0.22960  0.77750  Biso   1.000  C
  C65      1.0000 0.00490  0.59100  0.60830  Biso   1.000  C
  C66      1.0000 0.00480  0.65840  0.60840  Biso   1.000  C
  H41      1.0000 0.25920  0.27380  0.74190  Biso   1.000  H
  H42      1.0000 0.17540  0.21550  0.79650  Biso   1.000  H
  H43      1.0000 0.92760  0.56810  0.59460  Biso   1.000  H
  H44      1.0000 0.92770  0.68110  0.59460  Biso   1.000  H
  O34      1.0000 0.00360  0.83510  0.15710  Biso   1.000  O
  O35      1.0000 0.23950  0.83410  0.17980  Biso   1.000  O
  O36      1.0000 0.00560  0.95810  0.11340  Biso   1.000  O
  C67      1.0000 0.10070  0.82050  0.18180  Biso   1.000  C
  C68      1.0000 0.04880  0.78440  0.21750  Biso   1.000  C
  C69      1.0000 0.15400  0.76410  0.24510  Biso   1.000  C
  C70      1.0000 0.10380  0.72960  0.27750  Biso   1.000  C
  C71      1.0000 0.00490  0.09100  0.10830  Biso   1.000  C
  C72      1.0000 0.00480  0.15840  0.10840  Biso   1.000  C
  H45      1.0000 0.25920  0.77380  0.24190  Biso   1.000  H
  H46      1.0000 0.17540  0.71550  0.29650  Biso   1.000  H
  H47      1.0000 0.92760  0.06810  0.09460  Biso   1.000  H
  H48      1.0000 0.92770  0.18110  0.09460  Biso   1.000  H
  O37      1.0000 0.24640  0.41490  0.15710  Biso   1.000  O
  O38      1.0000 0.01050  0.41590  0.17980  Biso   1.000  O
  O39      1.0000 0.24440  0.29190  0.11340  Biso   1.000  O
  C73      1.0000 0.14930  0.42950  0.18180  Biso   1.000  C
  C74      1.0000 0.20120  0.46560  0.21750  Biso   1.000  C
  C75      1.0000 0.09600  0.48590  0.24510  Biso   1.000  C
  C76      1.0000 0.14620  0.52040  0.27750  Biso   1.000  C
  C77      1.0000 0.24510  0.15900  0.10830  Biso   1.000  C
  C78      1.0000 0.24520  0.09160  0.10840  Biso   1.000  C
  H49      1.0000 0.99080  0.47620  0.24190  Biso   1.000  H
  H50      1.0000 0.07460  0.53450  0.29650  Biso   1.000  H
  H51      1.0000 0.32240  0.18190  0.09460  Biso   1.000  H
  H52      1.0000 0.32230  0.06890  0.09460  Biso   1.000  H
  O40      1.0000 0.24640  0.91490  0.65710  Biso   1.000  O
  O41      1.0000 0.01050  0.91590  0.67980  Biso   1.000  O
  O42      1.0000 0.24440  0.79190  0.61340  Biso   1.000  O
  C79      1.0000 0.14930  0.92950  0.68180  Biso   1.000  C
  C80      1.0000 0.20120  0.96560  0.71750  Biso   1.000  C
  C81      1.0000 0.09600  0.98590  0.74510  Biso   1.000  C
  C82      1.0000 0.14620  0.02040  0.77750  Biso   1.000  C
  C83      1.0000 0.24510  0.65900  0.60830  Biso   1.000  C
  C84      1.0000 0.24520  0.59160  0.60840  Biso   1.000  C
  H53      1.0000 0.99080  0.97620  0.74190  Biso   1.000  H
  H54      1.0000 0.07460  0.03450  0.79650  Biso   1.000  H
  H55      1.0000 0.32240  0.68190  0.59460  Biso   1.000  H
  H56      1.0000 0.32230  0.56890  0.59460  Biso   1.000  H
  O43      1.0000 0.74640  0.41490  0.65710  Biso   1.000  O
  O44      1.0000 0.51050  0.41590  0.67980  Biso   1.000  O
  O45      1.0000 0.74440  0.29190  0.61340  Biso   1.000  O
  C85      1.0000 0.64930  0.42950  0.68180  Biso   1.000  C
  C86      1.0000 0.70120  0.46560  0.71750  Biso   1.000  C
  C87      1.0000 0.59600  0.48590  0.74510  Biso   1.000  C
  C88      1.0000 0.64620  0.52040  0.77750  Biso   1.000  C
  C89      1.0000 0.74510  0.15900  0.60830  Biso   1.000  C
  C90      1.0000 0.74520  0.09160  0.60840  Biso   1.000  C
  H57      1.0000 0.49080  0.47620  0.74190  Biso   1.000  H
  H58      1.0000 0.57460  0.53450  0.79650  Biso   1.000  H
  H59      1.0000 0.82240  0.18190  0.59460  Biso   1.000  H
  H60      1.0000 0.82230  0.06890  0.59460  Biso   1.000  H
  O46      1.0000 0.74640  0.91490  0.15710  Biso   1.000  O
  O47      1.0000 0.51050  0.91590  0.17980  Biso   1.000  O
  O48      1.0000 0.74440  0.79190  0.11340  Biso   1.000  O
  C91      1.0000 0.64930  0.92950  0.18180  Biso   1.000  C
  C92      1.0000 0.70120  0.96560  0.21750  Biso   1.000  C
  C93      1.0000 0.59600  0.98590  0.24510  Biso   1.000  C
  C94      1.0000 0.64620  0.02040  0.27750  Biso   1.000  C
  C95      1.0000 0.74510  0.65900  0.10830  Biso   1.000  C
  C96      1.0000 0.74520  0.59160  0.10840  Biso   1.000  C
  H61      1.0000 0.49080  0.97620  0.24190  Biso   1.000  H
  H62      1.0000 0.57460  0.03450  0.29650  Biso   1.000  H
  H63      1.0000 0.82240  0.68190  0.09460  Biso   1.000  H
  H64      1.0000 0.82230  0.56890  0.09460  Biso   1.000  H
  O49      1.0000 0.75360  0.66490  0.40710  Biso   1.000  O
  O50      1.0000 0.98950  0.66590  0.42980  Biso   1.000  O
  O51      1.0000 0.75560  0.54190  0.36340  Biso   1.000  O
  C97      1.0000 0.85070  0.67950  0.43180  Biso   1.000  C
  C98      1.0000 0.79880  0.71560  0.46750  Biso   1.000  C
  C99      1.0000 0.90400  0.73590  0.49510  Biso   1.000  C
  C100     1.0000 0.85380  0.77040  0.52750  Biso   1.000  C
  C101     1.0000 0.75490  0.40900  0.35830  Biso   1.000  C
  C102     1.0000 0.75480  0.34160  0.35840  Biso   1.000  C
  H65      1.0000 0.00920  0.72620  0.49190  Biso   1.000  H
  H66      1.0000 0.92540  0.78450  0.54650  Biso   1.000  H
  H67      1.0000 0.67760  0.43190  0.34460  Biso   1.000  H
  H68      1.0000 0.67770  0.31890  0.34460  Biso   1.000  H
  O52      1.0000 0.75360  0.16490  0.90710  Biso   1.000  O
  O53      1.0000 0.98950  0.16590  0.92980  Biso   1.000  O
  O54      1.0000 0.75560  0.04190  0.86340  Biso   1.000  O
  C103     1.0000 0.85070  0.17950  0.93180  Biso   1.000  C
  C104     1.0000 0.79880  0.21560  0.96750  Biso   1.000  C
  C105     1.0000 0.90400  0.23590  0.99510  Biso   1.000  C
  C106     1.0000 0.85380  0.27040  0.02750  Biso   1.000  C
  C107     1.0000 0.75490  0.90900  0.85830  Biso   1.000  C
  C108     1.0000 0.75480  0.84160  0.85840  Biso   1.000  C
  H69      1.0000 0.00920  0.22620  0.99190  Biso   1.000  H
  H70      1.0000 0.92540  0.28450  0.04650  Biso   1.000  H
  H71      1.0000 0.67760  0.93190  0.84460  Biso   1.000  H
  H72      1.0000 0.67770  0.81890  0.84460  Biso   1.000  H
  O55      1.0000 0.25360  0.66490  0.90710  Biso   1.000  O
  O56      1.0000 0.48950  0.66590  0.92980  Biso   1.000  O
  O57      1.0000 0.25560  0.54190  0.86340  Biso   1.000  O
  C109     1.0000 0.35070  0.67950  0.93180  Biso   1.000  C
  C110     1.0000 0.29880  0.71560  0.96750  Biso   1.000  C
  C111     1.0000 0.40400  0.73590  0.99510  Biso   1.000  C
  C112     1.0000 0.35380  0.77040  0.02750  Biso   1.000  C
  C113     1.0000 0.25490  0.40900  0.85830  Biso   1.000  C
  C114     1.0000 0.25480  0.34160  0.85840  Biso   1.000  C
  H73      1.0000 0.50920  0.72620  0.99190  Biso   1.000  H
  H74      1.0000 0.42540  0.78450  0.04650  Biso   1.000  H
  H75      1.0000 0.17760  0.43190  0.84460  Biso   1.000  H
  H76      1.0000 0.17770  0.31890  0.84460  Biso   1.000  H
  O58      1.0000 0.25360  0.16490  0.40710  Biso   1.000  O
  O59      1.0000 0.48950  0.16590  0.42980  Biso   1.000  O
  O60      1.0000 0.25560  0.04190  0.36340  Biso   1.000  O
  C115     1.0000 0.35070  0.17950  0.43180  Biso   1.000  C
  C116     1.0000 0.29880  0.21560  0.46750  Biso   1.000  C
  C117     1.0000 0.40400  0.23590  0.49510  Biso   1.000  C
  C118     1.0000 0.35380  0.27040  0.52750  Biso   1.000  C
  C119     1.0000 0.25490  0.90900  0.35830  Biso   1.000  C
  C120     1.0000 0.25480  0.84160  0.35840  Biso   1.000  C
  H77      1.0000 0.50920  0.22620  0.49190  Biso   1.000  H
  H78      1.0000 0.42540  0.28450  0.54650  Biso   1.000  H
  H79      1.0000 0.17760  0.93190  0.34460  Biso   1.000  H
  H80      1.0000 0.17770  0.81890  0.34460  Biso   1.000  H
  O61      1.0000 0.49640  0.58510  0.40710  Biso   1.000  O
  O62      1.0000 0.26050  0.58410  0.42980  Biso   1.000  O
  O63      1.0000 0.49440  0.70810  0.36340  Biso   1.000  O
  C121     1.0000 0.39930  0.57050  0.43180  Biso   1.000  C
  C122     1.0000 0.45120  0.53440  0.46750  Biso   1.000  C
  C123     1.0000 0.34600  0.51410  0.49510  Biso   1.000  C
  C124     1.0000 0.39620  0.47960  0.52750  Biso   1.000  C
  C125     1.0000 0.49510  0.84100  0.35830  Biso   1.000  C
  C126     1.0000 0.49520  0.90840  0.35840  Biso   1.000  C
  H81      1.0000 0.24080  0.52380  0.49190  Biso   1.000  H
  H82      1.0000 0.32460  0.46550  0.54650  Biso   1.000  H
  H83      1.0000 0.57240  0.81810  0.34460  Biso   1.000  H
  H84      1.0000 0.57230  0.93110  0.34460  Biso   1.000  H
  O64      1.0000 0.49640  0.08510  0.90710  Biso   1.000  O
  O65      1.0000 0.26050  0.08410  0.92980  Biso   1.000  O
  O66      1.0000 0.49440  0.20810  0.86340  Biso   1.000  O
  C127     1.0000 0.39930  0.07050  0.93180  Biso   1.000  C
  C128     1.0000 0.45120  0.03440  0.96750  Biso   1.000  C
  C129     1.0000 0.34600  0.01410  0.99510  Biso   1.000  C
  C130     1.0000 0.39620  0.97960  0.02750  Biso   1.000  C
  C131     1.0000 0.49510  0.34100  0.85830  Biso   1.000  C
  C132     1.0000 0.49520  0.40840  0.85840  Biso   1.000  C
  H85      1.0000 0.24080  0.02380  0.99190  Biso   1.000  H
  H86      1.0000 0.32460  0.96550  0.04650  Biso   1.000  H
  H87      1.0000 0.57240  0.31810  0.84460  Biso   1.000  H
  H88      1.0000 0.57230  0.43110  0.84460  Biso   1.000  H
  O67      1.0000 0.99640  0.58510  0.90710  Biso   1.000  O
  O68      1.0000 0.76050  0.58410  0.92980  Biso   1.000  O
  O69      1.0000 0.99440  0.70810  0.86340  Biso   1.000  O
  C133     1.0000 0.89930  0.57050  0.93180  Biso   1.000  C
  C134     1.0000 0.95120  0.53440  0.96750  Biso   1.000  C
  C135     1.0000 0.84600  0.51410  0.99510  Biso   1.000  C
  C136     1.0000 0.89620  0.47960  0.02750  Biso   1.000  C
  C137     1.0000 0.99510  0.84100  0.85830  Biso   1.000  C
  C138     1.0000 0.99520  0.90840  0.85840  Biso   1.000  C
  H89      1.0000 0.74080  0.52380  0.99190  Biso   1.000  H
  H90      1.0000 0.82460  0.46550  0.04650  Biso   1.000  H
  H91      1.0000 0.07240  0.81810  0.84460  Biso   1.000  H
  H92      1.0000 0.07230  0.93110  0.84460  Biso   1.000  H
  O70      1.0000 0.99640  0.08510  0.40710  Biso   1.000  O
  O71      1.0000 0.76050  0.08410  0.42980  Biso   1.000  O
  O72      1.0000 0.99440  0.20810  0.36340  Biso   1.000  O
  C139     1.0000 0.89930  0.07050  0.43180  Biso   1.000  C
  C140     1.0000 0.95120  0.03440  0.46750  Biso   1.000  C
  C141     1.0000 0.84600  0.01410  0.49510  Biso   1.000  C
  C142     1.0000 0.89620  0.97960  0.52750  Biso   1.000  C
  C143     1.0000 0.99510  0.34100  0.35830  Biso   1.000  C
  C144     1.0000 0.99520  0.40840  0.35840  Biso   1.000  C
  H93      1.0000 0.74080  0.02380  0.49190  Biso   1.000  H
  H94      1.0000 0.82460  0.96550  0.54650  Biso   1.000  H
  H95      1.0000 0.07240  0.31810  0.34460  Biso   1.000  H
  H96      1.0000 0.07230  0.43110  0.34460  Biso   1.000  H
  O73      1.0000 0.49640  0.66490  0.84290  Biso   1.000  O
  O74      1.0000 0.26050  0.66590  0.82020  Biso   1.000  O
  O75      1.0000 0.49440  0.54190  0.88660  Biso   1.000  O
  C145     1.0000 0.39930  0.67950  0.81820  Biso   1.000  C
  C146     1.0000 0.45120  0.71560  0.78250  Biso   1.000  C
  C147     1.0000 0.34600  0.73590  0.75490  Biso   1.000  C
  C148     1.0000 0.39620  0.77040  0.72250  Biso   1.000  C
  C149     1.0000 0.49510  0.40900  0.89170  Biso   1.000  C
  C150     1.0000 0.49520  0.34160  0.89160  Biso   1.000  C
  H97      1.0000 0.24080  0.72620  0.75810  Biso   1.000  H
  H98      1.0000 0.32460  0.78450  0.70350  Biso   1.000  H
  H99      1.0000 0.57240  0.43190  0.90540  Biso   1.000  H
  H100     1.0000 0.57230  0.31890  0.90540  Biso   1.000  H
  O76      1.0000 0.49640  0.16490  0.34290  Biso   1.000  O
  O77      1.0000 0.26050  0.16590  0.32020  Biso   1.000  O
  O78      1.0000 0.49440  0.04190  0.38660  Biso   1.000  O
  C151     1.0000 0.39930  0.17950  0.31820  Biso   1.000  C
  C152     1.0000 0.45120  0.21560  0.28250  Biso   1.000  C
  C153     1.0000 0.34600  0.23590  0.25490  Biso   1.000  C
  C154     1.0000 0.39620  0.27040  0.22250  Biso   1.000  C
  C155     1.0000 0.49510  0.90900  0.39170  Biso   1.000  C
  C156     1.0000 0.49520  0.84160  0.39160  Biso   1.000  C
  H101     1.0000 0.24080  0.22620  0.25810  Biso   1.000  H
  H102     1.0000 0.32460  0.28450  0.20350  Biso   1.000  H
  H103     1.0000 0.57240  0.93190  0.40540  Biso   1.000  H
  H104     1.0000 0.57230  0.81890  0.40540  Biso   1.000  H
  O79      1.0000 0.99640  0.66490  0.34290  Biso   1.000  O
  O80      1.0000 0.76050  0.66590  0.32020  Biso   1.000  O
  O81      1.0000 0.99440  0.54190  0.38660  Biso   1.000  O
  C157     1.0000 0.89930  0.67950  0.31820  Biso   1.000  C
  C158     1.0000 0.95120  0.71560  0.28250  Biso   1.000  C
  C159     1.0000 0.84600  0.73590  0.25490  Biso   1.000  C
  C160     1.0000 0.89620  0.77040  0.22250  Biso   1.000  C
  C161     1.0000 0.99510  0.40900  0.39170  Biso   1.000  C
  C162     1.0000 0.99520  0.34160  0.39160  Biso   1.000  C
  H105     1.0000 0.74080  0.72620  0.25810  Biso   1.000  H
  H106     1.0000 0.82460  0.78450  0.20350  Biso   1.000  H
  H107     1.0000 0.07240  0.43190  0.40540  Biso   1.000  H
  H108     1.0000 0.07230  0.31890  0.40540  Biso   1.000  H
  O82      1.0000 0.99640  0.16490  0.84290  Biso   1.000  O
  O83      1.0000 0.76050  0.16590  0.82020  Biso   1.000  O
  O84      1.0000 0.99440  0.04190  0.88660  Biso   1.000  O
  C163     1.0000 0.89930  0.17950  0.81820  Biso   1.000  C
  C164     1.0000 0.95120  0.21560  0.78250  Biso   1.000  C
  C165     1.0000 0.84600  0.23590  0.75490  Biso   1.000  C
  C166     1.0000 0.89620  0.27040  0.72250  Biso   1.000  C
  C167     1.0000 0.99510  0.90900  0.89170  Biso   1.000  C
  C168     1.0000 0.99520  0.84160  0.89160  Biso   1.000  C
  H109     1.0000 0.74080  0.22620  0.75810  Biso   1.000  H
  H110     1.0000 0.82460  0.28450  0.70350  Biso   1.000  H
  H111     1.0000 0.07240  0.93190  0.90540  Biso   1.000  H
  H112     1.0000 0.07230  0.81890  0.90540  Biso   1.000  H
  O85      1.0000 0.75360  0.58510  0.84290  Biso   1.000  O
  O86      1.0000 0.98950  0.58410  0.82020  Biso   1.000  O
  O87      1.0000 0.75560  0.70810  0.88660  Biso   1.000  O
  C169     1.0000 0.85070  0.57050  0.81820  Biso   1.000  C
  C170     1.0000 0.79880  0.53440  0.78250  Biso   1.000  C
  C171     1.0000 0.90400  0.51410  0.75490  Biso   1.000  C
  C172     1.0000 0.85380  0.47960  0.72250  Biso   1.000  C
  C173     1.0000 0.75490  0.84100  0.89170  Biso   1.000  C
  C174     1.0000 0.75480  0.90840  0.89160  Biso   1.000  C
  H113     1.0000 0.00920  0.52380  0.75810  Biso   1.000  H
  H114     1.0000 0.92540  0.46550  0.70350  Biso   1.000  H
  H115     1.0000 0.67760  0.81810  0.90540  Biso   1.000  H
  H116     1.0000 0.67770  0.93110  0.90540  Biso   1.000  H
  O88      1.0000 0.75360  0.08510  0.34290  Biso   1.000  O
  O89      1.0000 0.98950  0.08410  0.32020  Biso   1.000  O
  O90      1.0000 0.75560  0.20810  0.38660  Biso   1.000  O
  C175     1.0000 0.85070  0.07050  0.31820  Biso   1.000  C
  C176     1.0000 0.79880  0.03440  0.28250  Biso   1.000  C
  C177     1.0000 0.90400  0.01410  0.25490  Biso   1.000  C
  C178     1.0000 0.85380  0.97960  0.22250  Biso   1.000  C
  C179     1.0000 0.75490  0.34100  0.39170  Biso   1.000  C
  C180     1.0000 0.75480  0.40840  0.39160  Biso   1.000  C
  H117     1.0000 0.00920  0.02380  0.25810  Biso   1.000  H
  H118     1.0000 0.92540  0.96550  0.20350  Biso   1.000  H
  H119     1.0000 0.67760  0.31810  0.40540  Biso   1.000  H
  H120     1.0000 0.67770  0.43110  0.40540  Biso   1.000  H
  O91      1.0000 0.25360  0.58510  0.34290  Biso   1.000  O
  O92      1.0000 0.48950  0.58410  0.32020  Biso   1.000  O
  O93      1.0000 0.25560  0.70810  0.38660  Biso   1.000  O
  C181     1.0000 0.35070  0.57050  0.31820  Biso   1.000  C
  C182     1.0000 0.29880  0.53440  0.28250  Biso   1.000  C
  C183     1.0000 0.40400  0.51410  0.25490  Biso   1.000  C
  C184     1.0000 0.35380  0.47960  0.22250  Biso   1.000  C
  C185     1.0000 0.25490  0.84100  0.39170  Biso   1.000  C
  C186     1.0000 0.25480  0.90840  0.39160  Biso   1.000  C
  H121     1.0000 0.50920  0.52380  0.25810  Biso   1.000  H
  H122     1.0000 0.42540  0.46550  0.20350  Biso   1.000  H
  H123     1.0000 0.17760  0.81810  0.40540  Biso   1.000  H
  H124     1.0000 0.17770  0.93110  0.40540  Biso   1.000  H
  O94      1.0000 0.25360  0.08510  0.84290  Biso   1.000  O
  O95      1.0000 0.48950  0.08410  0.82020  Biso   1.000  O
  O96      1.0000 0.25560  0.20810  0.88660  Biso   1.000  O
  C187     1.0000 0.35070  0.07050  0.81820  Biso   1.000  C
  C188     1.0000 0.29880  0.03440  0.78250  Biso   1.000  C
  C189     1.0000 0.40400  0.01410  0.75490  Biso   1.000  C
  C190     1.0000 0.35380  0.97960  0.72250  Biso   1.000  C
  C191     1.0000 0.25490  0.34100  0.89170  Biso   1.000  C
  C192     1.0000 0.25480  0.40840  0.89160  Biso   1.000  C
  H125     1.0000 0.50920  0.02380  0.75810  Biso   1.000  H
  H126     1.0000 0.42540  0.96550  0.70350  Biso   1.000  H
  H127     1.0000 0.17760  0.31810  0.90540  Biso   1.000  H
  H128     1.0000 0.17770  0.43110  0.90540  Biso   1.000  H
  Sc1      1.0000 0.37500  0.37500  0.63596  Biso   1.000  Sc
  Sc2      1.0000 0.37500  0.87500  0.13596  Biso   1.000  Sc
  Sc3      1.0000 0.87500  0.37500  0.13596  Biso   1.000  Sc
  Sc4      1.0000 0.87500  0.87500  0.63596  Biso   1.000  Sc
  Sc5      1.0000 0.37500  0.37500  0.11404  Biso   1.000  Sc
  Sc6      1.0000 0.37500  0.87500  0.61404  Biso   1.000  Sc
  Sc7      1.0000 0.87500  0.37500  0.61404  Biso   1.000  Sc
  Sc8      1.0000 0.87500  0.87500  0.11404  Biso   1.000  Sc
  Sc9      1.0000 0.62500  0.62500  0.36404  Biso   1.000  Sc
  Sc10     1.0000 0.62500  0.12500  0.86404  Biso   1.000  Sc
  Sc11     1.0000 0.12500  0.62500  0.86404  Biso   1.000  Sc
  Sc12     1.0000 0.12500  0.12500  0.36404  Biso   1.000  Sc
  Sc13     1.0000 0.62500  0.62500  0.88596  Biso   1.000  Sc
  Sc14     1.0000 0.62500  0.12500  0.38596  Biso   1.000  Sc
  Sc15     1.0000 0.12500  0.62500  0.38596  Biso   1.000  Sc
  Sc16     1.0000 0.12500  0.12500  0.88596  Biso   1.000  Sc
  C193     1.0000 0.12500  0.48500  0.62500  Biso   1.000  C
  C194     1.0000 0.12500  0.55750  0.62500  Biso   1.000  C
  C195     1.0000 0.12500  0.98500  0.12500  Biso   1.000  C
  C196     1.0000 0.12500  0.05750  0.12500  Biso   1.000  C
  C197     1.0000 0.62500  0.98500  0.62500  Biso   1.000  C
  C198     1.0000 0.62500  0.05750  0.62500  Biso   1.000  C
  C199     1.0000 0.62500  0.26500  0.62500  Biso   1.000  C
  C200     1.0000 0.62500  0.19250  0.62500  Biso   1.000  C
  C201     1.0000 0.62500  0.76500  0.12500  Biso   1.000  C
  C202     1.0000 0.62500  0.69250  0.12500  Biso   1.000  C
  C203     1.0000 0.62500  0.48500  0.12500  Biso   1.000  C
  C204     1.0000 0.62500  0.55750  0.12500  Biso   1.000  C
  C205     1.0000 0.12500  0.26500  0.12500  Biso   1.000  C
  C206     1.0000 0.12500  0.19250  0.12500  Biso   1.000  C
  C207     1.0000 0.12500  0.76500  0.62500  Biso   1.000  C
  C208     1.0000 0.12500  0.69250  0.62500  Biso   1.000  C
  C209     1.0000 0.87500  0.51500  0.37500  Biso   1.000  C
  C210     1.0000 0.87500  0.44250  0.37500  Biso   1.000  C
  C211     1.0000 0.87500  0.01500  0.87500  Biso   1.000  C
  C212     1.0000 0.87500  0.94250  0.87500  Biso   1.000  C
  C213     1.0000 0.37500  0.73500  0.37500  Biso   1.000  C
  C214     1.0000 0.37500  0.80750  0.37500  Biso   1.000  C
  C215     1.0000 0.37500  0.23500  0.87500  Biso   1.000  C
  C216     1.0000 0.37500  0.30750  0.87500  Biso   1.000  C
  C217     1.0000 0.37500  0.51500  0.87500  Biso   1.000  C
  C218     1.0000 0.37500  0.44250  0.87500  Biso   1.000  C
  C219     1.0000 0.37500  0.01500  0.37500  Biso   1.000  C
  C220     1.0000 0.37500  0.94250  0.37500  Biso   1.000  C
  C221     1.0000 0.87500  0.73500  0.87500  Biso   1.000  C
  C222     1.0000 0.87500  0.80750  0.87500  Biso   1.000  C
  C223     1.0000 0.87500  0.23500  0.37500  Biso   1.000  C
  C224     1.0000 0.87500  0.30750  0.37500  Biso   1.000  C
