data_image0
_cell_length_a       7.2499
_cell_length_b       23.7625
_cell_length_c       30.735
_cell_angle_alpha    90
_cell_angle_beta     90
_cell_angle_gamma    90

_symmetry_space_group_name_H-M    "P 1"
_symmetry_int_tables_number       1

loop_
  _symmetry_equiv_pos_as_xyz
  'x, y, z'

loop_
  _atom_site_label
  _atom_site_occupancy
  _atom_site_fract_x
  _atom_site_fract_y
  _atom_site_fract_z
  _atom_site_thermal_displace_type
  _atom_site_B_iso_or_equiv
  _atom_site_type_symbol
  Ag1      1.0000 0.19513  0.77005  0.29063  Biso   1.000  Ag
  Ag2      1.0000 0.52526  0.44231  0.48402  Biso   1.000  Ag
  O1       1.0000 0.34240  0.69581  0.31389  Biso   1.000  O
  O2       1.0000 0.45170  0.66770  0.24974  Biso   1.000  O
  O3       1.0000 0.47610  0.58800  0.44647  Biso   1.000  O
  O4       1.0000 0.65470  0.51204  0.44185  Biso   1.000  O
  N1       1.0000 0.10950  0.81274  0.35751  Biso   1.000  N
  N2       1.0000 0.02160  0.87411  0.43150  Biso   1.000  N
  C1       1.0000 0.00200  0.85815  0.35583  Biso   1.000  C
  H1       1.0000 0.95480  0.86970  0.32920  Biso   1.000  H
  C2       1.0000 0.95940  0.88834  0.39260  Biso   1.000  C
  H2       1.0000 0.88430  0.91990  0.39000  Biso   1.000  H
  C3       1.0000 0.12640  0.82831  0.43313  Biso   1.000  C
  H3       1.0000 0.17120  0.81640  0.46000  Biso   1.000  H
  C4       1.0000 0.17090  0.79795  0.39670  Biso   1.000  C
  H4       1.0000 0.24560  0.76630  0.39940  Biso   1.000  H
  C5       1.0000 0.43240  0.66341  0.29011  Biso   1.000  C
  C6       1.0000 0.52650  0.61456  0.31192  Biso   1.000  C
  C7       1.0000 0.63410  0.57741  0.28830  Biso   1.000  C
  H5       1.0000 0.64530  0.58170  0.25830  Biso   1.000  H
  C8       1.0000 0.72470  0.53393  0.30904  Biso   1.000  C
  H6       1.0000 0.79680  0.50900  0.29300  Biso   1.000  H
  C9       1.0000 0.70860  0.52736  0.35324  Biso   1.000  C
  H7       1.0000 0.77230  0.49850  0.36710  Biso   1.000  H
  C10      1.0000 0.59870  0.56320  0.37756  Biso   1.000  C
  C11      1.0000 0.50910  0.60727  0.35673  Biso   1.000  C
  H8       1.0000 0.43700  0.63210  0.37280  Biso   1.000  H
  C12      1.0000 0.57500  0.55381  0.42545  Biso   1.000  C
  Ag3      1.0000 0.69513  0.27005  0.79063  Biso   1.000  Ag
  Ag4      1.0000 0.02526  0.94232  0.98402  Biso   1.000  Ag
  O5       1.0000 0.84240  0.19581  0.81389  Biso   1.000  O
  O6       1.0000 0.95170  0.16770  0.74974  Biso   1.000  O
  O7       1.0000 0.97610  0.08800  0.94647  Biso   1.000  O
  O8       1.0000 0.15470  0.01204  0.94185  Biso   1.000  O
  N3       1.0000 0.60950  0.31274  0.85751  Biso   1.000  N
  N4       1.0000 0.52160  0.37411  0.93150  Biso   1.000  N
  C13      1.0000 0.50200  0.35815  0.85583  Biso   1.000  C
  H9       1.0000 0.45480  0.36970  0.82920  Biso   1.000  H
  C14      1.0000 0.45940  0.38834  0.89260  Biso   1.000  C
  H10      1.0000 0.38430  0.41990  0.89000  Biso   1.000  H
  C15      1.0000 0.62640  0.32831  0.93313  Biso   1.000  C
  H11      1.0000 0.67120  0.31640  0.96000  Biso   1.000  H
  C16      1.0000 0.67090  0.29795  0.89670  Biso   1.000  C
  H12      1.0000 0.74560  0.26630  0.89940  Biso   1.000  H
  C17      1.0000 0.93240  0.16341  0.79011  Biso   1.000  C
  C18      1.0000 0.02650  0.11456  0.81192  Biso   1.000  C
  C19      1.0000 0.13410  0.07741  0.78830  Biso   1.000  C
  H13      1.0000 0.14530  0.08170  0.75830  Biso   1.000  H
  C20      1.0000 0.22470  0.03393  0.80904  Biso   1.000  C
  H14      1.0000 0.29680  0.00900  0.79300  Biso   1.000  H
  C21      1.0000 0.20860  0.02736  0.85324  Biso   1.000  C
  H15      1.0000 0.27230  0.99850  0.86710  Biso   1.000  H
  C22      1.0000 0.09870  0.06320  0.87756  Biso   1.000  C
  C23      1.0000 0.00910  0.10727  0.85673  Biso   1.000  C
  H16      1.0000 0.93700  0.13210  0.87280  Biso   1.000  H
  C24      1.0000 0.07500  0.05381  0.92545  Biso   1.000  C
  Ag5      1.0000 0.30487  0.22995  0.79063  Biso   1.000  Ag
  Ag6      1.0000 0.97474  0.55768  0.98402  Biso   1.000  Ag
  O9       1.0000 0.15760  0.30419  0.81389  Biso   1.000  O
  O10      1.0000 0.04830  0.33230  0.74974  Biso   1.000  O
  O11      1.0000 0.02390  0.41200  0.94647  Biso   1.000  O
  O12      1.0000 0.84530  0.48796  0.94185  Biso   1.000  O
  N5       1.0000 0.39050  0.18726  0.85751  Biso   1.000  N
  N6       1.0000 0.47840  0.12589  0.93150  Biso   1.000  N
  C25      1.0000 0.49800  0.14185  0.85583  Biso   1.000  C
  H17      1.0000 0.54520  0.13030  0.82920  Biso   1.000  H
  C26      1.0000 0.54060  0.11166  0.89260  Biso   1.000  C
  H18      1.0000 0.61570  0.08010  0.89000  Biso   1.000  H
  C27      1.0000 0.37360  0.17169  0.93313  Biso   1.000  C
  H19      1.0000 0.32880  0.18360  0.96000  Biso   1.000  H
  C28      1.0000 0.32910  0.20205  0.89670  Biso   1.000  C
  H20      1.0000 0.25440  0.23370  0.89940  Biso   1.000  H
  C29      1.0000 0.06760  0.33659  0.79011  Biso   1.000  C
  C30      1.0000 0.97350  0.38544  0.81192  Biso   1.000  C
  C31      1.0000 0.86590  0.42259  0.78830  Biso   1.000  C
  H21      1.0000 0.85470  0.41830  0.75830  Biso   1.000  H
  C32      1.0000 0.77530  0.46607  0.80904  Biso   1.000  C
  H22      1.0000 0.70320  0.49100  0.79300  Biso   1.000  H
  C33      1.0000 0.79140  0.47264  0.85324  Biso   1.000  C
  H23      1.0000 0.72770  0.50150  0.86710  Biso   1.000  H
  C34      1.0000 0.90130  0.43680  0.87756  Biso   1.000  C
  C35      1.0000 0.99090  0.39273  0.85673  Biso   1.000  C
  H24      1.0000 0.06300  0.36790  0.87280  Biso   1.000  H
  C36      1.0000 0.92500  0.44619  0.92545  Biso   1.000  C
  Ag7      1.0000 0.80487  0.72995  0.29063  Biso   1.000  Ag
  Ag8      1.0000 0.47474  0.05769  0.48402  Biso   1.000  Ag
  O13      1.0000 0.65760  0.80419  0.31389  Biso   1.000  O
  O14      1.0000 0.54830  0.83230  0.24974  Biso   1.000  O
  O15      1.0000 0.52390  0.91200  0.44647  Biso   1.000  O
  O16      1.0000 0.34530  0.98796  0.44185  Biso   1.000  O
  N7       1.0000 0.89050  0.68726  0.35751  Biso   1.000  N
  N8       1.0000 0.97840  0.62589  0.43150  Biso   1.000  N
  C37      1.0000 0.99800  0.64185  0.35583  Biso   1.000  C
  H25      1.0000 0.04520  0.63030  0.32920  Biso   1.000  H
  C38      1.0000 0.04060  0.61166  0.39260  Biso   1.000  C
  H26      1.0000 0.11570  0.58010  0.39000  Biso   1.000  H
  C39      1.0000 0.87360  0.67169  0.43313  Biso   1.000  C
  H27      1.0000 0.82880  0.68360  0.46000  Biso   1.000  H
  C40      1.0000 0.82910  0.70205  0.39670  Biso   1.000  C
  H28      1.0000 0.75440  0.73370  0.39940  Biso   1.000  H
  C41      1.0000 0.56760  0.83659  0.29011  Biso   1.000  C
  C42      1.0000 0.47350  0.88544  0.31192  Biso   1.000  C
  C43      1.0000 0.36590  0.92259  0.28830  Biso   1.000  C
  H29      1.0000 0.35470  0.91830  0.25830  Biso   1.000  H
  C44      1.0000 0.27530  0.96607  0.30904  Biso   1.000  C
  H30      1.0000 0.20320  0.99100  0.29300  Biso   1.000  H
  C45      1.0000 0.29140  0.97264  0.35324  Biso   1.000  C
  H31      1.0000 0.22770  0.00150  0.36710  Biso   1.000  H
  C46      1.0000 0.40130  0.93680  0.37756  Biso   1.000  C
  C47      1.0000 0.49090  0.89273  0.35673  Biso   1.000  C
  H32      1.0000 0.56300  0.86790  0.37280  Biso   1.000  H
  C48      1.0000 0.42500  0.94619  0.42545  Biso   1.000  C
  Ag9      1.0000 0.80487  0.27005  0.20937  Biso   1.000  Ag
  Ag10     1.0000 0.47474  0.94232  0.01598  Biso   1.000  Ag
  O17      1.0000 0.65760  0.19581  0.18611  Biso   1.000  O
  O18      1.0000 0.54830  0.16770  0.25026  Biso   1.000  O
  O19      1.0000 0.52390  0.08800  0.05353  Biso   1.000  O
  O20      1.0000 0.34530  0.01204  0.05815  Biso   1.000  O
  N9       1.0000 0.89050  0.31274  0.14249  Biso   1.000  N
  N10      1.0000 0.97840  0.37411  0.06850  Biso   1.000  N
  C49      1.0000 0.99800  0.35815  0.14417  Biso   1.000  C
  H33      1.0000 0.04520  0.36970  0.17080  Biso   1.000  H
  C50      1.0000 0.04060  0.38834  0.10740  Biso   1.000  C
  H34      1.0000 0.11570  0.41990  0.11000  Biso   1.000  H
  C51      1.0000 0.87360  0.32831  0.06687  Biso   1.000  C
  H35      1.0000 0.82880  0.31640  0.04000  Biso   1.000  H
  C52      1.0000 0.82910  0.29795  0.10330  Biso   1.000  C
  H36      1.0000 0.75440  0.26630  0.10060  Biso   1.000  H
  C53      1.0000 0.56760  0.16341  0.20989  Biso   1.000  C
  C54      1.0000 0.47350  0.11456  0.18808  Biso   1.000  C
  C55      1.0000 0.36590  0.07741  0.21170  Biso   1.000  C
  H37      1.0000 0.35470  0.08170  0.24170  Biso   1.000  H
  C56      1.0000 0.27530  0.03393  0.19096  Biso   1.000  C
  H38      1.0000 0.20320  0.00900  0.20700  Biso   1.000  H
  C57      1.0000 0.29140  0.02736  0.14676  Biso   1.000  C
  H39      1.0000 0.22770  0.99850  0.13290  Biso   1.000  H
  C58      1.0000 0.40130  0.06320  0.12244  Biso   1.000  C
  C59      1.0000 0.49090  0.10727  0.14327  Biso   1.000  C
  H40      1.0000 0.56300  0.13210  0.12720  Biso   1.000  H
  C60      1.0000 0.42500  0.05381  0.07455  Biso   1.000  C
  Ag11     1.0000 0.30487  0.77005  0.70937  Biso   1.000  Ag
  Ag12     1.0000 0.97474  0.44231  0.51598  Biso   1.000  Ag
  O21      1.0000 0.15760  0.69581  0.68611  Biso   1.000  O
  O22      1.0000 0.04830  0.66770  0.75026  Biso   1.000  O
  O23      1.0000 0.02390  0.58800  0.55353  Biso   1.000  O
  O24      1.0000 0.84530  0.51204  0.55815  Biso   1.000  O
  N11      1.0000 0.39050  0.81274  0.64249  Biso   1.000  N
  N12      1.0000 0.47840  0.87411  0.56850  Biso   1.000  N
  C61      1.0000 0.49800  0.85815  0.64417  Biso   1.000  C
  H41      1.0000 0.54520  0.86970  0.67080  Biso   1.000  H
  C62      1.0000 0.54060  0.88834  0.60740  Biso   1.000  C
  H42      1.0000 0.61570  0.91990  0.61000  Biso   1.000  H
  C63      1.0000 0.37360  0.82831  0.56687  Biso   1.000  C
  H43      1.0000 0.32880  0.81640  0.54000  Biso   1.000  H
  C64      1.0000 0.32910  0.79795  0.60330  Biso   1.000  C
  H44      1.0000 0.25440  0.76630  0.60060  Biso   1.000  H
  C65      1.0000 0.06760  0.66341  0.70989  Biso   1.000  C
  C66      1.0000 0.97350  0.61456  0.68808  Biso   1.000  C
  C67      1.0000 0.86590  0.57741  0.71170  Biso   1.000  C
  H45      1.0000 0.85470  0.58170  0.74170  Biso   1.000  H
  C68      1.0000 0.77530  0.53393  0.69096  Biso   1.000  C
  H46      1.0000 0.70320  0.50900  0.70700  Biso   1.000  H
  C69      1.0000 0.79140  0.52736  0.64676  Biso   1.000  C
  H47      1.0000 0.72770  0.49850  0.63290  Biso   1.000  H
  C70      1.0000 0.90130  0.56320  0.62244  Biso   1.000  C
  C71      1.0000 0.99090  0.60727  0.64327  Biso   1.000  C
  H48      1.0000 0.06300  0.63210  0.62720  Biso   1.000  H
  C72      1.0000 0.92500  0.55381  0.57455  Biso   1.000  C
  Ag13     1.0000 0.69513  0.72995  0.70937  Biso   1.000  Ag
  Ag14     1.0000 0.02526  0.05769  0.51598  Biso   1.000  Ag
  O25      1.0000 0.84240  0.80419  0.68611  Biso   1.000  O
  O26      1.0000 0.95170  0.83230  0.75026  Biso   1.000  O
  O27      1.0000 0.97610  0.91200  0.55353  Biso   1.000  O
  O28      1.0000 0.15470  0.98796  0.55815  Biso   1.000  O
  N13      1.0000 0.60950  0.68726  0.64249  Biso   1.000  N
  N14      1.0000 0.52160  0.62589  0.56850  Biso   1.000  N
  C73      1.0000 0.50200  0.64185  0.64417  Biso   1.000  C
  H49      1.0000 0.45480  0.63030  0.67080  Biso   1.000  H
  C74      1.0000 0.45940  0.61166  0.60740  Biso   1.000  C
  H50      1.0000 0.38430  0.58010  0.61000  Biso   1.000  H
  C75      1.0000 0.62640  0.67169  0.56687  Biso   1.000  C
  H51      1.0000 0.67120  0.68360  0.54000  Biso   1.000  H
  C76      1.0000 0.67090  0.70205  0.60330  Biso   1.000  C
  H52      1.0000 0.74560  0.73370  0.60060  Biso   1.000  H
  C77      1.0000 0.93240  0.83659  0.70989  Biso   1.000  C
  C78      1.0000 0.02650  0.88544  0.68808  Biso   1.000  C
  C79      1.0000 0.13410  0.92259  0.71170  Biso   1.000  C
  H53      1.0000 0.14530  0.91830  0.74170  Biso   1.000  H
  C80      1.0000 0.22470  0.96607  0.69096  Biso   1.000  C
  H54      1.0000 0.29680  0.99100  0.70700  Biso   1.000  H
  C81      1.0000 0.20860  0.97264  0.64676  Biso   1.000  C
  H55      1.0000 0.27230  0.00150  0.63290  Biso   1.000  H
  C82      1.0000 0.09870  0.93680  0.62244  Biso   1.000  C
  C83      1.0000 0.00910  0.89273  0.64327  Biso   1.000  C
  H56      1.0000 0.93700  0.86790  0.62720  Biso   1.000  H
  C84      1.0000 0.07500  0.94619  0.57455  Biso   1.000  C
  Ag15     1.0000 0.19513  0.22995  0.20937  Biso   1.000  Ag
  Ag16     1.0000 0.52526  0.55768  0.01598  Biso   1.000  Ag
  O29      1.0000 0.34240  0.30419  0.18611  Biso   1.000  O
  O30      1.0000 0.45170  0.33230  0.25026  Biso   1.000  O
  O31      1.0000 0.47610  0.41200  0.05353  Biso   1.000  O
  O32      1.0000 0.65470  0.48796  0.05815  Biso   1.000  O
  N15      1.0000 0.10950  0.18726  0.14249  Biso   1.000  N
  N16      1.0000 0.02160  0.12589  0.06850  Biso   1.000  N
  C85      1.0000 0.00200  0.14185  0.14417  Biso   1.000  C
  H57      1.0000 0.95480  0.13030  0.17080  Biso   1.000  H
  C86      1.0000 0.95940  0.11166  0.10740  Biso   1.000  C
  H58      1.0000 0.88430  0.08010  0.11000  Biso   1.000  H
  C87      1.0000 0.12640  0.17169  0.06687  Biso   1.000  C
  H59      1.0000 0.17120  0.18360  0.04000  Biso   1.000  H
  C88      1.0000 0.17090  0.20205  0.10330  Biso   1.000  C
  H60      1.0000 0.24560  0.23370  0.10060  Biso   1.000  H
  C89      1.0000 0.43240  0.33659  0.20989  Biso   1.000  C
  C90      1.0000 0.52650  0.38544  0.18808  Biso   1.000  C
  C91      1.0000 0.63410  0.42259  0.21170  Biso   1.000  C
  H61      1.0000 0.64530  0.41830  0.24170  Biso   1.000  H
  C92      1.0000 0.72470  0.46607  0.19096  Biso   1.000  C
  H62      1.0000 0.79680  0.49100  0.20700  Biso   1.000  H
  C93      1.0000 0.70860  0.47264  0.14676  Biso   1.000  C
  H63      1.0000 0.77230  0.50150  0.13290  Biso   1.000  H
  C94      1.0000 0.59870  0.43680  0.12244  Biso   1.000  C
  C95      1.0000 0.50910  0.39273  0.14327  Biso   1.000  C
  H64      1.0000 0.43700  0.36790  0.12720  Biso   1.000  H
  C96      1.0000 0.57500  0.44619  0.07455  Biso   1.000  C
  Ag17     1.0000 0.80487  0.22995  0.70937  Biso   1.000  Ag
  Ag18     1.0000 0.47474  0.55768  0.51598  Biso   1.000  Ag
  O33      1.0000 0.65760  0.30419  0.68611  Biso   1.000  O
  O34      1.0000 0.54830  0.33230  0.75026  Biso   1.000  O
  O35      1.0000 0.52390  0.41200  0.55353  Biso   1.000  O
  O36      1.0000 0.34530  0.48796  0.55815  Biso   1.000  O
  N17      1.0000 0.89050  0.18726  0.64249  Biso   1.000  N
  N18      1.0000 0.97840  0.12589  0.56850  Biso   1.000  N
  C97      1.0000 0.99800  0.14185  0.64417  Biso   1.000  C
  H65      1.0000 0.04520  0.13030  0.67080  Biso   1.000  H
  C98      1.0000 0.04060  0.11166  0.60740  Biso   1.000  C
  H66      1.0000 0.11570  0.08010  0.61000  Biso   1.000  H
  C99      1.0000 0.87360  0.17169  0.56687  Biso   1.000  C
  H67      1.0000 0.82880  0.18360  0.54000  Biso   1.000  H
  C100     1.0000 0.82910  0.20205  0.60330  Biso   1.000  C
  H68      1.0000 0.75440  0.23370  0.60060  Biso   1.000  H
  C101     1.0000 0.56760  0.33659  0.70989  Biso   1.000  C
  C102     1.0000 0.47350  0.38544  0.68808  Biso   1.000  C
  C103     1.0000 0.36590  0.42259  0.71170  Biso   1.000  C
  H69      1.0000 0.35470  0.41830  0.74170  Biso   1.000  H
  C104     1.0000 0.27530  0.46607  0.69096  Biso   1.000  C
  H70      1.0000 0.20320  0.49100  0.70700  Biso   1.000  H
  C105     1.0000 0.29140  0.47264  0.64676  Biso   1.000  C
  H71      1.0000 0.22770  0.50150  0.63290  Biso   1.000  H
  C106     1.0000 0.40130  0.43680  0.62244  Biso   1.000  C
  C107     1.0000 0.49090  0.39273  0.64327  Biso   1.000  C
  H72      1.0000 0.56300  0.36790  0.62720  Biso   1.000  H
  C108     1.0000 0.42500  0.44619  0.57455  Biso   1.000  C
  Ag19     1.0000 0.30487  0.72995  0.20937  Biso   1.000  Ag
  Ag20     1.0000 0.97474  0.05769  0.01598  Biso   1.000  Ag
  O37      1.0000 0.15760  0.80419  0.18611  Biso   1.000  O
  O38      1.0000 0.04830  0.83230  0.25026  Biso   1.000  O
  O39      1.0000 0.02390  0.91200  0.05353  Biso   1.000  O
  O40      1.0000 0.84530  0.98796  0.05815  Biso   1.000  O
  N19      1.0000 0.39050  0.68726  0.14249  Biso   1.000  N
  N20      1.0000 0.47840  0.62589  0.06850  Biso   1.000  N
  C109     1.0000 0.49800  0.64185  0.14417  Biso   1.000  C
  H73      1.0000 0.54520  0.63030  0.17080  Biso   1.000  H
  C110     1.0000 0.54060  0.61166  0.10740  Biso   1.000  C
  H74      1.0000 0.61570  0.58010  0.11000  Biso   1.000  H
  C111     1.0000 0.37360  0.67169  0.06687  Biso   1.000  C
  H75      1.0000 0.32880  0.68360  0.04000  Biso   1.000  H
  C112     1.0000 0.32910  0.70205  0.10330  Biso   1.000  C
  H76      1.0000 0.25440  0.73370  0.10060  Biso   1.000  H
  C113     1.0000 0.06760  0.83659  0.20989  Biso   1.000  C
  C114     1.0000 0.97350  0.88544  0.18808  Biso   1.000  C
  C115     1.0000 0.86590  0.92259  0.21170  Biso   1.000  C
  H77      1.0000 0.85470  0.91830  0.24170  Biso   1.000  H
  C116     1.0000 0.77530  0.96607  0.19096  Biso   1.000  C
  H78      1.0000 0.70320  0.99100  0.20700  Biso   1.000  H
  C117     1.0000 0.79140  0.97264  0.14676  Biso   1.000  C
  H79      1.0000 0.72770  0.00150  0.13290  Biso   1.000  H
  C118     1.0000 0.90130  0.93680  0.12244  Biso   1.000  C
  C119     1.0000 0.99090  0.89273  0.14327  Biso   1.000  C
  H80      1.0000 0.06300  0.86790  0.12720  Biso   1.000  H
  C120     1.0000 0.92500  0.94619  0.07455  Biso   1.000  C
  Ag21     1.0000 0.69513  0.77005  0.20937  Biso   1.000  Ag
  Ag22     1.0000 0.02526  0.44231  0.01598  Biso   1.000  Ag
  O41      1.0000 0.84240  0.69581  0.18611  Biso   1.000  O
  O42      1.0000 0.95170  0.66770  0.25026  Biso   1.000  O
  O43      1.0000 0.97610  0.58800  0.05353  Biso   1.000  O
  O44      1.0000 0.15470  0.51204  0.05815  Biso   1.000  O
  N21      1.0000 0.60950  0.81274  0.14249  Biso   1.000  N
  N22      1.0000 0.52160  0.87411  0.06850  Biso   1.000  N
  C121     1.0000 0.50200  0.85815  0.14417  Biso   1.000  C
  H81      1.0000 0.45480  0.86970  0.17080  Biso   1.000  H
  C122     1.0000 0.45940  0.88834  0.10740  Biso   1.000  C
  H82      1.0000 0.38430  0.91990  0.11000  Biso   1.000  H
  C123     1.0000 0.62640  0.82831  0.06687  Biso   1.000  C
  H83      1.0000 0.67120  0.81640  0.04000  Biso   1.000  H
  C124     1.0000 0.67090  0.79795  0.10330  Biso   1.000  C
  H84      1.0000 0.74560  0.76630  0.10060  Biso   1.000  H
  C125     1.0000 0.93240  0.66341  0.20989  Biso   1.000  C
  C126     1.0000 0.02650  0.61456  0.18808  Biso   1.000  C
  C127     1.0000 0.13410  0.57741  0.21170  Biso   1.000  C
  H85      1.0000 0.14530  0.58170  0.24170  Biso   1.000  H
  C128     1.0000 0.22470  0.53393  0.19096  Biso   1.000  C
  H86      1.0000 0.29680  0.50900  0.20700  Biso   1.000  H
  C129     1.0000 0.20860  0.52736  0.14676  Biso   1.000  C
  H87      1.0000 0.27230  0.49850  0.13290  Biso   1.000  H
  C130     1.0000 0.09870  0.56320  0.12244  Biso   1.000  C
  C131     1.0000 0.00910  0.60727  0.14327  Biso   1.000  C
  H88      1.0000 0.93700  0.63210  0.12720  Biso   1.000  H
  C132     1.0000 0.07500  0.55381  0.07455  Biso   1.000  C
  Ag23     1.0000 0.19513  0.27005  0.70937  Biso   1.000  Ag
  Ag24     1.0000 0.52526  0.94232  0.51598  Biso   1.000  Ag
  O45      1.0000 0.34240  0.19581  0.68611  Biso   1.000  O
  O46      1.0000 0.45170  0.16770  0.75026  Biso   1.000  O
  O47      1.0000 0.47610  0.08800  0.55353  Biso   1.000  O
  O48      1.0000 0.65470  0.01204  0.55815  Biso   1.000  O
  N23      1.0000 0.10950  0.31274  0.64249  Biso   1.000  N
  N24      1.0000 0.02160  0.37411  0.56850  Biso   1.000  N
  C133     1.0000 0.00200  0.35815  0.64417  Biso   1.000  C
  H89      1.0000 0.95480  0.36970  0.67080  Biso   1.000  H
  C134     1.0000 0.95940  0.38834  0.60740  Biso   1.000  C
  H90      1.0000 0.88430  0.41990  0.61000  Biso   1.000  H
  C135     1.0000 0.12640  0.32831  0.56687  Biso   1.000  C
  H91      1.0000 0.17120  0.31640  0.54000  Biso   1.000  H
  C136     1.0000 0.17090  0.29795  0.60330  Biso   1.000  C
  H92      1.0000 0.24560  0.26630  0.60060  Biso   1.000  H
  C137     1.0000 0.43240  0.16341  0.70989  Biso   1.000  C
  C138     1.0000 0.52650  0.11456  0.68808  Biso   1.000  C
  C139     1.0000 0.63410  0.07741  0.71170  Biso   1.000  C
  H93      1.0000 0.64530  0.08170  0.74170  Biso   1.000  H
  C140     1.0000 0.72470  0.03393  0.69096  Biso   1.000  C
  H94      1.0000 0.79680  0.00900  0.70700  Biso   1.000  H
  C141     1.0000 0.70860  0.02736  0.64676  Biso   1.000  C
  H95      1.0000 0.77230  0.99850  0.63290  Biso   1.000  H
  C142     1.0000 0.59870  0.06320  0.62244  Biso   1.000  C
  C143     1.0000 0.50910  0.10727  0.64327  Biso   1.000  C
  H96      1.0000 0.43700  0.13210  0.62720  Biso   1.000  H
  C144     1.0000 0.57500  0.05381  0.57455  Biso   1.000  C
  Ag25     1.0000 0.19513  0.72995  0.79063  Biso   1.000  Ag
  Ag26     1.0000 0.52526  0.05769  0.98402  Biso   1.000  Ag
  O49      1.0000 0.34240  0.80419  0.81389  Biso   1.000  O
  O50      1.0000 0.45170  0.83230  0.74974  Biso   1.000  O
  O51      1.0000 0.47610  0.91200  0.94647  Biso   1.000  O
  O52      1.0000 0.65470  0.98796  0.94185  Biso   1.000  O
  N25      1.0000 0.10950  0.68726  0.85751  Biso   1.000  N
  N26      1.0000 0.02160  0.62589  0.93150  Biso   1.000  N
  C145     1.0000 0.00200  0.64185  0.85583  Biso   1.000  C
  H97      1.0000 0.95480  0.63030  0.82920  Biso   1.000  H
  C146     1.0000 0.95940  0.61166  0.89260  Biso   1.000  C
  H98      1.0000 0.88430  0.58010  0.89000  Biso   1.000  H
  C147     1.0000 0.12640  0.67169  0.93313  Biso   1.000  C
  H99      1.0000 0.17120  0.68360  0.96000  Biso   1.000  H
  C148     1.0000 0.17090  0.70205  0.89670  Biso   1.000  C
  H100     1.0000 0.24560  0.73370  0.89940  Biso   1.000  H
  C149     1.0000 0.43240  0.83659  0.79011  Biso   1.000  C
  C150     1.0000 0.52650  0.88544  0.81192  Biso   1.000  C
  C151     1.0000 0.63410  0.92259  0.78830  Biso   1.000  C
  H101     1.0000 0.64530  0.91830  0.75830  Biso   1.000  H
  C152     1.0000 0.72470  0.96607  0.80904  Biso   1.000  C
  H102     1.0000 0.79680  0.99100  0.79300  Biso   1.000  H
  C153     1.0000 0.70860  0.97264  0.85324  Biso   1.000  C
  H103     1.0000 0.77230  0.00150  0.86710  Biso   1.000  H
  C154     1.0000 0.59870  0.93680  0.87756  Biso   1.000  C
  C155     1.0000 0.50910  0.89273  0.85673  Biso   1.000  C
  H104     1.0000 0.43700  0.86790  0.87280  Biso   1.000  H
  C156     1.0000 0.57500  0.94619  0.92545  Biso   1.000  C
  Ag27     1.0000 0.69513  0.22995  0.29063  Biso   1.000  Ag
  Ag28     1.0000 0.02526  0.55768  0.48402  Biso   1.000  Ag
  O53      1.0000 0.84240  0.30419  0.31389  Biso   1.000  O
  O54      1.0000 0.95170  0.33230  0.24974  Biso   1.000  O
  O55      1.0000 0.97610  0.41200  0.44647  Biso   1.000  O
  O56      1.0000 0.15470  0.48796  0.44185  Biso   1.000  O
  N27      1.0000 0.60950  0.18726  0.35751  Biso   1.000  N
  N28      1.0000 0.52160  0.12589  0.43150  Biso   1.000  N
  C157     1.0000 0.50200  0.14185  0.35583  Biso   1.000  C
  H105     1.0000 0.45480  0.13030  0.32920  Biso   1.000  H
  C158     1.0000 0.45940  0.11166  0.39260  Biso   1.000  C
  H106     1.0000 0.38430  0.08010  0.39000  Biso   1.000  H
  C159     1.0000 0.62640  0.17169  0.43313  Biso   1.000  C
  H107     1.0000 0.67120  0.18360  0.46000  Biso   1.000  H
  C160     1.0000 0.67090  0.20205  0.39670  Biso   1.000  C
  H108     1.0000 0.74560  0.23370  0.39940  Biso   1.000  H
  C161     1.0000 0.93240  0.33659  0.29011  Biso   1.000  C
  C162     1.0000 0.02650  0.38544  0.31192  Biso   1.000  C
  C163     1.0000 0.13410  0.42259  0.28830  Biso   1.000  C
  H109     1.0000 0.14530  0.41830  0.25830  Biso   1.000  H
  C164     1.0000 0.22470  0.46607  0.30904  Biso   1.000  C
  H110     1.0000 0.29680  0.49100  0.29300  Biso   1.000  H
  C165     1.0000 0.20860  0.47264  0.35324  Biso   1.000  C
  H111     1.0000 0.27230  0.50150  0.36710  Biso   1.000  H
  C166     1.0000 0.09870  0.43680  0.37756  Biso   1.000  C
  C167     1.0000 0.00910  0.39273  0.35673  Biso   1.000  C
  H112     1.0000 0.93700  0.36790  0.37280  Biso   1.000  H
  C168     1.0000 0.07500  0.44619  0.42545  Biso   1.000  C
  Ag29     1.0000 0.30487  0.27005  0.29063  Biso   1.000  Ag
  Ag30     1.0000 0.97474  0.94232  0.48402  Biso   1.000  Ag
  O57      1.0000 0.15760  0.19581  0.31389  Biso   1.000  O
  O58      1.0000 0.04830  0.16770  0.24974  Biso   1.000  O
  O59      1.0000 0.02390  0.08800  0.44647  Biso   1.000  O
  O60      1.0000 0.84530  0.01204  0.44185  Biso   1.000  O
  N29      1.0000 0.39050  0.31274  0.35751  Biso   1.000  N
  N30      1.0000 0.47840  0.37411  0.43150  Biso   1.000  N
  C169     1.0000 0.49800  0.35815  0.35583  Biso   1.000  C
  H113     1.0000 0.54520  0.36970  0.32920  Biso   1.000  H
  C170     1.0000 0.54060  0.38834  0.39260  Biso   1.000  C
  H114     1.0000 0.61570  0.41990  0.39000  Biso   1.000  H
  C171     1.0000 0.37360  0.32831  0.43313  Biso   1.000  C
  H115     1.0000 0.32880  0.31640  0.46000  Biso   1.000  H
  C172     1.0000 0.32910  0.29795  0.39670  Biso   1.000  C
  H116     1.0000 0.25440  0.26630  0.39940  Biso   1.000  H
  C173     1.0000 0.06760  0.16341  0.29011  Biso   1.000  C
  C174     1.0000 0.97350  0.11456  0.31192  Biso   1.000  C
  C175     1.0000 0.86590  0.07741  0.28830  Biso   1.000  C
  H117     1.0000 0.85470  0.08170  0.25830  Biso   1.000  H
  C176     1.0000 0.77530  0.03393  0.30904  Biso   1.000  C
  H118     1.0000 0.70320  0.00900  0.29300  Biso   1.000  H
  C177     1.0000 0.79140  0.02736  0.35324  Biso   1.000  C
  H119     1.0000 0.72770  0.99850  0.36710  Biso   1.000  H
  C178     1.0000 0.90130  0.06320  0.37756  Biso   1.000  C
  C179     1.0000 0.99090  0.10727  0.35673  Biso   1.000  C
  H120     1.0000 0.06300  0.13210  0.37280  Biso   1.000  H
  C180     1.0000 0.92500  0.05381  0.42545  Biso   1.000  C
  Ag31     1.0000 0.80487  0.77005  0.79063  Biso   1.000  Ag
  Ag32     1.0000 0.47474  0.44231  0.98402  Biso   1.000  Ag
  O61      1.0000 0.65760  0.69581  0.81389  Biso   1.000  O
  O62      1.0000 0.54830  0.66770  0.74974  Biso   1.000  O
  O63      1.0000 0.52390  0.58800  0.94647  Biso   1.000  O
  O64      1.0000 0.34530  0.51204  0.94185  Biso   1.000  O
  N31      1.0000 0.89050  0.81274  0.85751  Biso   1.000  N
  N32      1.0000 0.97840  0.87411  0.93150  Biso   1.000  N
  C181     1.0000 0.99800  0.85815  0.85583  Biso   1.000  C
  H121     1.0000 0.04520  0.86970  0.82920  Biso   1.000  H
  C182     1.0000 0.04060  0.88834  0.89260  Biso   1.000  C
  H122     1.0000 0.11570  0.91990  0.89000  Biso   1.000  H
  C183     1.0000 0.87360  0.82831  0.93313  Biso   1.000  C
  H123     1.0000 0.82880  0.81640  0.96000  Biso   1.000  H
  C184     1.0000 0.82910  0.79795  0.89670  Biso   1.000  C
  H124     1.0000 0.75440  0.76630  0.89940  Biso   1.000  H
  C185     1.0000 0.56760  0.66341  0.79011  Biso   1.000  C
  C186     1.0000 0.47350  0.61456  0.81192  Biso   1.000  C
  C187     1.0000 0.36590  0.57741  0.78830  Biso   1.000  C
  H125     1.0000 0.35470  0.58170  0.75830  Biso   1.000  H
  C188     1.0000 0.27530  0.53393  0.80904  Biso   1.000  C
  H126     1.0000 0.20320  0.50900  0.79300  Biso   1.000  H
  C189     1.0000 0.29140  0.52736  0.85324  Biso   1.000  C
  H127     1.0000 0.22770  0.49850  0.86710  Biso   1.000  H
  C190     1.0000 0.40130  0.56320  0.87756  Biso   1.000  C
  C191     1.0000 0.49090  0.60727  0.85673  Biso   1.000  C
  H128     1.0000 0.56300  0.63210  0.87280  Biso   1.000  H
  C192     1.0000 0.42500  0.55381  0.92545  Biso   1.000  C
