data_image0
_cell_length_a       7.162
_cell_length_b       23.7651
_cell_length_c       30.7049
_cell_angle_alpha    90
_cell_angle_beta     90
_cell_angle_gamma    90

_symmetry_space_group_name_H-M    "P 1"
_symmetry_int_tables_number       1

loop_
  _symmetry_equiv_pos_as_xyz
  'x, y, z'

loop_
  _atom_site_label
  _atom_site_occupancy
  _atom_site_fract_x
  _atom_site_fract_y
  _atom_site_fract_z
  _atom_site_thermal_displace_type
  _atom_site_B_iso_or_equiv
  _atom_site_type_symbol
  Ag1      1.0000 0.19536  0.77004  0.29075  Biso   1.000  Ag
  Ag2      1.0000 0.53163  0.44291  0.48420  Biso   1.000  Ag
  O1       1.0000 0.34510  0.69591  0.31410  Biso   1.000  O
  O2       1.0000 0.45330  0.66706  0.24915  Biso   1.000  O
  O3       1.0000 0.48220  0.58797  0.44675  Biso   1.000  O
  O4       1.0000 0.66040  0.51114  0.44156  Biso   1.000  O
  N1       1.0000 0.10750  0.81238  0.35755  Biso   1.000  N
  N2       1.0000 0.01680  0.87420  0.43163  Biso   1.000  N
  C1       1.0000 0.99890  0.85820  0.35540  Biso   1.000  C
  H1       1.0000 0.95140  0.87020  0.32810  Biso   1.000  H
  C2       1.0000 0.95500  0.88830  0.39270  Biso   1.000  C
  H2       1.0000 0.87700  0.92040  0.39010  Biso   1.000  H
  C3       1.0000 0.12280  0.82820  0.43352  Biso   1.000  C
  H3       1.0000 0.16840  0.81610  0.46100  Biso   1.000  H
  C4       1.0000 0.16850  0.79760  0.39699  Biso   1.000  C
  H4       1.0000 0.24530  0.76520  0.39990  Biso   1.000  H
  C5       1.0000 0.43470  0.66370  0.29000  Biso   1.000  C
  C6       1.0000 0.53070  0.61440  0.31172  Biso   1.000  C
  C7       1.0000 0.64020  0.57700  0.28780  Biso   1.000  C
  H5       1.0000 0.65150  0.58120  0.25710  Biso   1.000  H
  C8       1.0000 0.73240  0.53360  0.30880  Biso   1.000  C
  H6       1.0000 0.80770  0.50820  0.29260  Biso   1.000  H
  C9       1.0000 0.71520  0.52720  0.35270  Biso   1.000  C
  H7       1.0000 0.78020  0.49750  0.36680  Biso   1.000  H
  C10      1.0000 0.60490  0.56320  0.37750  Biso   1.000  C
  C11      1.0000 0.51420  0.60740  0.35658  Biso   1.000  C
  H8       1.0000 0.44060  0.63300  0.37300  Biso   1.000  H
  C12      1.0000 0.58230  0.55390  0.42520  Biso   1.000  C
  Ag3      1.0000 0.69536  0.27004  0.79075  Biso   1.000  Ag
  Ag4      1.0000 0.03163  0.94291  0.98420  Biso   1.000  Ag
  O5       1.0000 0.84510  0.19591  0.81410  Biso   1.000  O
  O6       1.0000 0.95330  0.16706  0.74915  Biso   1.000  O
  O7       1.0000 0.98220  0.08797  0.94675  Biso   1.000  O
  O8       1.0000 0.16040  0.01114  0.94156  Biso   1.000  O
  N3       1.0000 0.60750  0.31238  0.85755  Biso   1.000  N
  N4       1.0000 0.51680  0.37420  0.93163  Biso   1.000  N
  C13      1.0000 0.49890  0.35820  0.85540  Biso   1.000  C
  H9       1.0000 0.45140  0.37020  0.82810  Biso   1.000  H
  C14      1.0000 0.45500  0.38830  0.89270  Biso   1.000  C
  H10      1.0000 0.37700  0.42040  0.89010  Biso   1.000  H
  C15      1.0000 0.62280  0.32820  0.93352  Biso   1.000  C
  H11      1.0000 0.66840  0.31610  0.96100  Biso   1.000  H
  C16      1.0000 0.66850  0.29760  0.89699  Biso   1.000  C
  H12      1.0000 0.74530  0.26520  0.89990  Biso   1.000  H
  C17      1.0000 0.93470  0.16370  0.79000  Biso   1.000  C
  C18      1.0000 0.03070  0.11440  0.81172  Biso   1.000  C
  C19      1.0000 0.14020  0.07700  0.78780  Biso   1.000  C
  H13      1.0000 0.15150  0.08120  0.75710  Biso   1.000  H
  C20      1.0000 0.23240  0.03360  0.80880  Biso   1.000  C
  H14      1.0000 0.30770  0.00820  0.79260  Biso   1.000  H
  C21      1.0000 0.21520  0.02720  0.85270  Biso   1.000  C
  H15      1.0000 0.28020  0.99750  0.86680  Biso   1.000  H
  C22      1.0000 0.10490  0.06320  0.87750  Biso   1.000  C
  C23      1.0000 0.01420  0.10740  0.85658  Biso   1.000  C
  H16      1.0000 0.94060  0.13300  0.87300  Biso   1.000  H
  C24      1.0000 0.08230  0.05390  0.92520  Biso   1.000  C
  Ag5      1.0000 0.30464  0.22996  0.79075  Biso   1.000  Ag
  Ag6      1.0000 0.96837  0.55709  0.98420  Biso   1.000  Ag
  O9       1.0000 0.15490  0.30409  0.81410  Biso   1.000  O
  O10      1.0000 0.04670  0.33294  0.74915  Biso   1.000  O
  O11      1.0000 0.01780  0.41203  0.94675  Biso   1.000  O
  O12      1.0000 0.83960  0.48886  0.94156  Biso   1.000  O
  N5       1.0000 0.39250  0.18762  0.85755  Biso   1.000  N
  N6       1.0000 0.48320  0.12580  0.93163  Biso   1.000  N
  C25      1.0000 0.50110  0.14180  0.85540  Biso   1.000  C
  H17      1.0000 0.54860  0.12980  0.82810  Biso   1.000  H
  C26      1.0000 0.54500  0.11170  0.89270  Biso   1.000  C
  H18      1.0000 0.62300  0.07960  0.89010  Biso   1.000  H
  C27      1.0000 0.37720  0.17180  0.93352  Biso   1.000  C
  H19      1.0000 0.33160  0.18390  0.96100  Biso   1.000  H
  C28      1.0000 0.33150  0.20240  0.89699  Biso   1.000  C
  H20      1.0000 0.25470  0.23480  0.89990  Biso   1.000  H
  C29      1.0000 0.06530  0.33630  0.79000  Biso   1.000  C
  C30      1.0000 0.96930  0.38560  0.81172  Biso   1.000  C
  C31      1.0000 0.85980  0.42300  0.78780  Biso   1.000  C
  H21      1.0000 0.84850  0.41880  0.75710  Biso   1.000  H
  C32      1.0000 0.76760  0.46640  0.80880  Biso   1.000  C
  H22      1.0000 0.69230  0.49180  0.79260  Biso   1.000  H
  C33      1.0000 0.78480  0.47280  0.85270  Biso   1.000  C
  H23      1.0000 0.71980  0.50250  0.86680  Biso   1.000  H
  C34      1.0000 0.89510  0.43680  0.87750  Biso   1.000  C
  C35      1.0000 0.98580  0.39260  0.85658  Biso   1.000  C
  H24      1.0000 0.05940  0.36700  0.87300  Biso   1.000  H
  C36      1.0000 0.91770  0.44610  0.92520  Biso   1.000  C
  Ag7      1.0000 0.80464  0.72996  0.29075  Biso   1.000  Ag
  Ag8      1.0000 0.46837  0.05709  0.48420  Biso   1.000  Ag
  O13      1.0000 0.65490  0.80409  0.31410  Biso   1.000  O
  O14      1.0000 0.54670  0.83294  0.24915  Biso   1.000  O
  O15      1.0000 0.51780  0.91203  0.44675  Biso   1.000  O
  O16      1.0000 0.33960  0.98886  0.44156  Biso   1.000  O
  N7       1.0000 0.89250  0.68762  0.35755  Biso   1.000  N
  N8       1.0000 0.98320  0.62580  0.43163  Biso   1.000  N
  C37      1.0000 0.00110  0.64180  0.35540  Biso   1.000  C
  H25      1.0000 0.04860  0.62980  0.32810  Biso   1.000  H
  C38      1.0000 0.04500  0.61170  0.39270  Biso   1.000  C
  H26      1.0000 0.12300  0.57960  0.39010  Biso   1.000  H
  C39      1.0000 0.87720  0.67180  0.43352  Biso   1.000  C
  H27      1.0000 0.83160  0.68390  0.46100  Biso   1.000  H
  C40      1.0000 0.83150  0.70240  0.39699  Biso   1.000  C
  H28      1.0000 0.75470  0.73480  0.39990  Biso   1.000  H
  C41      1.0000 0.56530  0.83630  0.29000  Biso   1.000  C
  C42      1.0000 0.46930  0.88560  0.31172  Biso   1.000  C
  C43      1.0000 0.35980  0.92300  0.28780  Biso   1.000  C
  H29      1.0000 0.34850  0.91880  0.25710  Biso   1.000  H
  C44      1.0000 0.26760  0.96640  0.30880  Biso   1.000  C
  H30      1.0000 0.19230  0.99180  0.29260  Biso   1.000  H
  C45      1.0000 0.28480  0.97280  0.35270  Biso   1.000  C
  H31      1.0000 0.21980  0.00250  0.36680  Biso   1.000  H
  C46      1.0000 0.39510  0.93680  0.37750  Biso   1.000  C
  C47      1.0000 0.48580  0.89260  0.35658  Biso   1.000  C
  H32      1.0000 0.55940  0.86700  0.37300  Biso   1.000  H
  C48      1.0000 0.41770  0.94610  0.42520  Biso   1.000  C
  Ag9      1.0000 0.80464  0.27004  0.20925  Biso   1.000  Ag
  Ag10     1.0000 0.46837  0.94291  0.01580  Biso   1.000  Ag
  O17      1.0000 0.65490  0.19591  0.18590  Biso   1.000  O
  O18      1.0000 0.54670  0.16706  0.25085  Biso   1.000  O
  O19      1.0000 0.51780  0.08797  0.05325  Biso   1.000  O
  O20      1.0000 0.33960  0.01114  0.05844  Biso   1.000  O
  N9       1.0000 0.89250  0.31238  0.14245  Biso   1.000  N
  N10      1.0000 0.98320  0.37420  0.06837  Biso   1.000  N
  C49      1.0000 0.00110  0.35820  0.14460  Biso   1.000  C
  H33      1.0000 0.04860  0.37020  0.17190  Biso   1.000  H
  C50      1.0000 0.04500  0.38830  0.10730  Biso   1.000  C
  H34      1.0000 0.12300  0.42040  0.10990  Biso   1.000  H
  C51      1.0000 0.87720  0.32820  0.06648  Biso   1.000  C
  H35      1.0000 0.83160  0.31610  0.03900  Biso   1.000  H
  C52      1.0000 0.83150  0.29760  0.10301  Biso   1.000  C
  H36      1.0000 0.75470  0.26520  0.10010  Biso   1.000  H
  C53      1.0000 0.56530  0.16370  0.21000  Biso   1.000  C
  C54      1.0000 0.46930  0.11440  0.18828  Biso   1.000  C
  C55      1.0000 0.35980  0.07700  0.21220  Biso   1.000  C
  H37      1.0000 0.34850  0.08120  0.24290  Biso   1.000  H
  C56      1.0000 0.26760  0.03360  0.19120  Biso   1.000  C
  H38      1.0000 0.19230  0.00820  0.20740  Biso   1.000  H
  C57      1.0000 0.28480  0.02720  0.14730  Biso   1.000  C
  H39      1.0000 0.21980  0.99750  0.13320  Biso   1.000  H
  C58      1.0000 0.39510  0.06320  0.12250  Biso   1.000  C
  C59      1.0000 0.48580  0.10740  0.14342  Biso   1.000  C
  H40      1.0000 0.55940  0.13300  0.12700  Biso   1.000  H
  C60      1.0000 0.41770  0.05390  0.07480  Biso   1.000  C
  Ag11     1.0000 0.30464  0.77004  0.70925  Biso   1.000  Ag
  Ag12     1.0000 0.96837  0.44291  0.51580  Biso   1.000  Ag
  O21      1.0000 0.15490  0.69591  0.68590  Biso   1.000  O
  O22      1.0000 0.04670  0.66706  0.75085  Biso   1.000  O
  O23      1.0000 0.01780  0.58797  0.55325  Biso   1.000  O
  O24      1.0000 0.83960  0.51114  0.55844  Biso   1.000  O
  N11      1.0000 0.39250  0.81238  0.64245  Biso   1.000  N
  N12      1.0000 0.48320  0.87420  0.56837  Biso   1.000  N
  C61      1.0000 0.50110  0.85820  0.64460  Biso   1.000  C
  H41      1.0000 0.54860  0.87020  0.67190  Biso   1.000  H
  C62      1.0000 0.54500  0.88830  0.60730  Biso   1.000  C
  H42      1.0000 0.62300  0.92040  0.60990  Biso   1.000  H
  C63      1.0000 0.37720  0.82820  0.56648  Biso   1.000  C
  H43      1.0000 0.33160  0.81610  0.53900  Biso   1.000  H
  C64      1.0000 0.33150  0.79760  0.60301  Biso   1.000  C
  H44      1.0000 0.25470  0.76520  0.60010  Biso   1.000  H
  C65      1.0000 0.06530  0.66370  0.71000  Biso   1.000  C
  C66      1.0000 0.96930  0.61440  0.68828  Biso   1.000  C
  C67      1.0000 0.85980  0.57700  0.71220  Biso   1.000  C
  H45      1.0000 0.84850  0.58120  0.74290  Biso   1.000  H
  C68      1.0000 0.76760  0.53360  0.69120  Biso   1.000  C
  H46      1.0000 0.69230  0.50820  0.70740  Biso   1.000  H
  C69      1.0000 0.78480  0.52720  0.64730  Biso   1.000  C
  H47      1.0000 0.71980  0.49750  0.63320  Biso   1.000  H
  C70      1.0000 0.89510  0.56320  0.62250  Biso   1.000  C
  C71      1.0000 0.98580  0.60740  0.64342  Biso   1.000  C
  H48      1.0000 0.05940  0.63300  0.62700  Biso   1.000  H
  C72      1.0000 0.91770  0.55390  0.57480  Biso   1.000  C
  Ag13     1.0000 0.69536  0.72996  0.70925  Biso   1.000  Ag
  Ag14     1.0000 0.03163  0.05709  0.51580  Biso   1.000  Ag
  O25      1.0000 0.84510  0.80409  0.68590  Biso   1.000  O
  O26      1.0000 0.95330  0.83294  0.75085  Biso   1.000  O
  O27      1.0000 0.98220  0.91203  0.55325  Biso   1.000  O
  O28      1.0000 0.16040  0.98886  0.55844  Biso   1.000  O
  N13      1.0000 0.60750  0.68762  0.64245  Biso   1.000  N
  N14      1.0000 0.51680  0.62580  0.56837  Biso   1.000  N
  C73      1.0000 0.49890  0.64180  0.64460  Biso   1.000  C
  H49      1.0000 0.45140  0.62980  0.67190  Biso   1.000  H
  C74      1.0000 0.45500  0.61170  0.60730  Biso   1.000  C
  H50      1.0000 0.37700  0.57960  0.60990  Biso   1.000  H
  C75      1.0000 0.62280  0.67180  0.56648  Biso   1.000  C
  H51      1.0000 0.66840  0.68390  0.53900  Biso   1.000  H
  C76      1.0000 0.66850  0.70240  0.60301  Biso   1.000  C
  H52      1.0000 0.74530  0.73480  0.60010  Biso   1.000  H
  C77      1.0000 0.93470  0.83630  0.71000  Biso   1.000  C
  C78      1.0000 0.03070  0.88560  0.68828  Biso   1.000  C
  C79      1.0000 0.14020  0.92300  0.71220  Biso   1.000  C
  H53      1.0000 0.15150  0.91880  0.74290  Biso   1.000  H
  C80      1.0000 0.23240  0.96640  0.69120  Biso   1.000  C
  H54      1.0000 0.30770  0.99180  0.70740  Biso   1.000  H
  C81      1.0000 0.21520  0.97280  0.64730  Biso   1.000  C
  H55      1.0000 0.28020  0.00250  0.63320  Biso   1.000  H
  C82      1.0000 0.10490  0.93680  0.62250  Biso   1.000  C
  C83      1.0000 0.01420  0.89260  0.64342  Biso   1.000  C
  H56      1.0000 0.94060  0.86700  0.62700  Biso   1.000  H
  C84      1.0000 0.08230  0.94610  0.57480  Biso   1.000  C
  Ag15     1.0000 0.19536  0.22996  0.20925  Biso   1.000  Ag
  Ag16     1.0000 0.53163  0.55709  0.01580  Biso   1.000  Ag
  O29      1.0000 0.34510  0.30409  0.18590  Biso   1.000  O
  O30      1.0000 0.45330  0.33294  0.25085  Biso   1.000  O
  O31      1.0000 0.48220  0.41203  0.05325  Biso   1.000  O
  O32      1.0000 0.66040  0.48886  0.05844  Biso   1.000  O
  N15      1.0000 0.10750  0.18762  0.14245  Biso   1.000  N
  N16      1.0000 0.01680  0.12580  0.06837  Biso   1.000  N
  C85      1.0000 0.99890  0.14180  0.14460  Biso   1.000  C
  H57      1.0000 0.95140  0.12980  0.17190  Biso   1.000  H
  C86      1.0000 0.95500  0.11170  0.10730  Biso   1.000  C
  H58      1.0000 0.87700  0.07960  0.10990  Biso   1.000  H
  C87      1.0000 0.12280  0.17180  0.06648  Biso   1.000  C
  H59      1.0000 0.16840  0.18390  0.03900  Biso   1.000  H
  C88      1.0000 0.16850  0.20240  0.10301  Biso   1.000  C
  H60      1.0000 0.24530  0.23480  0.10010  Biso   1.000  H
  C89      1.0000 0.43470  0.33630  0.21000  Biso   1.000  C
  C90      1.0000 0.53070  0.38560  0.18828  Biso   1.000  C
  C91      1.0000 0.64020  0.42300  0.21220  Biso   1.000  C
  H61      1.0000 0.65150  0.41880  0.24290  Biso   1.000  H
  C92      1.0000 0.73240  0.46640  0.19120  Biso   1.000  C
  H62      1.0000 0.80770  0.49180  0.20740  Biso   1.000  H
  C93      1.0000 0.71520  0.47280  0.14730  Biso   1.000  C
  H63      1.0000 0.78020  0.50250  0.13320  Biso   1.000  H
  C94      1.0000 0.60490  0.43680  0.12250  Biso   1.000  C
  C95      1.0000 0.51420  0.39260  0.14342  Biso   1.000  C
  H64      1.0000 0.44060  0.36700  0.12700  Biso   1.000  H
  C96      1.0000 0.58230  0.44610  0.07480  Biso   1.000  C
  Ag17     1.0000 0.80464  0.22996  0.70925  Biso   1.000  Ag
  Ag18     1.0000 0.46837  0.55709  0.51580  Biso   1.000  Ag
  O33      1.0000 0.65490  0.30409  0.68590  Biso   1.000  O
  O34      1.0000 0.54670  0.33294  0.75085  Biso   1.000  O
  O35      1.0000 0.51780  0.41203  0.55325  Biso   1.000  O
  O36      1.0000 0.33960  0.48886  0.55844  Biso   1.000  O
  N17      1.0000 0.89250  0.18762  0.64245  Biso   1.000  N
  N18      1.0000 0.98320  0.12580  0.56837  Biso   1.000  N
  C97      1.0000 0.00110  0.14180  0.64460  Biso   1.000  C
  H65      1.0000 0.04860  0.12980  0.67190  Biso   1.000  H
  C98      1.0000 0.04500  0.11170  0.60730  Biso   1.000  C
  H66      1.0000 0.12300  0.07960  0.60990  Biso   1.000  H
  C99      1.0000 0.87720  0.17180  0.56648  Biso   1.000  C
  H67      1.0000 0.83160  0.18390  0.53900  Biso   1.000  H
  C100     1.0000 0.83150  0.20240  0.60301  Biso   1.000  C
  H68      1.0000 0.75470  0.23480  0.60010  Biso   1.000  H
  C101     1.0000 0.56530  0.33630  0.71000  Biso   1.000  C
  C102     1.0000 0.46930  0.38560  0.68828  Biso   1.000  C
  C103     1.0000 0.35980  0.42300  0.71220  Biso   1.000  C
  H69      1.0000 0.34850  0.41880  0.74290  Biso   1.000  H
  C104     1.0000 0.26760  0.46640  0.69120  Biso   1.000  C
  H70      1.0000 0.19230  0.49180  0.70740  Biso   1.000  H
  C105     1.0000 0.28480  0.47280  0.64730  Biso   1.000  C
  H71      1.0000 0.21980  0.50250  0.63320  Biso   1.000  H
  C106     1.0000 0.39510  0.43680  0.62250  Biso   1.000  C
  C107     1.0000 0.48580  0.39260  0.64342  Biso   1.000  C
  H72      1.0000 0.55940  0.36700  0.62700  Biso   1.000  H
  C108     1.0000 0.41770  0.44610  0.57480  Biso   1.000  C
  Ag19     1.0000 0.30464  0.72996  0.20925  Biso   1.000  Ag
  Ag20     1.0000 0.96837  0.05709  0.01580  Biso   1.000  Ag
  O37      1.0000 0.15490  0.80409  0.18590  Biso   1.000  O
  O38      1.0000 0.04670  0.83294  0.25085  Biso   1.000  O
  O39      1.0000 0.01780  0.91203  0.05325  Biso   1.000  O
  O40      1.0000 0.83960  0.98886  0.05844  Biso   1.000  O
  N19      1.0000 0.39250  0.68762  0.14245  Biso   1.000  N
  N20      1.0000 0.48320  0.62580  0.06837  Biso   1.000  N
  C109     1.0000 0.50110  0.64180  0.14460  Biso   1.000  C
  H73      1.0000 0.54860  0.62980  0.17190  Biso   1.000  H
  C110     1.0000 0.54500  0.61170  0.10730  Biso   1.000  C
  H74      1.0000 0.62300  0.57960  0.10990  Biso   1.000  H
  C111     1.0000 0.37720  0.67180  0.06648  Biso   1.000  C
  H75      1.0000 0.33160  0.68390  0.03900  Biso   1.000  H
  C112     1.0000 0.33150  0.70240  0.10301  Biso   1.000  C
  H76      1.0000 0.25470  0.73480  0.10010  Biso   1.000  H
  C113     1.0000 0.06530  0.83630  0.21000  Biso   1.000  C
  C114     1.0000 0.96930  0.88560  0.18828  Biso   1.000  C
  C115     1.0000 0.85980  0.92300  0.21220  Biso   1.000  C
  H77      1.0000 0.84850  0.91880  0.24290  Biso   1.000  H
  C116     1.0000 0.76760  0.96640  0.19120  Biso   1.000  C
  H78      1.0000 0.69230  0.99180  0.20740  Biso   1.000  H
  C117     1.0000 0.78480  0.97280  0.14730  Biso   1.000  C
  H79      1.0000 0.71980  0.00250  0.13320  Biso   1.000  H
  C118     1.0000 0.89510  0.93680  0.12250  Biso   1.000  C
  C119     1.0000 0.98580  0.89260  0.14342  Biso   1.000  C
  H80      1.0000 0.05940  0.86700  0.12700  Biso   1.000  H
  C120     1.0000 0.91770  0.94610  0.07480  Biso   1.000  C
  Ag21     1.0000 0.69536  0.77004  0.20925  Biso   1.000  Ag
  Ag22     1.0000 0.03163  0.44291  0.01580  Biso   1.000  Ag
  O41      1.0000 0.84510  0.69591  0.18590  Biso   1.000  O
  O42      1.0000 0.95330  0.66706  0.25085  Biso   1.000  O
  O43      1.0000 0.98220  0.58797  0.05325  Biso   1.000  O
  O44      1.0000 0.16040  0.51114  0.05844  Biso   1.000  O
  N21      1.0000 0.60750  0.81238  0.14245  Biso   1.000  N
  N22      1.0000 0.51680  0.87420  0.06837  Biso   1.000  N
  C121     1.0000 0.49890  0.85820  0.14460  Biso   1.000  C
  H81      1.0000 0.45140  0.87020  0.17190  Biso   1.000  H
  C122     1.0000 0.45500  0.88830  0.10730  Biso   1.000  C
  H82      1.0000 0.37700  0.92040  0.10990  Biso   1.000  H
  C123     1.0000 0.62280  0.82820  0.06648  Biso   1.000  C
  H83      1.0000 0.66840  0.81610  0.03900  Biso   1.000  H
  C124     1.0000 0.66850  0.79760  0.10301  Biso   1.000  C
  H84      1.0000 0.74530  0.76520  0.10010  Biso   1.000  H
  C125     1.0000 0.93470  0.66370  0.21000  Biso   1.000  C
  C126     1.0000 0.03070  0.61440  0.18828  Biso   1.000  C
  C127     1.0000 0.14020  0.57700  0.21220  Biso   1.000  C
  H85      1.0000 0.15150  0.58120  0.24290  Biso   1.000  H
  C128     1.0000 0.23240  0.53360  0.19120  Biso   1.000  C
  H86      1.0000 0.30770  0.50820  0.20740  Biso   1.000  H
  C129     1.0000 0.21520  0.52720  0.14730  Biso   1.000  C
  H87      1.0000 0.28020  0.49750  0.13320  Biso   1.000  H
  C130     1.0000 0.10490  0.56320  0.12250  Biso   1.000  C
  C131     1.0000 0.01420  0.60740  0.14342  Biso   1.000  C
  H88      1.0000 0.94060  0.63300  0.12700  Biso   1.000  H
  C132     1.0000 0.08230  0.55390  0.07480  Biso   1.000  C
  Ag23     1.0000 0.19536  0.27004  0.70925  Biso   1.000  Ag
  Ag24     1.0000 0.53163  0.94291  0.51580  Biso   1.000  Ag
  O45      1.0000 0.34510  0.19591  0.68590  Biso   1.000  O
  O46      1.0000 0.45330  0.16706  0.75085  Biso   1.000  O
  O47      1.0000 0.48220  0.08797  0.55325  Biso   1.000  O
  O48      1.0000 0.66040  0.01114  0.55844  Biso   1.000  O
  N23      1.0000 0.10750  0.31238  0.64245  Biso   1.000  N
  N24      1.0000 0.01680  0.37420  0.56837  Biso   1.000  N
  C133     1.0000 0.99890  0.35820  0.64460  Biso   1.000  C
  H89      1.0000 0.95140  0.37020  0.67190  Biso   1.000  H
  C134     1.0000 0.95500  0.38830  0.60730  Biso   1.000  C
  H90      1.0000 0.87700  0.42040  0.60990  Biso   1.000  H
  C135     1.0000 0.12280  0.32820  0.56648  Biso   1.000  C
  H91      1.0000 0.16840  0.31610  0.53900  Biso   1.000  H
  C136     1.0000 0.16850  0.29760  0.60301  Biso   1.000  C
  H92      1.0000 0.24530  0.26520  0.60010  Biso   1.000  H
  C137     1.0000 0.43470  0.16370  0.71000  Biso   1.000  C
  C138     1.0000 0.53070  0.11440  0.68828  Biso   1.000  C
  C139     1.0000 0.64020  0.07700  0.71220  Biso   1.000  C
  H93      1.0000 0.65150  0.08120  0.74290  Biso   1.000  H
  C140     1.0000 0.73240  0.03360  0.69120  Biso   1.000  C
  H94      1.0000 0.80770  0.00820  0.70740  Biso   1.000  H
  C141     1.0000 0.71520  0.02720  0.64730  Biso   1.000  C
  H95      1.0000 0.78020  0.99750  0.63320  Biso   1.000  H
  C142     1.0000 0.60490  0.06320  0.62250  Biso   1.000  C
  C143     1.0000 0.51420  0.10740  0.64342  Biso   1.000  C
  H96      1.0000 0.44060  0.13300  0.62700  Biso   1.000  H
  C144     1.0000 0.58230  0.05390  0.57480  Biso   1.000  C
  Ag25     1.0000 0.19536  0.72996  0.79075  Biso   1.000  Ag
  Ag26     1.0000 0.53163  0.05709  0.98420  Biso   1.000  Ag
  O49      1.0000 0.34510  0.80409  0.81410  Biso   1.000  O
  O50      1.0000 0.45330  0.83294  0.74915  Biso   1.000  O
  O51      1.0000 0.48220  0.91203  0.94675  Biso   1.000  O
  O52      1.0000 0.66040  0.98886  0.94156  Biso   1.000  O
  N25      1.0000 0.10750  0.68762  0.85755  Biso   1.000  N
  N26      1.0000 0.01680  0.62580  0.93163  Biso   1.000  N
  C145     1.0000 0.99890  0.64180  0.85540  Biso   1.000  C
  H97      1.0000 0.95140  0.62980  0.82810  Biso   1.000  H
  C146     1.0000 0.95500  0.61170  0.89270  Biso   1.000  C
  H98      1.0000 0.87700  0.57960  0.89010  Biso   1.000  H
  C147     1.0000 0.12280  0.67180  0.93352  Biso   1.000  C
  H99      1.0000 0.16840  0.68390  0.96100  Biso   1.000  H
  C148     1.0000 0.16850  0.70240  0.89699  Biso   1.000  C
  H100     1.0000 0.24530  0.73480  0.89990  Biso   1.000  H
  C149     1.0000 0.43470  0.83630  0.79000  Biso   1.000  C
  C150     1.0000 0.53070  0.88560  0.81172  Biso   1.000  C
  C151     1.0000 0.64020  0.92300  0.78780  Biso   1.000  C
  H101     1.0000 0.65150  0.91880  0.75710  Biso   1.000  H
  C152     1.0000 0.73240  0.96640  0.80880  Biso   1.000  C
  H102     1.0000 0.80770  0.99180  0.79260  Biso   1.000  H
  C153     1.0000 0.71520  0.97280  0.85270  Biso   1.000  C
  H103     1.0000 0.78020  0.00250  0.86680  Biso   1.000  H
  C154     1.0000 0.60490  0.93680  0.87750  Biso   1.000  C
  C155     1.0000 0.51420  0.89260  0.85658  Biso   1.000  C
  H104     1.0000 0.44060  0.86700  0.87300  Biso   1.000  H
  C156     1.0000 0.58230  0.94610  0.92520  Biso   1.000  C
  Ag27     1.0000 0.69536  0.22996  0.29075  Biso   1.000  Ag
  Ag28     1.0000 0.03163  0.55709  0.48420  Biso   1.000  Ag
  O53      1.0000 0.84510  0.30409  0.31410  Biso   1.000  O
  O54      1.0000 0.95330  0.33294  0.24915  Biso   1.000  O
  O55      1.0000 0.98220  0.41203  0.44675  Biso   1.000  O
  O56      1.0000 0.16040  0.48886  0.44156  Biso   1.000  O
  N27      1.0000 0.60750  0.18762  0.35755  Biso   1.000  N
  N28      1.0000 0.51680  0.12580  0.43163  Biso   1.000  N
  C157     1.0000 0.49890  0.14180  0.35540  Biso   1.000  C
  H105     1.0000 0.45140  0.12980  0.32810  Biso   1.000  H
  C158     1.0000 0.45500  0.11170  0.39270  Biso   1.000  C
  H106     1.0000 0.37700  0.07960  0.39010  Biso   1.000  H
  C159     1.0000 0.62280  0.17180  0.43352  Biso   1.000  C
  H107     1.0000 0.66840  0.18390  0.46100  Biso   1.000  H
  C160     1.0000 0.66850  0.20240  0.39699  Biso   1.000  C
  H108     1.0000 0.74530  0.23480  0.39990  Biso   1.000  H
  C161     1.0000 0.93470  0.33630  0.29000  Biso   1.000  C
  C162     1.0000 0.03070  0.38560  0.31172  Biso   1.000  C
  C163     1.0000 0.14020  0.42300  0.28780  Biso   1.000  C
  H109     1.0000 0.15150  0.41880  0.25710  Biso   1.000  H
  C164     1.0000 0.23240  0.46640  0.30880  Biso   1.000  C
  H110     1.0000 0.30770  0.49180  0.29260  Biso   1.000  H
  C165     1.0000 0.21520  0.47280  0.35270  Biso   1.000  C
  H111     1.0000 0.28020  0.50250  0.36680  Biso   1.000  H
  C166     1.0000 0.10490  0.43680  0.37750  Biso   1.000  C
  C167     1.0000 0.01420  0.39260  0.35658  Biso   1.000  C
  H112     1.0000 0.94060  0.36700  0.37300  Biso   1.000  H
  C168     1.0000 0.08230  0.44610  0.42520  Biso   1.000  C
  Ag29     1.0000 0.30464  0.27004  0.29075  Biso   1.000  Ag
  Ag30     1.0000 0.96837  0.94291  0.48420  Biso   1.000  Ag
  O57      1.0000 0.15490  0.19591  0.31410  Biso   1.000  O
  O58      1.0000 0.04670  0.16706  0.24915  Biso   1.000  O
  O59      1.0000 0.01780  0.08797  0.44675  Biso   1.000  O
  O60      1.0000 0.83960  0.01114  0.44156  Biso   1.000  O
  N29      1.0000 0.39250  0.31238  0.35755  Biso   1.000  N
  N30      1.0000 0.48320  0.37420  0.43163  Biso   1.000  N
  C169     1.0000 0.50110  0.35820  0.35540  Biso   1.000  C
  H113     1.0000 0.54860  0.37020  0.32810  Biso   1.000  H
  C170     1.0000 0.54500  0.38830  0.39270  Biso   1.000  C
  H114     1.0000 0.62300  0.42040  0.39010  Biso   1.000  H
  C171     1.0000 0.37720  0.32820  0.43352  Biso   1.000  C
  H115     1.0000 0.33160  0.31610  0.46100  Biso   1.000  H
  C172     1.0000 0.33150  0.29760  0.39699  Biso   1.000  C
  H116     1.0000 0.25470  0.26520  0.39990  Biso   1.000  H
  C173     1.0000 0.06530  0.16370  0.29000  Biso   1.000  C
  C174     1.0000 0.96930  0.11440  0.31172  Biso   1.000  C
  C175     1.0000 0.85980  0.07700  0.28780  Biso   1.000  C
  H117     1.0000 0.84850  0.08120  0.25710  Biso   1.000  H
  C176     1.0000 0.76760  0.03360  0.30880  Biso   1.000  C
  H118     1.0000 0.69230  0.00820  0.29260  Biso   1.000  H
  C177     1.0000 0.78480  0.02720  0.35270  Biso   1.000  C
  H119     1.0000 0.71980  0.99750  0.36680  Biso   1.000  H
  C178     1.0000 0.89510  0.06320  0.37750  Biso   1.000  C
  C179     1.0000 0.98580  0.10740  0.35658  Biso   1.000  C
  H120     1.0000 0.05940  0.13300  0.37300  Biso   1.000  H
  C180     1.0000 0.91770  0.05390  0.42520  Biso   1.000  C
  Ag31     1.0000 0.80464  0.77004  0.79075  Biso   1.000  Ag
  Ag32     1.0000 0.46837  0.44291  0.98420  Biso   1.000  Ag
  O61      1.0000 0.65490  0.69591  0.81410  Biso   1.000  O
  O62      1.0000 0.54670  0.66706  0.74915  Biso   1.000  O
  O63      1.0000 0.51780  0.58797  0.94675  Biso   1.000  O
  O64      1.0000 0.33960  0.51114  0.94156  Biso   1.000  O
  N31      1.0000 0.89250  0.81238  0.85755  Biso   1.000  N
  N32      1.0000 0.98320  0.87420  0.93163  Biso   1.000  N
  C181     1.0000 0.00110  0.85820  0.85540  Biso   1.000  C
  H121     1.0000 0.04860  0.87020  0.82810  Biso   1.000  H
  C182     1.0000 0.04500  0.88830  0.89270  Biso   1.000  C
  H122     1.0000 0.12300  0.92040  0.89010  Biso   1.000  H
  C183     1.0000 0.87720  0.82820  0.93352  Biso   1.000  C
  H123     1.0000 0.83160  0.81610  0.96100  Biso   1.000  H
  C184     1.0000 0.83150  0.79760  0.89699  Biso   1.000  C
  H124     1.0000 0.75470  0.76520  0.89990  Biso   1.000  H
  C185     1.0000 0.56530  0.66370  0.79000  Biso   1.000  C
  C186     1.0000 0.46930  0.61440  0.81172  Biso   1.000  C
  C187     1.0000 0.35980  0.57700  0.78780  Biso   1.000  C
  H125     1.0000 0.34850  0.58120  0.75710  Biso   1.000  H
  C188     1.0000 0.26760  0.53360  0.80880  Biso   1.000  C
  H126     1.0000 0.19230  0.50820  0.79260  Biso   1.000  H
  C189     1.0000 0.28480  0.52720  0.85270  Biso   1.000  C
  H127     1.0000 0.21980  0.49750  0.86680  Biso   1.000  H
  C190     1.0000 0.39510  0.56320  0.87750  Biso   1.000  C
  C191     1.0000 0.48580  0.60740  0.85658  Biso   1.000  C
  H128     1.0000 0.55940  0.63300  0.87300  Biso   1.000  H
  C192     1.0000 0.41770  0.55390  0.92520  Biso   1.000  C
