data_image0
_cell_length_a       7.235
_cell_length_b       23.711
_cell_length_c       30.53
_cell_angle_alpha    90
_cell_angle_beta     90
_cell_angle_gamma    90

_symmetry_space_group_name_H-M    "P 1"
_symmetry_int_tables_number       1

loop_
  _symmetry_equiv_pos_as_xyz
  'x, y, z'

loop_
  _atom_site_label
  _atom_site_occupancy
  _atom_site_fract_x
  _atom_site_fract_y
  _atom_site_fract_z
  _atom_site_thermal_displace_type
  _atom_site_B_iso_or_equiv
  _atom_site_type_symbol
  Ag1      1.0000 0.19517  0.77006  0.29060  Biso   1.000  Ag
  Ag2      1.0000 0.52360  0.44216  0.48393  Biso   1.000  Ag
  O1       1.0000 0.34090  0.69581  0.31393  Biso   1.000  O
  O2       1.0000 0.45080  0.66791  0.24989  Biso   1.000  O
  O3       1.0000 0.47460  0.58778  0.44631  Biso   1.000  O
  O4       1.0000 0.65170  0.51231  0.44193  Biso   1.000  O
  N1       1.0000 0.11000  0.81285  0.35761  Biso   1.000  N
  N2       1.0000 0.02270  0.87410  0.43130  Biso   1.000  N
  C1       1.0000 0.00330  0.85824  0.35575  Biso   1.000  C
  H1       1.0000 0.95620  0.87000  0.32860  Biso   1.000  H
  C2       1.0000 0.96070  0.88820  0.39250  Biso   1.000  C
  H2       1.0000 0.88400  0.92000  0.38990  Biso   1.000  H
  C3       1.0000 0.12810  0.82840  0.43294  Biso   1.000  C
  H3       1.0000 0.17440  0.81660  0.46020  Biso   1.000  H
  C4       1.0000 0.17140  0.79810  0.39676  Biso   1.000  C
  H4       1.0000 0.24640  0.76590  0.39950  Biso   1.000  H
  C5       1.0000 0.43120  0.66370  0.29035  Biso   1.000  C
  C6       1.0000 0.52450  0.61473  0.31207  Biso   1.000  C
  C7       1.0000 0.63170  0.57780  0.28845  Biso   1.000  C
  H5       1.0000 0.64310  0.58220  0.25800  Biso   1.000  H
  C8       1.0000 0.72270  0.53420  0.30917  Biso   1.000  C
  H6       1.0000 0.79640  0.50920  0.29290  Biso   1.000  H
  C9       1.0000 0.70570  0.52750  0.35312  Biso   1.000  C
  H7       1.0000 0.76910  0.49790  0.36710  Biso   1.000  H
  C10      1.0000 0.59670  0.56331  0.37764  Biso   1.000  C
  C11      1.0000 0.50710  0.60719  0.35659  Biso   1.000  C
  H8       1.0000 0.43350  0.63220  0.37290  Biso   1.000  H
  C12      1.0000 0.57290  0.55400  0.42550  Biso   1.000  C
  Ag3      1.0000 0.69517  0.27006  0.79060  Biso   1.000  Ag
  Ag4      1.0000 0.02360  0.94216  0.98393  Biso   1.000  Ag
  O5       1.0000 0.84090  0.19581  0.81393  Biso   1.000  O
  O6       1.0000 0.95080  0.16791  0.74989  Biso   1.000  O
  O7       1.0000 0.97460  0.08778  0.94631  Biso   1.000  O
  O8       1.0000 0.15170  0.01231  0.94193  Biso   1.000  O
  N3       1.0000 0.61000  0.31285  0.85761  Biso   1.000  N
  N4       1.0000 0.52270  0.37410  0.93130  Biso   1.000  N
  C13      1.0000 0.50330  0.35824  0.85575  Biso   1.000  C
  H9       1.0000 0.45620  0.37000  0.82860  Biso   1.000  H
  C14      1.0000 0.46070  0.38820  0.89250  Biso   1.000  C
  H10      1.0000 0.38400  0.42000  0.88990  Biso   1.000  H
  C15      1.0000 0.62810  0.32840  0.93294  Biso   1.000  C
  H11      1.0000 0.67440  0.31660  0.96020  Biso   1.000  H
  C16      1.0000 0.67140  0.29810  0.89676  Biso   1.000  C
  H12      1.0000 0.74640  0.26590  0.89950  Biso   1.000  H
  C17      1.0000 0.93120  0.16370  0.79035  Biso   1.000  C
  C18      1.0000 0.02450  0.11473  0.81207  Biso   1.000  C
  C19      1.0000 0.13170  0.07780  0.78845  Biso   1.000  C
  H13      1.0000 0.14310  0.08220  0.75800  Biso   1.000  H
  C20      1.0000 0.22270  0.03420  0.80917  Biso   1.000  C
  H14      1.0000 0.29640  0.00920  0.79290  Biso   1.000  H
  C21      1.0000 0.20570  0.02750  0.85312  Biso   1.000  C
  H15      1.0000 0.26910  0.99790  0.86710  Biso   1.000  H
  C22      1.0000 0.09670  0.06331  0.87764  Biso   1.000  C
  C23      1.0000 0.00710  0.10719  0.85659  Biso   1.000  C
  H16      1.0000 0.93350  0.13220  0.87290  Biso   1.000  H
  C24      1.0000 0.07290  0.05400  0.92550  Biso   1.000  C
  Ag5      1.0000 0.30483  0.22994  0.79060  Biso   1.000  Ag
  Ag6      1.0000 0.97640  0.55784  0.98393  Biso   1.000  Ag
  O9       1.0000 0.15910  0.30419  0.81393  Biso   1.000  O
  O10      1.0000 0.04920  0.33209  0.74989  Biso   1.000  O
  O11      1.0000 0.02540  0.41222  0.94631  Biso   1.000  O
  O12      1.0000 0.84830  0.48769  0.94193  Biso   1.000  O
  N5       1.0000 0.39000  0.18715  0.85761  Biso   1.000  N
  N6       1.0000 0.47730  0.12590  0.93130  Biso   1.000  N
  C25      1.0000 0.49670  0.14176  0.85575  Biso   1.000  C
  H17      1.0000 0.54380  0.13000  0.82860  Biso   1.000  H
  C26      1.0000 0.53930  0.11180  0.89250  Biso   1.000  C
  H18      1.0000 0.61600  0.08000  0.88990  Biso   1.000  H
  C27      1.0000 0.37190  0.17160  0.93294  Biso   1.000  C
  H19      1.0000 0.32560  0.18340  0.96020  Biso   1.000  H
  C28      1.0000 0.32860  0.20190  0.89676  Biso   1.000  C
  H20      1.0000 0.25360  0.23410  0.89950  Biso   1.000  H
  C29      1.0000 0.06880  0.33630  0.79035  Biso   1.000  C
  C30      1.0000 0.97550  0.38527  0.81207  Biso   1.000  C
  C31      1.0000 0.86830  0.42220  0.78845  Biso   1.000  C
  H21      1.0000 0.85690  0.41780  0.75800  Biso   1.000  H
  C32      1.0000 0.77730  0.46580  0.80917  Biso   1.000  C
  H22      1.0000 0.70360  0.49080  0.79290  Biso   1.000  H
  C33      1.0000 0.79430  0.47250  0.85312  Biso   1.000  C
  H23      1.0000 0.73090  0.50210  0.86710  Biso   1.000  H
  C34      1.0000 0.90330  0.43669  0.87764  Biso   1.000  C
  C35      1.0000 0.99290  0.39281  0.85659  Biso   1.000  C
  H24      1.0000 0.06650  0.36780  0.87290  Biso   1.000  H
  C36      1.0000 0.92710  0.44600  0.92550  Biso   1.000  C
  Ag7      1.0000 0.80483  0.72994  0.29060  Biso   1.000  Ag
  Ag8      1.0000 0.47640  0.05784  0.48393  Biso   1.000  Ag
  O13      1.0000 0.65910  0.80419  0.31393  Biso   1.000  O
  O14      1.0000 0.54920  0.83209  0.24989  Biso   1.000  O
  O15      1.0000 0.52540  0.91222  0.44631  Biso   1.000  O
  O16      1.0000 0.34830  0.98769  0.44193  Biso   1.000  O
  N7       1.0000 0.89000  0.68715  0.35761  Biso   1.000  N
  N8       1.0000 0.97730  0.62590  0.43130  Biso   1.000  N
  C37      1.0000 0.99670  0.64176  0.35575  Biso   1.000  C
  H25      1.0000 0.04380  0.63000  0.32860  Biso   1.000  H
  C38      1.0000 0.03930  0.61180  0.39250  Biso   1.000  C
  H26      1.0000 0.11600  0.58000  0.38990  Biso   1.000  H
  C39      1.0000 0.87190  0.67160  0.43294  Biso   1.000  C
  H27      1.0000 0.82560  0.68340  0.46020  Biso   1.000  H
  C40      1.0000 0.82860  0.70190  0.39676  Biso   1.000  C
  H28      1.0000 0.75360  0.73410  0.39950  Biso   1.000  H
  C41      1.0000 0.56880  0.83630  0.29035  Biso   1.000  C
  C42      1.0000 0.47550  0.88527  0.31207  Biso   1.000  C
  C43      1.0000 0.36830  0.92220  0.28845  Biso   1.000  C
  H29      1.0000 0.35690  0.91780  0.25800  Biso   1.000  H
  C44      1.0000 0.27730  0.96580  0.30917  Biso   1.000  C
  H30      1.0000 0.20360  0.99080  0.29290  Biso   1.000  H
  C45      1.0000 0.29430  0.97250  0.35312  Biso   1.000  C
  H31      1.0000 0.23090  0.00210  0.36710  Biso   1.000  H
  C46      1.0000 0.40330  0.93669  0.37764  Biso   1.000  C
  C47      1.0000 0.49290  0.89281  0.35659  Biso   1.000  C
  H32      1.0000 0.56650  0.86780  0.37290  Biso   1.000  H
  C48      1.0000 0.42710  0.94600  0.42550  Biso   1.000  C
  Ag9      1.0000 0.80483  0.27006  0.20940  Biso   1.000  Ag
  Ag10     1.0000 0.47640  0.94216  0.01607  Biso   1.000  Ag
  O17      1.0000 0.65910  0.19581  0.18607  Biso   1.000  O
  O18      1.0000 0.54920  0.16791  0.25011  Biso   1.000  O
  O19      1.0000 0.52540  0.08778  0.05369  Biso   1.000  O
  O20      1.0000 0.34830  0.01231  0.05807  Biso   1.000  O
  N9       1.0000 0.89000  0.31285  0.14239  Biso   1.000  N
  N10      1.0000 0.97730  0.37410  0.06870  Biso   1.000  N
  C49      1.0000 0.99670  0.35824  0.14425  Biso   1.000  C
  H33      1.0000 0.04380  0.37000  0.17140  Biso   1.000  H
  C50      1.0000 0.03930  0.38820  0.10750  Biso   1.000  C
  H34      1.0000 0.11600  0.42000  0.11010  Biso   1.000  H
  C51      1.0000 0.87190  0.32840  0.06706  Biso   1.000  C
  H35      1.0000 0.82560  0.31660  0.03980  Biso   1.000  H
  C52      1.0000 0.82860  0.29810  0.10324  Biso   1.000  C
  H36      1.0000 0.75360  0.26590  0.10050  Biso   1.000  H
  C53      1.0000 0.56880  0.16370  0.20965  Biso   1.000  C
  C54      1.0000 0.47550  0.11473  0.18793  Biso   1.000  C
  C55      1.0000 0.36830  0.07780  0.21155  Biso   1.000  C
  H37      1.0000 0.35690  0.08220  0.24200  Biso   1.000  H
  C56      1.0000 0.27730  0.03420  0.19083  Biso   1.000  C
  H38      1.0000 0.20360  0.00920  0.20710  Biso   1.000  H
  C57      1.0000 0.29430  0.02750  0.14688  Biso   1.000  C
  H39      1.0000 0.23090  0.99790  0.13290  Biso   1.000  H
  C58      1.0000 0.40330  0.06331  0.12236  Biso   1.000  C
  C59      1.0000 0.49290  0.10719  0.14341  Biso   1.000  C
  H40      1.0000 0.56650  0.13220  0.12710  Biso   1.000  H
  C60      1.0000 0.42710  0.05400  0.07450  Biso   1.000  C
  Ag11     1.0000 0.30483  0.77006  0.70940  Biso   1.000  Ag
  Ag12     1.0000 0.97640  0.44216  0.51607  Biso   1.000  Ag
  O21      1.0000 0.15910  0.69581  0.68607  Biso   1.000  O
  O22      1.0000 0.04920  0.66791  0.75011  Biso   1.000  O
  O23      1.0000 0.02540  0.58778  0.55369  Biso   1.000  O
  O24      1.0000 0.84830  0.51231  0.55807  Biso   1.000  O
  N11      1.0000 0.39000  0.81285  0.64239  Biso   1.000  N
  N12      1.0000 0.47730  0.87410  0.56870  Biso   1.000  N
  C61      1.0000 0.49670  0.85824  0.64425  Biso   1.000  C
  H41      1.0000 0.54380  0.87000  0.67140  Biso   1.000  H
  C62      1.0000 0.53930  0.88820  0.60750  Biso   1.000  C
  H42      1.0000 0.61600  0.92000  0.61010  Biso   1.000  H
  C63      1.0000 0.37190  0.82840  0.56706  Biso   1.000  C
  H43      1.0000 0.32560  0.81660  0.53980  Biso   1.000  H
  C64      1.0000 0.32860  0.79810  0.60324  Biso   1.000  C
  H44      1.0000 0.25360  0.76590  0.60050  Biso   1.000  H
  C65      1.0000 0.06880  0.66370  0.70965  Biso   1.000  C
  C66      1.0000 0.97550  0.61473  0.68793  Biso   1.000  C
  C67      1.0000 0.86830  0.57780  0.71155  Biso   1.000  C
  H45      1.0000 0.85690  0.58220  0.74200  Biso   1.000  H
  C68      1.0000 0.77730  0.53420  0.69083  Biso   1.000  C
  H46      1.0000 0.70360  0.50920  0.70710  Biso   1.000  H
  C69      1.0000 0.79430  0.52750  0.64688  Biso   1.000  C
  H47      1.0000 0.73090  0.49790  0.63290  Biso   1.000  H
  C70      1.0000 0.90330  0.56331  0.62236  Biso   1.000  C
  C71      1.0000 0.99290  0.60719  0.64341  Biso   1.000  C
  H48      1.0000 0.06650  0.63220  0.62710  Biso   1.000  H
  C72      1.0000 0.92710  0.55400  0.57450  Biso   1.000  C
  Ag13     1.0000 0.69517  0.72994  0.70940  Biso   1.000  Ag
  Ag14     1.0000 0.02360  0.05784  0.51607  Biso   1.000  Ag
  O25      1.0000 0.84090  0.80419  0.68607  Biso   1.000  O
  O26      1.0000 0.95080  0.83209  0.75011  Biso   1.000  O
  O27      1.0000 0.97460  0.91222  0.55369  Biso   1.000  O
  O28      1.0000 0.15170  0.98769  0.55807  Biso   1.000  O
  N13      1.0000 0.61000  0.68715  0.64239  Biso   1.000  N
  N14      1.0000 0.52270  0.62590  0.56870  Biso   1.000  N
  C73      1.0000 0.50330  0.64176  0.64425  Biso   1.000  C
  H49      1.0000 0.45620  0.63000  0.67140  Biso   1.000  H
  C74      1.0000 0.46070  0.61180  0.60750  Biso   1.000  C
  H50      1.0000 0.38400  0.58000  0.61010  Biso   1.000  H
  C75      1.0000 0.62810  0.67160  0.56706  Biso   1.000  C
  H51      1.0000 0.67440  0.68340  0.53980  Biso   1.000  H
  C76      1.0000 0.67140  0.70190  0.60324  Biso   1.000  C
  H52      1.0000 0.74640  0.73410  0.60050  Biso   1.000  H
  C77      1.0000 0.93120  0.83630  0.70965  Biso   1.000  C
  C78      1.0000 0.02450  0.88527  0.68793  Biso   1.000  C
  C79      1.0000 0.13170  0.92220  0.71155  Biso   1.000  C
  H53      1.0000 0.14310  0.91780  0.74200  Biso   1.000  H
  C80      1.0000 0.22270  0.96580  0.69083  Biso   1.000  C
  H54      1.0000 0.29640  0.99080  0.70710  Biso   1.000  H
  C81      1.0000 0.20570  0.97250  0.64688  Biso   1.000  C
  H55      1.0000 0.26910  0.00210  0.63290  Biso   1.000  H
  C82      1.0000 0.09670  0.93669  0.62236  Biso   1.000  C
  C83      1.0000 0.00710  0.89281  0.64341  Biso   1.000  C
  H56      1.0000 0.93350  0.86780  0.62710  Biso   1.000  H
  C84      1.0000 0.07290  0.94600  0.57450  Biso   1.000  C
  Ag15     1.0000 0.19517  0.22994  0.20940  Biso   1.000  Ag
  Ag16     1.0000 0.52360  0.55784  0.01607  Biso   1.000  Ag
  O29      1.0000 0.34090  0.30419  0.18607  Biso   1.000  O
  O30      1.0000 0.45080  0.33209  0.25011  Biso   1.000  O
  O31      1.0000 0.47460  0.41222  0.05369  Biso   1.000  O
  O32      1.0000 0.65170  0.48769  0.05807  Biso   1.000  O
  N15      1.0000 0.11000  0.18715  0.14239  Biso   1.000  N
  N16      1.0000 0.02270  0.12590  0.06870  Biso   1.000  N
  C85      1.0000 0.00330  0.14176  0.14425  Biso   1.000  C
  H57      1.0000 0.95620  0.13000  0.17140  Biso   1.000  H
  C86      1.0000 0.96070  0.11180  0.10750  Biso   1.000  C
  H58      1.0000 0.88400  0.08000  0.11010  Biso   1.000  H
  C87      1.0000 0.12810  0.17160  0.06706  Biso   1.000  C
  H59      1.0000 0.17440  0.18340  0.03980  Biso   1.000  H
  C88      1.0000 0.17140  0.20190  0.10324  Biso   1.000  C
  H60      1.0000 0.24640  0.23410  0.10050  Biso   1.000  H
  C89      1.0000 0.43120  0.33630  0.20965  Biso   1.000  C
  C90      1.0000 0.52450  0.38527  0.18793  Biso   1.000  C
  C91      1.0000 0.63170  0.42220  0.21155  Biso   1.000  C
  H61      1.0000 0.64310  0.41780  0.24200  Biso   1.000  H
  C92      1.0000 0.72270  0.46580  0.19083  Biso   1.000  C
  H62      1.0000 0.79640  0.49080  0.20710  Biso   1.000  H
  C93      1.0000 0.70570  0.47250  0.14688  Biso   1.000  C
  H63      1.0000 0.76910  0.50210  0.13290  Biso   1.000  H
  C94      1.0000 0.59670  0.43669  0.12236  Biso   1.000  C
  C95      1.0000 0.50710  0.39281  0.14341  Biso   1.000  C
  H64      1.0000 0.43350  0.36780  0.12710  Biso   1.000  H
  C96      1.0000 0.57290  0.44600  0.07450  Biso   1.000  C
  Ag17     1.0000 0.80483  0.22994  0.70940  Biso   1.000  Ag
  Ag18     1.0000 0.47640  0.55784  0.51607  Biso   1.000  Ag
  O33      1.0000 0.65910  0.30419  0.68607  Biso   1.000  O
  O34      1.0000 0.54920  0.33209  0.75011  Biso   1.000  O
  O35      1.0000 0.52540  0.41222  0.55369  Biso   1.000  O
  O36      1.0000 0.34830  0.48769  0.55807  Biso   1.000  O
  N17      1.0000 0.89000  0.18715  0.64239  Biso   1.000  N
  N18      1.0000 0.97730  0.12590  0.56870  Biso   1.000  N
  C97      1.0000 0.99670  0.14176  0.64425  Biso   1.000  C
  H65      1.0000 0.04380  0.13000  0.67140  Biso   1.000  H
  C98      1.0000 0.03930  0.11180  0.60750  Biso   1.000  C
  H66      1.0000 0.11600  0.08000  0.61010  Biso   1.000  H
  C99      1.0000 0.87190  0.17160  0.56706  Biso   1.000  C
  H67      1.0000 0.82560  0.18340  0.53980  Biso   1.000  H
  C100     1.0000 0.82860  0.20190  0.60324  Biso   1.000  C
  H68      1.0000 0.75360  0.23410  0.60050  Biso   1.000  H
  C101     1.0000 0.56880  0.33630  0.70965  Biso   1.000  C
  C102     1.0000 0.47550  0.38527  0.68793  Biso   1.000  C
  C103     1.0000 0.36830  0.42220  0.71155  Biso   1.000  C
  H69      1.0000 0.35690  0.41780  0.74200  Biso   1.000  H
  C104     1.0000 0.27730  0.46580  0.69083  Biso   1.000  C
  H70      1.0000 0.20360  0.49080  0.70710  Biso   1.000  H
  C105     1.0000 0.29430  0.47250  0.64688  Biso   1.000  C
  H71      1.0000 0.23090  0.50210  0.63290  Biso   1.000  H
  C106     1.0000 0.40330  0.43669  0.62236  Biso   1.000  C
  C107     1.0000 0.49290  0.39281  0.64341  Biso   1.000  C
  H72      1.0000 0.56650  0.36780  0.62710  Biso   1.000  H
  C108     1.0000 0.42710  0.44600  0.57450  Biso   1.000  C
  Ag19     1.0000 0.30483  0.72994  0.20940  Biso   1.000  Ag
  Ag20     1.0000 0.97640  0.05784  0.01607  Biso   1.000  Ag
  O37      1.0000 0.15910  0.80419  0.18607  Biso   1.000  O
  O38      1.0000 0.04920  0.83209  0.25011  Biso   1.000  O
  O39      1.0000 0.02540  0.91222  0.05369  Biso   1.000  O
  O40      1.0000 0.84830  0.98769  0.05807  Biso   1.000  O
  N19      1.0000 0.39000  0.68715  0.14239  Biso   1.000  N
  N20      1.0000 0.47730  0.62590  0.06870  Biso   1.000  N
  C109     1.0000 0.49670  0.64176  0.14425  Biso   1.000  C
  H73      1.0000 0.54380  0.63000  0.17140  Biso   1.000  H
  C110     1.0000 0.53930  0.61180  0.10750  Biso   1.000  C
  H74      1.0000 0.61600  0.58000  0.11010  Biso   1.000  H
  C111     1.0000 0.37190  0.67160  0.06706  Biso   1.000  C
  H75      1.0000 0.32560  0.68340  0.03980  Biso   1.000  H
  C112     1.0000 0.32860  0.70190  0.10324  Biso   1.000  C
  H76      1.0000 0.25360  0.73410  0.10050  Biso   1.000  H
  C113     1.0000 0.06880  0.83630  0.20965  Biso   1.000  C
  C114     1.0000 0.97550  0.88527  0.18793  Biso   1.000  C
  C115     1.0000 0.86830  0.92220  0.21155  Biso   1.000  C
  H77      1.0000 0.85690  0.91780  0.24200  Biso   1.000  H
  C116     1.0000 0.77730  0.96580  0.19083  Biso   1.000  C
  H78      1.0000 0.70360  0.99080  0.20710  Biso   1.000  H
  C117     1.0000 0.79430  0.97250  0.14688  Biso   1.000  C
  H79      1.0000 0.73090  0.00210  0.13290  Biso   1.000  H
  C118     1.0000 0.90330  0.93669  0.12236  Biso   1.000  C
  C119     1.0000 0.99290  0.89281  0.14341  Biso   1.000  C
  H80      1.0000 0.06650  0.86780  0.12710  Biso   1.000  H
  C120     1.0000 0.92710  0.94600  0.07450  Biso   1.000  C
  Ag21     1.0000 0.69517  0.77006  0.20940  Biso   1.000  Ag
  Ag22     1.0000 0.02360  0.44216  0.01607  Biso   1.000  Ag
  O41      1.0000 0.84090  0.69581  0.18607  Biso   1.000  O
  O42      1.0000 0.95080  0.66791  0.25011  Biso   1.000  O
  O43      1.0000 0.97460  0.58778  0.05369  Biso   1.000  O
  O44      1.0000 0.15170  0.51231  0.05807  Biso   1.000  O
  N21      1.0000 0.61000  0.81285  0.14239  Biso   1.000  N
  N22      1.0000 0.52270  0.87410  0.06870  Biso   1.000  N
  C121     1.0000 0.50330  0.85824  0.14425  Biso   1.000  C
  H81      1.0000 0.45620  0.87000  0.17140  Biso   1.000  H
  C122     1.0000 0.46070  0.88820  0.10750  Biso   1.000  C
  H82      1.0000 0.38400  0.92000  0.11010  Biso   1.000  H
  C123     1.0000 0.62810  0.82840  0.06706  Biso   1.000  C
  H83      1.0000 0.67440  0.81660  0.03980  Biso   1.000  H
  C124     1.0000 0.67140  0.79810  0.10324  Biso   1.000  C
  H84      1.0000 0.74640  0.76590  0.10050  Biso   1.000  H
  C125     1.0000 0.93120  0.66370  0.20965  Biso   1.000  C
  C126     1.0000 0.02450  0.61473  0.18793  Biso   1.000  C
  C127     1.0000 0.13170  0.57780  0.21155  Biso   1.000  C
  H85      1.0000 0.14310  0.58220  0.24200  Biso   1.000  H
  C128     1.0000 0.22270  0.53420  0.19083  Biso   1.000  C
  H86      1.0000 0.29640  0.50920  0.20710  Biso   1.000  H
  C129     1.0000 0.20570  0.52750  0.14688  Biso   1.000  C
  H87      1.0000 0.26910  0.49790  0.13290  Biso   1.000  H
  C130     1.0000 0.09670  0.56331  0.12236  Biso   1.000  C
  C131     1.0000 0.00710  0.60719  0.14341  Biso   1.000  C
  H88      1.0000 0.93350  0.63220  0.12710  Biso   1.000  H
  C132     1.0000 0.07290  0.55400  0.07450  Biso   1.000  C
  Ag23     1.0000 0.19517  0.27006  0.70940  Biso   1.000  Ag
  Ag24     1.0000 0.52360  0.94216  0.51607  Biso   1.000  Ag
  O45      1.0000 0.34090  0.19581  0.68607  Biso   1.000  O
  O46      1.0000 0.45080  0.16791  0.75011  Biso   1.000  O
  O47      1.0000 0.47460  0.08778  0.55369  Biso   1.000  O
  O48      1.0000 0.65170  0.01231  0.55807  Biso   1.000  O
  N23      1.0000 0.11000  0.31285  0.64239  Biso   1.000  N
  N24      1.0000 0.02270  0.37410  0.56870  Biso   1.000  N
  C133     1.0000 0.00330  0.35824  0.64425  Biso   1.000  C
  H89      1.0000 0.95620  0.37000  0.67140  Biso   1.000  H
  C134     1.0000 0.96070  0.38820  0.60750  Biso   1.000  C
  H90      1.0000 0.88400  0.42000  0.61010  Biso   1.000  H
  C135     1.0000 0.12810  0.32840  0.56706  Biso   1.000  C
  H91      1.0000 0.17440  0.31660  0.53980  Biso   1.000  H
  C136     1.0000 0.17140  0.29810  0.60324  Biso   1.000  C
  H92      1.0000 0.24640  0.26590  0.60050  Biso   1.000  H
  C137     1.0000 0.43120  0.16370  0.70965  Biso   1.000  C
  C138     1.0000 0.52450  0.11473  0.68793  Biso   1.000  C
  C139     1.0000 0.63170  0.07780  0.71155  Biso   1.000  C
  H93      1.0000 0.64310  0.08220  0.74200  Biso   1.000  H
  C140     1.0000 0.72270  0.03420  0.69083  Biso   1.000  C
  H94      1.0000 0.79640  0.00920  0.70710  Biso   1.000  H
  C141     1.0000 0.70570  0.02750  0.64688  Biso   1.000  C
  H95      1.0000 0.76910  0.99790  0.63290  Biso   1.000  H
  C142     1.0000 0.59670  0.06331  0.62236  Biso   1.000  C
  C143     1.0000 0.50710  0.10719  0.64341  Biso   1.000  C
  H96      1.0000 0.43350  0.13220  0.62710  Biso   1.000  H
  C144     1.0000 0.57290  0.05400  0.57450  Biso   1.000  C
  Ag25     1.0000 0.19517  0.72994  0.79060  Biso   1.000  Ag
  Ag26     1.0000 0.52360  0.05784  0.98393  Biso   1.000  Ag
  O49      1.0000 0.34090  0.80419  0.81393  Biso   1.000  O
  O50      1.0000 0.45080  0.83209  0.74989  Biso   1.000  O
  O51      1.0000 0.47460  0.91222  0.94631  Biso   1.000  O
  O52      1.0000 0.65170  0.98769  0.94193  Biso   1.000  O
  N25      1.0000 0.11000  0.68715  0.85761  Biso   1.000  N
  N26      1.0000 0.02270  0.62590  0.93130  Biso   1.000  N
  C145     1.0000 0.00330  0.64176  0.85575  Biso   1.000  C
  H97      1.0000 0.95620  0.63000  0.82860  Biso   1.000  H
  C146     1.0000 0.96070  0.61180  0.89250  Biso   1.000  C
  H98      1.0000 0.88400  0.58000  0.88990  Biso   1.000  H
  C147     1.0000 0.12810  0.67160  0.93294  Biso   1.000  C
  H99      1.0000 0.17440  0.68340  0.96020  Biso   1.000  H
  C148     1.0000 0.17140  0.70190  0.89676  Biso   1.000  C
  H100     1.0000 0.24640  0.73410  0.89950  Biso   1.000  H
  C149     1.0000 0.43120  0.83630  0.79035  Biso   1.000  C
  C150     1.0000 0.52450  0.88527  0.81207  Biso   1.000  C
  C151     1.0000 0.63170  0.92220  0.78845  Biso   1.000  C
  H101     1.0000 0.64310  0.91780  0.75800  Biso   1.000  H
  C152     1.0000 0.72270  0.96580  0.80917  Biso   1.000  C
  H102     1.0000 0.79640  0.99080  0.79290  Biso   1.000  H
  C153     1.0000 0.70570  0.97250  0.85312  Biso   1.000  C
  H103     1.0000 0.76910  0.00210  0.86710  Biso   1.000  H
  C154     1.0000 0.59670  0.93669  0.87764  Biso   1.000  C
  C155     1.0000 0.50710  0.89281  0.85659  Biso   1.000  C
  H104     1.0000 0.43350  0.86780  0.87290  Biso   1.000  H
  C156     1.0000 0.57290  0.94600  0.92550  Biso   1.000  C
  Ag27     1.0000 0.69517  0.22994  0.29060  Biso   1.000  Ag
  Ag28     1.0000 0.02360  0.55784  0.48393  Biso   1.000  Ag
  O53      1.0000 0.84090  0.30419  0.31393  Biso   1.000  O
  O54      1.0000 0.95080  0.33209  0.24989  Biso   1.000  O
  O55      1.0000 0.97460  0.41222  0.44631  Biso   1.000  O
  O56      1.0000 0.15170  0.48769  0.44193  Biso   1.000  O
  N27      1.0000 0.61000  0.18715  0.35761  Biso   1.000  N
  N28      1.0000 0.52270  0.12590  0.43130  Biso   1.000  N
  C157     1.0000 0.50330  0.14176  0.35575  Biso   1.000  C
  H105     1.0000 0.45620  0.13000  0.32860  Biso   1.000  H
  C158     1.0000 0.46070  0.11180  0.39250  Biso   1.000  C
  H106     1.0000 0.38400  0.08000  0.38990  Biso   1.000  H
  C159     1.0000 0.62810  0.17160  0.43294  Biso   1.000  C
  H107     1.0000 0.67440  0.18340  0.46020  Biso   1.000  H
  C160     1.0000 0.67140  0.20190  0.39676  Biso   1.000  C
  H108     1.0000 0.74640  0.23410  0.39950  Biso   1.000  H
  C161     1.0000 0.93120  0.33630  0.29035  Biso   1.000  C
  C162     1.0000 0.02450  0.38527  0.31207  Biso   1.000  C
  C163     1.0000 0.13170  0.42220  0.28845  Biso   1.000  C
  H109     1.0000 0.14310  0.41780  0.25800  Biso   1.000  H
  C164     1.0000 0.22270  0.46580  0.30917  Biso   1.000  C
  H110     1.0000 0.29640  0.49080  0.29290  Biso   1.000  H
  C165     1.0000 0.20570  0.47250  0.35312  Biso   1.000  C
  H111     1.0000 0.26910  0.50210  0.36710  Biso   1.000  H
  C166     1.0000 0.09670  0.43669  0.37764  Biso   1.000  C
  C167     1.0000 0.00710  0.39281  0.35659  Biso   1.000  C
  H112     1.0000 0.93350  0.36780  0.37290  Biso   1.000  H
  C168     1.0000 0.07290  0.44600  0.42550  Biso   1.000  C
  Ag29     1.0000 0.30483  0.27006  0.29060  Biso   1.000  Ag
  Ag30     1.0000 0.97640  0.94216  0.48393  Biso   1.000  Ag
  O57      1.0000 0.15910  0.19581  0.31393  Biso   1.000  O
  O58      1.0000 0.04920  0.16791  0.24989  Biso   1.000  O
  O59      1.0000 0.02540  0.08778  0.44631  Biso   1.000  O
  O60      1.0000 0.84830  0.01231  0.44193  Biso   1.000  O
  N29      1.0000 0.39000  0.31285  0.35761  Biso   1.000  N
  N30      1.0000 0.47730  0.37410  0.43130  Biso   1.000  N
  C169     1.0000 0.49670  0.35824  0.35575  Biso   1.000  C
  H113     1.0000 0.54380  0.37000  0.32860  Biso   1.000  H
  C170     1.0000 0.53930  0.38820  0.39250  Biso   1.000  C
  H114     1.0000 0.61600  0.42000  0.38990  Biso   1.000  H
  C171     1.0000 0.37190  0.32840  0.43294  Biso   1.000  C
  H115     1.0000 0.32560  0.31660  0.46020  Biso   1.000  H
  C172     1.0000 0.32860  0.29810  0.39676  Biso   1.000  C
  H116     1.0000 0.25360  0.26590  0.39950  Biso   1.000  H
  C173     1.0000 0.06880  0.16370  0.29035  Biso   1.000  C
  C174     1.0000 0.97550  0.11473  0.31207  Biso   1.000  C
  C175     1.0000 0.86830  0.07780  0.28845  Biso   1.000  C
  H117     1.0000 0.85690  0.08220  0.25800  Biso   1.000  H
  C176     1.0000 0.77730  0.03420  0.30917  Biso   1.000  C
  H118     1.0000 0.70360  0.00920  0.29290  Biso   1.000  H
  C177     1.0000 0.79430  0.02750  0.35312  Biso   1.000  C
  H119     1.0000 0.73090  0.99790  0.36710  Biso   1.000  H
  C178     1.0000 0.90330  0.06331  0.37764  Biso   1.000  C
  C179     1.0000 0.99290  0.10719  0.35659  Biso   1.000  C
  H120     1.0000 0.06650  0.13220  0.37290  Biso   1.000  H
  C180     1.0000 0.92710  0.05400  0.42550  Biso   1.000  C
  Ag31     1.0000 0.80483  0.77006  0.79060  Biso   1.000  Ag
  Ag32     1.0000 0.47640  0.44216  0.98393  Biso   1.000  Ag
  O61      1.0000 0.65910  0.69581  0.81393  Biso   1.000  O
  O62      1.0000 0.54920  0.66791  0.74989  Biso   1.000  O
  O63      1.0000 0.52540  0.58778  0.94631  Biso   1.000  O
  O64      1.0000 0.34830  0.51231  0.94193  Biso   1.000  O
  N31      1.0000 0.89000  0.81285  0.85761  Biso   1.000  N
  N32      1.0000 0.97730  0.87410  0.93130  Biso   1.000  N
  C181     1.0000 0.99670  0.85824  0.85575  Biso   1.000  C
  H121     1.0000 0.04380  0.87000  0.82860  Biso   1.000  H
  C182     1.0000 0.03930  0.88820  0.89250  Biso   1.000  C
  H122     1.0000 0.11600  0.92000  0.88990  Biso   1.000  H
  C183     1.0000 0.87190  0.82840  0.93294  Biso   1.000  C
  H123     1.0000 0.82560  0.81660  0.96020  Biso   1.000  H
  C184     1.0000 0.82860  0.79810  0.89676  Biso   1.000  C
  H124     1.0000 0.75360  0.76590  0.89950  Biso   1.000  H
  C185     1.0000 0.56880  0.66370  0.79035  Biso   1.000  C
  C186     1.0000 0.47550  0.61473  0.81207  Biso   1.000  C
  C187     1.0000 0.36830  0.57780  0.78845  Biso   1.000  C
  H125     1.0000 0.35690  0.58220  0.75800  Biso   1.000  H
  C188     1.0000 0.27730  0.53420  0.80917  Biso   1.000  C
  H126     1.0000 0.20360  0.50920  0.79290  Biso   1.000  H
  C189     1.0000 0.29430  0.52750  0.85312  Biso   1.000  C
  H127     1.0000 0.23090  0.49790  0.86710  Biso   1.000  H
  C190     1.0000 0.40330  0.56331  0.87764  Biso   1.000  C
  C191     1.0000 0.49290  0.60719  0.85659  Biso   1.000  C
  H128     1.0000 0.56650  0.63220  0.87290  Biso   1.000  H
  C192     1.0000 0.42710  0.55400  0.92550  Biso   1.000  C
