data_image0
_cell_length_a       7.1728
_cell_length_b       23.7537
_cell_length_c       30.701
_cell_angle_alpha    90
_cell_angle_beta     90
_cell_angle_gamma    90

_symmetry_space_group_name_H-M    "P 1"
_symmetry_int_tables_number       1

loop_
  _symmetry_equiv_pos_as_xyz
  'x, y, z'

loop_
  _atom_site_label
  _atom_site_occupancy
  _atom_site_fract_x
  _atom_site_fract_y
  _atom_site_fract_z
  _atom_site_thermal_displace_type
  _atom_site_B_iso_or_equiv
  _atom_site_type_symbol
  Ag1      1.0000 0.19537  0.76997  0.29077  Biso   1.000  Ag
  Ag2      1.0000 0.53058  0.44286  0.48430  Biso   1.000  Ag
  O1       1.0000 0.34500  0.69583  0.31401  Biso   1.000  O
  O2       1.0000 0.45380  0.66720  0.24919  Biso   1.000  O
  O3       1.0000 0.48230  0.58781  0.44642  Biso   1.000  O
  O4       1.0000 0.66120  0.51125  0.44156  Biso   1.000  O
  N1       1.0000 0.10760  0.81258  0.35764  Biso   1.000  N
  N2       1.0000 0.01720  0.87425  0.43158  Biso   1.000  N
  C1       1.0000 0.99960  0.85830  0.35558  Biso   1.000  C
  H1       1.0000 0.95260  0.87030  0.32820  Biso   1.000  H
  C2       1.0000 0.95500  0.88851  0.39264  Biso   1.000  C
  H2       1.0000 0.87680  0.92060  0.39000  Biso   1.000  H
  C3       1.0000 0.12430  0.82818  0.43372  Biso   1.000  C
  H3       1.0000 0.17050  0.81630  0.46120  Biso   1.000  H
  C4       1.0000 0.16910  0.79756  0.39699  Biso   1.000  C
  H4       1.0000 0.24540  0.76510  0.39980  Biso   1.000  H
  C5       1.0000 0.43500  0.66348  0.28982  Biso   1.000  C
  C6       1.0000 0.53070  0.61453  0.31173  Biso   1.000  C
  C7       1.0000 0.63940  0.57706  0.28768  Biso   1.000  C
  H5       1.0000 0.65010  0.58140  0.25700  Biso   1.000  H
  C8       1.0000 0.73210  0.53338  0.30865  Biso   1.000  C
  H6       1.0000 0.80670  0.50790  0.29240  Biso   1.000  H
  C9       1.0000 0.71570  0.52709  0.35285  Biso   1.000  C
  H7       1.0000 0.78130  0.49760  0.36700  Biso   1.000  H
  C10      1.0000 0.60470  0.56322  0.37733  Biso   1.000  C
  C11      1.0000 0.51340  0.60724  0.35645  Biso   1.000  C
  H8       1.0000 0.43870  0.63250  0.37290  Biso   1.000  H
  C12      1.0000 0.58100  0.55366  0.42540  Biso   1.000  C
  Ag3      1.0000 0.69537  0.26997  0.79077  Biso   1.000  Ag
  Ag4      1.0000 0.03058  0.94286  0.98430  Biso   1.000  Ag
  O5       1.0000 0.84500  0.19583  0.81401  Biso   1.000  O
  O6       1.0000 0.95380  0.16720  0.74919  Biso   1.000  O
  O7       1.0000 0.98230  0.08781  0.94642  Biso   1.000  O
  O8       1.0000 0.16120  0.01125  0.94156  Biso   1.000  O
  N3       1.0000 0.60760  0.31258  0.85764  Biso   1.000  N
  N4       1.0000 0.51720  0.37425  0.93158  Biso   1.000  N
  C13      1.0000 0.49960  0.35830  0.85558  Biso   1.000  C
  H9       1.0000 0.45260  0.37030  0.82820  Biso   1.000  H
  C14      1.0000 0.45500  0.38851  0.89264  Biso   1.000  C
  H10      1.0000 0.37680  0.42060  0.89000  Biso   1.000  H
  C15      1.0000 0.62430  0.32818  0.93372  Biso   1.000  C
  H11      1.0000 0.67050  0.31630  0.96120  Biso   1.000  H
  C16      1.0000 0.66910  0.29756  0.89699  Biso   1.000  C
  H12      1.0000 0.74540  0.26510  0.89980  Biso   1.000  H
  C17      1.0000 0.93500  0.16348  0.78982  Biso   1.000  C
  C18      1.0000 0.03070  0.11453  0.81173  Biso   1.000  C
  C19      1.0000 0.13940  0.07706  0.78768  Biso   1.000  C
  H13      1.0000 0.15010  0.08140  0.75700  Biso   1.000  H
  C20      1.0000 0.23210  0.03338  0.80865  Biso   1.000  C
  H14      1.0000 0.30670  0.00790  0.79240  Biso   1.000  H
  C21      1.0000 0.21570  0.02709  0.85285  Biso   1.000  C
  H15      1.0000 0.28130  0.99760  0.86700  Biso   1.000  H
  C22      1.0000 0.10470  0.06322  0.87733  Biso   1.000  C
  C23      1.0000 0.01340  0.10724  0.85645  Biso   1.000  C
  H16      1.0000 0.93870  0.13250  0.87290  Biso   1.000  H
  C24      1.0000 0.08100  0.05366  0.92540  Biso   1.000  C
  Ag5      1.0000 0.30463  0.23003  0.79077  Biso   1.000  Ag
  Ag6      1.0000 0.96942  0.55714  0.98430  Biso   1.000  Ag
  O9       1.0000 0.15500  0.30417  0.81401  Biso   1.000  O
  O10      1.0000 0.04620  0.33280  0.74919  Biso   1.000  O
  O11      1.0000 0.01770  0.41219  0.94642  Biso   1.000  O
  O12      1.0000 0.83880  0.48875  0.94156  Biso   1.000  O
  N5       1.0000 0.39240  0.18742  0.85764  Biso   1.000  N
  N6       1.0000 0.48280  0.12575  0.93158  Biso   1.000  N
  C25      1.0000 0.50040  0.14170  0.85558  Biso   1.000  C
  H17      1.0000 0.54740  0.12970  0.82820  Biso   1.000  H
  C26      1.0000 0.54500  0.11149  0.89264  Biso   1.000  C
  H18      1.0000 0.62320  0.07940  0.89000  Biso   1.000  H
  C27      1.0000 0.37570  0.17182  0.93372  Biso   1.000  C
  H19      1.0000 0.32950  0.18370  0.96120  Biso   1.000  H
  C28      1.0000 0.33090  0.20244  0.89699  Biso   1.000  C
  H20      1.0000 0.25460  0.23490  0.89980  Biso   1.000  H
  C29      1.0000 0.06500  0.33652  0.78982  Biso   1.000  C
  C30      1.0000 0.96930  0.38547  0.81173  Biso   1.000  C
  C31      1.0000 0.86060  0.42294  0.78768  Biso   1.000  C
  H21      1.0000 0.84990  0.41860  0.75700  Biso   1.000  H
  C32      1.0000 0.76790  0.46662  0.80865  Biso   1.000  C
  H22      1.0000 0.69330  0.49210  0.79240  Biso   1.000  H
  C33      1.0000 0.78430  0.47291  0.85285  Biso   1.000  C
  H23      1.0000 0.71870  0.50240  0.86700  Biso   1.000  H
  C34      1.0000 0.89530  0.43678  0.87733  Biso   1.000  C
  C35      1.0000 0.98660  0.39276  0.85645  Biso   1.000  C
  H24      1.0000 0.06130  0.36750  0.87290  Biso   1.000  H
  C36      1.0000 0.91900  0.44634  0.92540  Biso   1.000  C
  Ag7      1.0000 0.80463  0.73003  0.29077  Biso   1.000  Ag
  Ag8      1.0000 0.46942  0.05714  0.48430  Biso   1.000  Ag
  O13      1.0000 0.65500  0.80417  0.31401  Biso   1.000  O
  O14      1.0000 0.54620  0.83280  0.24919  Biso   1.000  O
  O15      1.0000 0.51770  0.91219  0.44642  Biso   1.000  O
  O16      1.0000 0.33880  0.98875  0.44156  Biso   1.000  O
  N7       1.0000 0.89240  0.68742  0.35764  Biso   1.000  N
  N8       1.0000 0.98280  0.62575  0.43158  Biso   1.000  N
  C37      1.0000 0.00040  0.64170  0.35558  Biso   1.000  C
  H25      1.0000 0.04740  0.62970  0.32820  Biso   1.000  H
  C38      1.0000 0.04500  0.61149  0.39264  Biso   1.000  C
  H26      1.0000 0.12320  0.57940  0.39000  Biso   1.000  H
  C39      1.0000 0.87570  0.67182  0.43372  Biso   1.000  C
  H27      1.0000 0.82950  0.68370  0.46120  Biso   1.000  H
  C40      1.0000 0.83090  0.70244  0.39699  Biso   1.000  C
  H28      1.0000 0.75460  0.73490  0.39980  Biso   1.000  H
  C41      1.0000 0.56500  0.83652  0.28982  Biso   1.000  C
  C42      1.0000 0.46930  0.88547  0.31173  Biso   1.000  C
  C43      1.0000 0.36060  0.92294  0.28768  Biso   1.000  C
  H29      1.0000 0.34990  0.91860  0.25700  Biso   1.000  H
  C44      1.0000 0.26790  0.96662  0.30865  Biso   1.000  C
  H30      1.0000 0.19330  0.99210  0.29240  Biso   1.000  H
  C45      1.0000 0.28430  0.97291  0.35285  Biso   1.000  C
  H31      1.0000 0.21870  0.00240  0.36700  Biso   1.000  H
  C46      1.0000 0.39530  0.93678  0.37733  Biso   1.000  C
  C47      1.0000 0.48660  0.89276  0.35645  Biso   1.000  C
  H32      1.0000 0.56130  0.86750  0.37290  Biso   1.000  H
  C48      1.0000 0.41900  0.94634  0.42540  Biso   1.000  C
  Ag9      1.0000 0.80463  0.26997  0.20923  Biso   1.000  Ag
  Ag10     1.0000 0.46942  0.94286  0.01570  Biso   1.000  Ag
  O17      1.0000 0.65500  0.19583  0.18599  Biso   1.000  O
  O18      1.0000 0.54620  0.16720  0.25081  Biso   1.000  O
  O19      1.0000 0.51770  0.08781  0.05358  Biso   1.000  O
  O20      1.0000 0.33880  0.01125  0.05844  Biso   1.000  O
  N9       1.0000 0.89240  0.31258  0.14236  Biso   1.000  N
  N10      1.0000 0.98280  0.37425  0.06842  Biso   1.000  N
  C49      1.0000 0.00040  0.35830  0.14442  Biso   1.000  C
  H33      1.0000 0.04740  0.37030  0.17180  Biso   1.000  H
  C50      1.0000 0.04500  0.38851  0.10736  Biso   1.000  C
  H34      1.0000 0.12320  0.42060  0.11000  Biso   1.000  H
  C51      1.0000 0.87570  0.32818  0.06628  Biso   1.000  C
  H35      1.0000 0.82950  0.31630  0.03880  Biso   1.000  H
  C52      1.0000 0.83090  0.29756  0.10301  Biso   1.000  C
  H36      1.0000 0.75460  0.26510  0.10020  Biso   1.000  H
  C53      1.0000 0.56500  0.16348  0.21018  Biso   1.000  C
  C54      1.0000 0.46930  0.11453  0.18827  Biso   1.000  C
  C55      1.0000 0.36060  0.07706  0.21232  Biso   1.000  C
  H37      1.0000 0.34990  0.08140  0.24300  Biso   1.000  H
  C56      1.0000 0.26790  0.03338  0.19135  Biso   1.000  C
  H38      1.0000 0.19330  0.00790  0.20760  Biso   1.000  H
  C57      1.0000 0.28430  0.02709  0.14715  Biso   1.000  C
  H39      1.0000 0.21870  0.99760  0.13300  Biso   1.000  H
  C58      1.0000 0.39530  0.06322  0.12267  Biso   1.000  C
  C59      1.0000 0.48660  0.10724  0.14355  Biso   1.000  C
  H40      1.0000 0.56130  0.13250  0.12710  Biso   1.000  H
  C60      1.0000 0.41900  0.05366  0.07460  Biso   1.000  C
  Ag11     1.0000 0.30463  0.76997  0.70923  Biso   1.000  Ag
  Ag12     1.0000 0.96942  0.44286  0.51570  Biso   1.000  Ag
  O21      1.0000 0.15500  0.69583  0.68599  Biso   1.000  O
  O22      1.0000 0.04620  0.66720  0.75081  Biso   1.000  O
  O23      1.0000 0.01770  0.58781  0.55358  Biso   1.000  O
  O24      1.0000 0.83880  0.51125  0.55844  Biso   1.000  O
  N11      1.0000 0.39240  0.81258  0.64236  Biso   1.000  N
  N12      1.0000 0.48280  0.87425  0.56842  Biso   1.000  N
  C61      1.0000 0.50040  0.85830  0.64442  Biso   1.000  C
  H41      1.0000 0.54740  0.87030  0.67180  Biso   1.000  H
  C62      1.0000 0.54500  0.88851  0.60736  Biso   1.000  C
  H42      1.0000 0.62320  0.92060  0.61000  Biso   1.000  H
  C63      1.0000 0.37570  0.82818  0.56628  Biso   1.000  C
  H43      1.0000 0.32950  0.81630  0.53880  Biso   1.000  H
  C64      1.0000 0.33090  0.79756  0.60301  Biso   1.000  C
  H44      1.0000 0.25460  0.76510  0.60020  Biso   1.000  H
  C65      1.0000 0.06500  0.66348  0.71018  Biso   1.000  C
  C66      1.0000 0.96930  0.61453  0.68827  Biso   1.000  C
  C67      1.0000 0.86060  0.57706  0.71232  Biso   1.000  C
  H45      1.0000 0.84990  0.58140  0.74300  Biso   1.000  H
  C68      1.0000 0.76790  0.53338  0.69135  Biso   1.000  C
  H46      1.0000 0.69330  0.50790  0.70760  Biso   1.000  H
  C69      1.0000 0.78430  0.52709  0.64715  Biso   1.000  C
  H47      1.0000 0.71870  0.49760  0.63300  Biso   1.000  H
  C70      1.0000 0.89530  0.56322  0.62267  Biso   1.000  C
  C71      1.0000 0.98660  0.60724  0.64355  Biso   1.000  C
  H48      1.0000 0.06130  0.63250  0.62710  Biso   1.000  H
  C72      1.0000 0.91900  0.55366  0.57460  Biso   1.000  C
  Ag13     1.0000 0.69537  0.73003  0.70923  Biso   1.000  Ag
  Ag14     1.0000 0.03058  0.05714  0.51570  Biso   1.000  Ag
  O25      1.0000 0.84500  0.80417  0.68599  Biso   1.000  O
  O26      1.0000 0.95380  0.83280  0.75081  Biso   1.000  O
  O27      1.0000 0.98230  0.91219  0.55358  Biso   1.000  O
  O28      1.0000 0.16120  0.98875  0.55844  Biso   1.000  O
  N13      1.0000 0.60760  0.68742  0.64236  Biso   1.000  N
  N14      1.0000 0.51720  0.62575  0.56842  Biso   1.000  N
  C73      1.0000 0.49960  0.64170  0.64442  Biso   1.000  C
  H49      1.0000 0.45260  0.62970  0.67180  Biso   1.000  H
  C74      1.0000 0.45500  0.61149  0.60736  Biso   1.000  C
  H50      1.0000 0.37680  0.57940  0.61000  Biso   1.000  H
  C75      1.0000 0.62430  0.67182  0.56628  Biso   1.000  C
  H51      1.0000 0.67050  0.68370  0.53880  Biso   1.000  H
  C76      1.0000 0.66910  0.70244  0.60301  Biso   1.000  C
  H52      1.0000 0.74540  0.73490  0.60020  Biso   1.000  H
  C77      1.0000 0.93500  0.83652  0.71018  Biso   1.000  C
  C78      1.0000 0.03070  0.88547  0.68827  Biso   1.000  C
  C79      1.0000 0.13940  0.92294  0.71232  Biso   1.000  C
  H53      1.0000 0.15010  0.91860  0.74300  Biso   1.000  H
  C80      1.0000 0.23210  0.96662  0.69135  Biso   1.000  C
  H54      1.0000 0.30670  0.99210  0.70760  Biso   1.000  H
  C81      1.0000 0.21570  0.97291  0.64715  Biso   1.000  C
  H55      1.0000 0.28130  0.00240  0.63300  Biso   1.000  H
  C82      1.0000 0.10470  0.93678  0.62267  Biso   1.000  C
  C83      1.0000 0.01340  0.89276  0.64355  Biso   1.000  C
  H56      1.0000 0.93870  0.86750  0.62710  Biso   1.000  H
  C84      1.0000 0.08100  0.94634  0.57460  Biso   1.000  C
  Ag15     1.0000 0.19537  0.23003  0.20923  Biso   1.000  Ag
  Ag16     1.0000 0.53058  0.55714  0.01570  Biso   1.000  Ag
  O29      1.0000 0.34500  0.30417  0.18599  Biso   1.000  O
  O30      1.0000 0.45380  0.33280  0.25081  Biso   1.000  O
  O31      1.0000 0.48230  0.41219  0.05358  Biso   1.000  O
  O32      1.0000 0.66120  0.48875  0.05844  Biso   1.000  O
  N15      1.0000 0.10760  0.18742  0.14236  Biso   1.000  N
  N16      1.0000 0.01720  0.12575  0.06842  Biso   1.000  N
  C85      1.0000 0.99960  0.14170  0.14442  Biso   1.000  C
  H57      1.0000 0.95260  0.12970  0.17180  Biso   1.000  H
  C86      1.0000 0.95500  0.11149  0.10736  Biso   1.000  C
  H58      1.0000 0.87680  0.07940  0.11000  Biso   1.000  H
  C87      1.0000 0.12430  0.17182  0.06628  Biso   1.000  C
  H59      1.0000 0.17050  0.18370  0.03880  Biso   1.000  H
  C88      1.0000 0.16910  0.20244  0.10301  Biso   1.000  C
  H60      1.0000 0.24540  0.23490  0.10020  Biso   1.000  H
  C89      1.0000 0.43500  0.33652  0.21018  Biso   1.000  C
  C90      1.0000 0.53070  0.38547  0.18827  Biso   1.000  C
  C91      1.0000 0.63940  0.42294  0.21232  Biso   1.000  C
  H61      1.0000 0.65010  0.41860  0.24300  Biso   1.000  H
  C92      1.0000 0.73210  0.46662  0.19135  Biso   1.000  C
  H62      1.0000 0.80670  0.49210  0.20760  Biso   1.000  H
  C93      1.0000 0.71570  0.47291  0.14715  Biso   1.000  C
  H63      1.0000 0.78130  0.50240  0.13300  Biso   1.000  H
  C94      1.0000 0.60470  0.43678  0.12267  Biso   1.000  C
  C95      1.0000 0.51340  0.39276  0.14355  Biso   1.000  C
  H64      1.0000 0.43870  0.36750  0.12710  Biso   1.000  H
  C96      1.0000 0.58100  0.44634  0.07460  Biso   1.000  C
  Ag17     1.0000 0.80463  0.23003  0.70923  Biso   1.000  Ag
  Ag18     1.0000 0.46942  0.55714  0.51570  Biso   1.000  Ag
  O33      1.0000 0.65500  0.30417  0.68599  Biso   1.000  O
  O34      1.0000 0.54620  0.33280  0.75081  Biso   1.000  O
  O35      1.0000 0.51770  0.41219  0.55358  Biso   1.000  O
  O36      1.0000 0.33880  0.48875  0.55844  Biso   1.000  O
  N17      1.0000 0.89240  0.18742  0.64236  Biso   1.000  N
  N18      1.0000 0.98280  0.12575  0.56842  Biso   1.000  N
  C97      1.0000 0.00040  0.14170  0.64442  Biso   1.000  C
  H65      1.0000 0.04740  0.12970  0.67180  Biso   1.000  H
  C98      1.0000 0.04500  0.11149  0.60736  Biso   1.000  C
  H66      1.0000 0.12320  0.07940  0.61000  Biso   1.000  H
  C99      1.0000 0.87570  0.17182  0.56628  Biso   1.000  C
  H67      1.0000 0.82950  0.18370  0.53880  Biso   1.000  H
  C100     1.0000 0.83090  0.20244  0.60301  Biso   1.000  C
  H68      1.0000 0.75460  0.23490  0.60020  Biso   1.000  H
  C101     1.0000 0.56500  0.33652  0.71018  Biso   1.000  C
  C102     1.0000 0.46930  0.38547  0.68827  Biso   1.000  C
  C103     1.0000 0.36060  0.42294  0.71232  Biso   1.000  C
  H69      1.0000 0.34990  0.41860  0.74300  Biso   1.000  H
  C104     1.0000 0.26790  0.46662  0.69135  Biso   1.000  C
  H70      1.0000 0.19330  0.49210  0.70760  Biso   1.000  H
  C105     1.0000 0.28430  0.47291  0.64715  Biso   1.000  C
  H71      1.0000 0.21870  0.50240  0.63300  Biso   1.000  H
  C106     1.0000 0.39530  0.43678  0.62267  Biso   1.000  C
  C107     1.0000 0.48660  0.39276  0.64355  Biso   1.000  C
  H72      1.0000 0.56130  0.36750  0.62710  Biso   1.000  H
  C108     1.0000 0.41900  0.44634  0.57460  Biso   1.000  C
  Ag19     1.0000 0.30463  0.73003  0.20923  Biso   1.000  Ag
  Ag20     1.0000 0.96942  0.05714  0.01570  Biso   1.000  Ag
  O37      1.0000 0.15500  0.80417  0.18599  Biso   1.000  O
  O38      1.0000 0.04620  0.83280  0.25081  Biso   1.000  O
  O39      1.0000 0.01770  0.91219  0.05358  Biso   1.000  O
  O40      1.0000 0.83880  0.98875  0.05844  Biso   1.000  O
  N19      1.0000 0.39240  0.68742  0.14236  Biso   1.000  N
  N20      1.0000 0.48280  0.62575  0.06842  Biso   1.000  N
  C109     1.0000 0.50040  0.64170  0.14442  Biso   1.000  C
  H73      1.0000 0.54740  0.62970  0.17180  Biso   1.000  H
  C110     1.0000 0.54500  0.61149  0.10736  Biso   1.000  C
  H74      1.0000 0.62320  0.57940  0.11000  Biso   1.000  H
  C111     1.0000 0.37570  0.67182  0.06628  Biso   1.000  C
  H75      1.0000 0.32950  0.68370  0.03880  Biso   1.000  H
  C112     1.0000 0.33090  0.70244  0.10301  Biso   1.000  C
  H76      1.0000 0.25460  0.73490  0.10020  Biso   1.000  H
  C113     1.0000 0.06500  0.83652  0.21018  Biso   1.000  C
  C114     1.0000 0.96930  0.88547  0.18827  Biso   1.000  C
  C115     1.0000 0.86060  0.92294  0.21232  Biso   1.000  C
  H77      1.0000 0.84990  0.91860  0.24300  Biso   1.000  H
  C116     1.0000 0.76790  0.96662  0.19135  Biso   1.000  C
  H78      1.0000 0.69330  0.99210  0.20760  Biso   1.000  H
  C117     1.0000 0.78430  0.97291  0.14715  Biso   1.000  C
  H79      1.0000 0.71870  0.00240  0.13300  Biso   1.000  H
  C118     1.0000 0.89530  0.93678  0.12267  Biso   1.000  C
  C119     1.0000 0.98660  0.89276  0.14355  Biso   1.000  C
  H80      1.0000 0.06130  0.86750  0.12710  Biso   1.000  H
  C120     1.0000 0.91900  0.94634  0.07460  Biso   1.000  C
  Ag21     1.0000 0.69537  0.76997  0.20923  Biso   1.000  Ag
  Ag22     1.0000 0.03058  0.44286  0.01570  Biso   1.000  Ag
  O41      1.0000 0.84500  0.69583  0.18599  Biso   1.000  O
  O42      1.0000 0.95380  0.66720  0.25081  Biso   1.000  O
  O43      1.0000 0.98230  0.58781  0.05358  Biso   1.000  O
  O44      1.0000 0.16120  0.51125  0.05844  Biso   1.000  O
  N21      1.0000 0.60760  0.81258  0.14236  Biso   1.000  N
  N22      1.0000 0.51720  0.87425  0.06842  Biso   1.000  N
  C121     1.0000 0.49960  0.85830  0.14442  Biso   1.000  C
  H81      1.0000 0.45260  0.87030  0.17180  Biso   1.000  H
  C122     1.0000 0.45500  0.88851  0.10736  Biso   1.000  C
  H82      1.0000 0.37680  0.92060  0.11000  Biso   1.000  H
  C123     1.0000 0.62430  0.82818  0.06628  Biso   1.000  C
  H83      1.0000 0.67050  0.81630  0.03880  Biso   1.000  H
  C124     1.0000 0.66910  0.79756  0.10301  Biso   1.000  C
  H84      1.0000 0.74540  0.76510  0.10020  Biso   1.000  H
  C125     1.0000 0.93500  0.66348  0.21018  Biso   1.000  C
  C126     1.0000 0.03070  0.61453  0.18827  Biso   1.000  C
  C127     1.0000 0.13940  0.57706  0.21232  Biso   1.000  C
  H85      1.0000 0.15010  0.58140  0.24300  Biso   1.000  H
  C128     1.0000 0.23210  0.53338  0.19135  Biso   1.000  C
  H86      1.0000 0.30670  0.50790  0.20760  Biso   1.000  H
  C129     1.0000 0.21570  0.52709  0.14715  Biso   1.000  C
  H87      1.0000 0.28130  0.49760  0.13300  Biso   1.000  H
  C130     1.0000 0.10470  0.56322  0.12267  Biso   1.000  C
  C131     1.0000 0.01340  0.60724  0.14355  Biso   1.000  C
  H88      1.0000 0.93870  0.63250  0.12710  Biso   1.000  H
  C132     1.0000 0.08100  0.55366  0.07460  Biso   1.000  C
  Ag23     1.0000 0.19537  0.26997  0.70923  Biso   1.000  Ag
  Ag24     1.0000 0.53058  0.94286  0.51570  Biso   1.000  Ag
  O45      1.0000 0.34500  0.19583  0.68599  Biso   1.000  O
  O46      1.0000 0.45380  0.16720  0.75081  Biso   1.000  O
  O47      1.0000 0.48230  0.08781  0.55358  Biso   1.000  O
  O48      1.0000 0.66120  0.01125  0.55844  Biso   1.000  O
  N23      1.0000 0.10760  0.31258  0.64236  Biso   1.000  N
  N24      1.0000 0.01720  0.37425  0.56842  Biso   1.000  N
  C133     1.0000 0.99960  0.35830  0.64442  Biso   1.000  C
  H89      1.0000 0.95260  0.37030  0.67180  Biso   1.000  H
  C134     1.0000 0.95500  0.38851  0.60736  Biso   1.000  C
  H90      1.0000 0.87680  0.42060  0.61000  Biso   1.000  H
  C135     1.0000 0.12430  0.32818  0.56628  Biso   1.000  C
  H91      1.0000 0.17050  0.31630  0.53880  Biso   1.000  H
  C136     1.0000 0.16910  0.29756  0.60301  Biso   1.000  C
  H92      1.0000 0.24540  0.26510  0.60020  Biso   1.000  H
  C137     1.0000 0.43500  0.16348  0.71018  Biso   1.000  C
  C138     1.0000 0.53070  0.11453  0.68827  Biso   1.000  C
  C139     1.0000 0.63940  0.07706  0.71232  Biso   1.000  C
  H93      1.0000 0.65010  0.08140  0.74300  Biso   1.000  H
  C140     1.0000 0.73210  0.03338  0.69135  Biso   1.000  C
  H94      1.0000 0.80670  0.00790  0.70760  Biso   1.000  H
  C141     1.0000 0.71570  0.02709  0.64715  Biso   1.000  C
  H95      1.0000 0.78130  0.99760  0.63300  Biso   1.000  H
  C142     1.0000 0.60470  0.06322  0.62267  Biso   1.000  C
  C143     1.0000 0.51340  0.10724  0.64355  Biso   1.000  C
  H96      1.0000 0.43870  0.13250  0.62710  Biso   1.000  H
  C144     1.0000 0.58100  0.05366  0.57460  Biso   1.000  C
  Ag25     1.0000 0.19537  0.73003  0.79077  Biso   1.000  Ag
  Ag26     1.0000 0.53058  0.05714  0.98430  Biso   1.000  Ag
  O49      1.0000 0.34500  0.80417  0.81401  Biso   1.000  O
  O50      1.0000 0.45380  0.83280  0.74919  Biso   1.000  O
  O51      1.0000 0.48230  0.91219  0.94642  Biso   1.000  O
  O52      1.0000 0.66120  0.98875  0.94156  Biso   1.000  O
  N25      1.0000 0.10760  0.68742  0.85764  Biso   1.000  N
  N26      1.0000 0.01720  0.62575  0.93158  Biso   1.000  N
  C145     1.0000 0.99960  0.64170  0.85558  Biso   1.000  C
  H97      1.0000 0.95260  0.62970  0.82820  Biso   1.000  H
  C146     1.0000 0.95500  0.61149  0.89264  Biso   1.000  C
  H98      1.0000 0.87680  0.57940  0.89000  Biso   1.000  H
  C147     1.0000 0.12430  0.67182  0.93372  Biso   1.000  C
  H99      1.0000 0.17050  0.68370  0.96120  Biso   1.000  H
  C148     1.0000 0.16910  0.70244  0.89699  Biso   1.000  C
  H100     1.0000 0.24540  0.73490  0.89980  Biso   1.000  H
  C149     1.0000 0.43500  0.83652  0.78982  Biso   1.000  C
  C150     1.0000 0.53070  0.88547  0.81173  Biso   1.000  C
  C151     1.0000 0.63940  0.92294  0.78768  Biso   1.000  C
  H101     1.0000 0.65010  0.91860  0.75700  Biso   1.000  H
  C152     1.0000 0.73210  0.96662  0.80865  Biso   1.000  C
  H102     1.0000 0.80670  0.99210  0.79240  Biso   1.000  H
  C153     1.0000 0.71570  0.97291  0.85285  Biso   1.000  C
  H103     1.0000 0.78130  0.00240  0.86700  Biso   1.000  H
  C154     1.0000 0.60470  0.93678  0.87733  Biso   1.000  C
  C155     1.0000 0.51340  0.89276  0.85645  Biso   1.000  C
  H104     1.0000 0.43870  0.86750  0.87290  Biso   1.000  H
  C156     1.0000 0.58100  0.94634  0.92540  Biso   1.000  C
  Ag27     1.0000 0.69537  0.23003  0.29077  Biso   1.000  Ag
  Ag28     1.0000 0.03058  0.55714  0.48430  Biso   1.000  Ag
  O53      1.0000 0.84500  0.30417  0.31401  Biso   1.000  O
  O54      1.0000 0.95380  0.33280  0.24919  Biso   1.000  O
  O55      1.0000 0.98230  0.41219  0.44642  Biso   1.000  O
  O56      1.0000 0.16120  0.48875  0.44156  Biso   1.000  O
  N27      1.0000 0.60760  0.18742  0.35764  Biso   1.000  N
  N28      1.0000 0.51720  0.12575  0.43158  Biso   1.000  N
  C157     1.0000 0.49960  0.14170  0.35558  Biso   1.000  C
  H105     1.0000 0.45260  0.12970  0.32820  Biso   1.000  H
  C158     1.0000 0.45500  0.11149  0.39264  Biso   1.000  C
  H106     1.0000 0.37680  0.07940  0.39000  Biso   1.000  H
  C159     1.0000 0.62430  0.17182  0.43372  Biso   1.000  C
  H107     1.0000 0.67050  0.18370  0.46120  Biso   1.000  H
  C160     1.0000 0.66910  0.20244  0.39699  Biso   1.000  C
  H108     1.0000 0.74540  0.23490  0.39980  Biso   1.000  H
  C161     1.0000 0.93500  0.33652  0.28982  Biso   1.000  C
  C162     1.0000 0.03070  0.38547  0.31173  Biso   1.000  C
  C163     1.0000 0.13940  0.42294  0.28768  Biso   1.000  C
  H109     1.0000 0.15010  0.41860  0.25700  Biso   1.000  H
  C164     1.0000 0.23210  0.46662  0.30865  Biso   1.000  C
  H110     1.0000 0.30670  0.49210  0.29240  Biso   1.000  H
  C165     1.0000 0.21570  0.47291  0.35285  Biso   1.000  C
  H111     1.0000 0.28130  0.50240  0.36700  Biso   1.000  H
  C166     1.0000 0.10470  0.43678  0.37733  Biso   1.000  C
  C167     1.0000 0.01340  0.39276  0.35645  Biso   1.000  C
  H112     1.0000 0.93870  0.36750  0.37290  Biso   1.000  H
  C168     1.0000 0.08100  0.44634  0.42540  Biso   1.000  C
  Ag29     1.0000 0.30463  0.26997  0.29077  Biso   1.000  Ag
  Ag30     1.0000 0.96942  0.94286  0.48430  Biso   1.000  Ag
  O57      1.0000 0.15500  0.19583  0.31401  Biso   1.000  O
  O58      1.0000 0.04620  0.16720  0.24919  Biso   1.000  O
  O59      1.0000 0.01770  0.08781  0.44642  Biso   1.000  O
  O60      1.0000 0.83880  0.01125  0.44156  Biso   1.000  O
  N29      1.0000 0.39240  0.31258  0.35764  Biso   1.000  N
  N30      1.0000 0.48280  0.37425  0.43158  Biso   1.000  N
  C169     1.0000 0.50040  0.35830  0.35558  Biso   1.000  C
  H113     1.0000 0.54740  0.37030  0.32820  Biso   1.000  H
  C170     1.0000 0.54500  0.38851  0.39264  Biso   1.000  C
  H114     1.0000 0.62320  0.42060  0.39000  Biso   1.000  H
  C171     1.0000 0.37570  0.32818  0.43372  Biso   1.000  C
  H115     1.0000 0.32950  0.31630  0.46120  Biso   1.000  H
  C172     1.0000 0.33090  0.29756  0.39699  Biso   1.000  C
  H116     1.0000 0.25460  0.26510  0.39980  Biso   1.000  H
  C173     1.0000 0.06500  0.16348  0.28982  Biso   1.000  C
  C174     1.0000 0.96930  0.11453  0.31173  Biso   1.000  C
  C175     1.0000 0.86060  0.07706  0.28768  Biso   1.000  C
  H117     1.0000 0.84990  0.08140  0.25700  Biso   1.000  H
  C176     1.0000 0.76790  0.03338  0.30865  Biso   1.000  C
  H118     1.0000 0.69330  0.00790  0.29240  Biso   1.000  H
  C177     1.0000 0.78430  0.02709  0.35285  Biso   1.000  C
  H119     1.0000 0.71870  0.99760  0.36700  Biso   1.000  H
  C178     1.0000 0.89530  0.06322  0.37733  Biso   1.000  C
  C179     1.0000 0.98660  0.10724  0.35645  Biso   1.000  C
  H120     1.0000 0.06130  0.13250  0.37290  Biso   1.000  H
  C180     1.0000 0.91900  0.05366  0.42540  Biso   1.000  C
  Ag31     1.0000 0.80463  0.76997  0.79077  Biso   1.000  Ag
  Ag32     1.0000 0.46942  0.44286  0.98430  Biso   1.000  Ag
  O61      1.0000 0.65500  0.69583  0.81401  Biso   1.000  O
  O62      1.0000 0.54620  0.66720  0.74919  Biso   1.000  O
  O63      1.0000 0.51770  0.58781  0.94642  Biso   1.000  O
  O64      1.0000 0.33880  0.51125  0.94156  Biso   1.000  O
  N31      1.0000 0.89240  0.81258  0.85764  Biso   1.000  N
  N32      1.0000 0.98280  0.87425  0.93158  Biso   1.000  N
  C181     1.0000 0.00040  0.85830  0.85558  Biso   1.000  C
  H121     1.0000 0.04740  0.87030  0.82820  Biso   1.000  H
  C182     1.0000 0.04500  0.88851  0.89264  Biso   1.000  C
  H122     1.0000 0.12320  0.92060  0.89000  Biso   1.000  H
  C183     1.0000 0.87570  0.82818  0.93372  Biso   1.000  C
  H123     1.0000 0.82950  0.81630  0.96120  Biso   1.000  H
  C184     1.0000 0.83090  0.79756  0.89699  Biso   1.000  C
  H124     1.0000 0.75460  0.76510  0.89980  Biso   1.000  H
  C185     1.0000 0.56500  0.66348  0.78982  Biso   1.000  C
  C186     1.0000 0.46930  0.61453  0.81173  Biso   1.000  C
  C187     1.0000 0.36060  0.57706  0.78768  Biso   1.000  C
  H125     1.0000 0.34990  0.58140  0.75700  Biso   1.000  H
  C188     1.0000 0.26790  0.53338  0.80865  Biso   1.000  C
  H126     1.0000 0.19330  0.50790  0.79240  Biso   1.000  H
  C189     1.0000 0.28430  0.52709  0.85285  Biso   1.000  C
  H127     1.0000 0.21870  0.49760  0.86700  Biso   1.000  H
  C190     1.0000 0.39530  0.56322  0.87733  Biso   1.000  C
  C191     1.0000 0.48660  0.60724  0.85645  Biso   1.000  C
  H128     1.0000 0.56130  0.63250  0.87290  Biso   1.000  H
  C192     1.0000 0.41900  0.55366  0.92540  Biso   1.000  C
