data_image0
_cell_length_a       7.2127
_cell_length_b       23.7652
_cell_length_c       30.732
_cell_angle_alpha    90
_cell_angle_beta     90
_cell_angle_gamma    90

_symmetry_space_group_name_H-M    "P 1"
_symmetry_int_tables_number       1

loop_
  _symmetry_equiv_pos_as_xyz
  'x, y, z'

loop_
  _atom_site_label
  _atom_site_occupancy
  _atom_site_fract_x
  _atom_site_fract_y
  _atom_site_fract_z
  _atom_site_thermal_displace_type
  _atom_site_B_iso_or_equiv
  _atom_site_type_symbol
  Ag1      1.0000 0.19524  0.77001  0.29069  Biso   1.000  Ag
  Ag2      1.0000 0.52785  0.44257  0.48416  Biso   1.000  Ag
  O1       1.0000 0.34360  0.69592  0.31402  Biso   1.000  O
  O2       1.0000 0.45270  0.66747  0.24954  Biso   1.000  O
  O3       1.0000 0.47940  0.58787  0.44635  Biso   1.000  O
  O4       1.0000 0.65830  0.51167  0.44176  Biso   1.000  O
  N1       1.0000 0.10860  0.81264  0.35754  Biso   1.000  N
  N2       1.0000 0.01910  0.87421  0.43152  Biso   1.000  N
  C1       1.0000 0.00090  0.85818  0.35563  Biso   1.000  C
  H1       1.0000 0.95390  0.86990  0.32860  Biso   1.000  H
  C2       1.0000 0.95710  0.88841  0.39255  Biso   1.000  C
  H2       1.0000 0.88060  0.92020  0.38990  Biso   1.000  H
  C3       1.0000 0.12460  0.82818  0.43338  Biso   1.000  C
  H3       1.0000 0.16950  0.81610  0.46050  Biso   1.000  H
  C4       1.0000 0.16960  0.79793  0.39675  Biso   1.000  C
  H4       1.0000 0.24550  0.76600  0.39950  Biso   1.000  H
  C5       1.0000 0.43340  0.66338  0.28997  Biso   1.000  C
  C6       1.0000 0.52880  0.61452  0.31183  Biso   1.000  C
  C7       1.0000 0.63680  0.57723  0.28805  Biso   1.000  C
  H5       1.0000 0.64740  0.58140  0.25770  Biso   1.000  H
  C8       1.0000 0.72890  0.53392  0.30888  Biso   1.000  C
  H6       1.0000 0.80320  0.50900  0.29270  Biso   1.000  H
  C9       1.0000 0.71230  0.52716  0.35301  Biso   1.000  C
  H7       1.0000 0.77650  0.49780  0.36690  Biso   1.000  H
  C10      1.0000 0.60140  0.56326  0.37751  Biso   1.000  C
  C11      1.0000 0.51130  0.60719  0.35654  Biso   1.000  C
  H8       1.0000 0.43770  0.63220  0.37270  Biso   1.000  H
  C12      1.0000 0.57830  0.55376  0.42535  Biso   1.000  C
  Ag3      1.0000 0.69524  0.27001  0.79069  Biso   1.000  Ag
  Ag4      1.0000 0.02785  0.94257  0.98416  Biso   1.000  Ag
  O5       1.0000 0.84360  0.19592  0.81402  Biso   1.000  O
  O6       1.0000 0.95270  0.16747  0.74954  Biso   1.000  O
  O7       1.0000 0.97940  0.08787  0.94635  Biso   1.000  O
  O8       1.0000 0.15830  0.01167  0.94176  Biso   1.000  O
  N3       1.0000 0.60860  0.31264  0.85754  Biso   1.000  N
  N4       1.0000 0.51910  0.37421  0.93152  Biso   1.000  N
  C13      1.0000 0.50090  0.35818  0.85563  Biso   1.000  C
  H9       1.0000 0.45390  0.36990  0.82860  Biso   1.000  H
  C14      1.0000 0.45710  0.38841  0.89255  Biso   1.000  C
  H10      1.0000 0.38060  0.42020  0.88990  Biso   1.000  H
  C15      1.0000 0.62460  0.32818  0.93338  Biso   1.000  C
  H11      1.0000 0.66950  0.31610  0.96050  Biso   1.000  H
  C16      1.0000 0.66960  0.29793  0.89675  Biso   1.000  C
  H12      1.0000 0.74550  0.26600  0.89950  Biso   1.000  H
  C17      1.0000 0.93340  0.16338  0.78997  Biso   1.000  C
  C18      1.0000 0.02880  0.11452  0.81183  Biso   1.000  C
  C19      1.0000 0.13680  0.07723  0.78805  Biso   1.000  C
  H13      1.0000 0.14740  0.08140  0.75770  Biso   1.000  H
  C20      1.0000 0.22890  0.03392  0.80888  Biso   1.000  C
  H14      1.0000 0.30320  0.00900  0.79270  Biso   1.000  H
  C21      1.0000 0.21230  0.02716  0.85301  Biso   1.000  C
  H15      1.0000 0.27650  0.99780  0.86690  Biso   1.000  H
  C22      1.0000 0.10140  0.06326  0.87751  Biso   1.000  C
  C23      1.0000 0.01130  0.10719  0.85654  Biso   1.000  C
  H16      1.0000 0.93770  0.13220  0.87270  Biso   1.000  H
  C24      1.0000 0.07830  0.05376  0.92535  Biso   1.000  C
  Ag5      1.0000 0.30476  0.22999  0.79069  Biso   1.000  Ag
  Ag6      1.0000 0.97215  0.55743  0.98416  Biso   1.000  Ag
  O9       1.0000 0.15640  0.30408  0.81402  Biso   1.000  O
  O10      1.0000 0.04730  0.33253  0.74954  Biso   1.000  O
  O11      1.0000 0.02060  0.41213  0.94635  Biso   1.000  O
  O12      1.0000 0.84170  0.48833  0.94176  Biso   1.000  O
  N5       1.0000 0.39140  0.18736  0.85754  Biso   1.000  N
  N6       1.0000 0.48090  0.12579  0.93152  Biso   1.000  N
  C25      1.0000 0.49910  0.14182  0.85563  Biso   1.000  C
  H17      1.0000 0.54610  0.13010  0.82860  Biso   1.000  H
  C26      1.0000 0.54290  0.11159  0.89255  Biso   1.000  C
  H18      1.0000 0.61940  0.07980  0.88990  Biso   1.000  H
  C27      1.0000 0.37540  0.17182  0.93338  Biso   1.000  C
  H19      1.0000 0.33050  0.18390  0.96050  Biso   1.000  H
  C28      1.0000 0.33040  0.20207  0.89675  Biso   1.000  C
  H20      1.0000 0.25450  0.23400  0.89950  Biso   1.000  H
  C29      1.0000 0.06660  0.33662  0.78997  Biso   1.000  C
  C30      1.0000 0.97120  0.38548  0.81183  Biso   1.000  C
  C31      1.0000 0.86320  0.42277  0.78805  Biso   1.000  C
  H21      1.0000 0.85260  0.41860  0.75770  Biso   1.000  H
  C32      1.0000 0.77110  0.46608  0.80888  Biso   1.000  C
  H22      1.0000 0.69680  0.49100  0.79270  Biso   1.000  H
  C33      1.0000 0.78770  0.47284  0.85301  Biso   1.000  C
  H23      1.0000 0.72350  0.50220  0.86690  Biso   1.000  H
  C34      1.0000 0.89860  0.43674  0.87751  Biso   1.000  C
  C35      1.0000 0.98870  0.39281  0.85654  Biso   1.000  C
  H24      1.0000 0.06230  0.36780  0.87270  Biso   1.000  H
  C36      1.0000 0.92170  0.44624  0.92535  Biso   1.000  C
  Ag7      1.0000 0.80476  0.72999  0.29069  Biso   1.000  Ag
  Ag8      1.0000 0.47215  0.05743  0.48416  Biso   1.000  Ag
  O13      1.0000 0.65640  0.80408  0.31402  Biso   1.000  O
  O14      1.0000 0.54730  0.83253  0.24954  Biso   1.000  O
  O15      1.0000 0.52060  0.91213  0.44635  Biso   1.000  O
  O16      1.0000 0.34170  0.98833  0.44176  Biso   1.000  O
  N7       1.0000 0.89140  0.68736  0.35754  Biso   1.000  N
  N8       1.0000 0.98090  0.62579  0.43152  Biso   1.000  N
  C37      1.0000 0.99910  0.64182  0.35563  Biso   1.000  C
  H25      1.0000 0.04610  0.63010  0.32860  Biso   1.000  H
  C38      1.0000 0.04290  0.61159  0.39255  Biso   1.000  C
  H26      1.0000 0.11940  0.57980  0.38990  Biso   1.000  H
  C39      1.0000 0.87540  0.67182  0.43338  Biso   1.000  C
  H27      1.0000 0.83050  0.68390  0.46050  Biso   1.000  H
  C40      1.0000 0.83040  0.70207  0.39675  Biso   1.000  C
  H28      1.0000 0.75450  0.73400  0.39950  Biso   1.000  H
  C41      1.0000 0.56660  0.83662  0.28997  Biso   1.000  C
  C42      1.0000 0.47120  0.88548  0.31183  Biso   1.000  C
  C43      1.0000 0.36320  0.92277  0.28805  Biso   1.000  C
  H29      1.0000 0.35260  0.91860  0.25770  Biso   1.000  H
  C44      1.0000 0.27110  0.96608  0.30888  Biso   1.000  C
  H30      1.0000 0.19680  0.99100  0.29270  Biso   1.000  H
  C45      1.0000 0.28770  0.97284  0.35301  Biso   1.000  C
  H31      1.0000 0.22350  0.00220  0.36690  Biso   1.000  H
  C46      1.0000 0.39860  0.93674  0.37751  Biso   1.000  C
  C47      1.0000 0.48870  0.89281  0.35654  Biso   1.000  C
  H32      1.0000 0.56230  0.86780  0.37270  Biso   1.000  H
  C48      1.0000 0.42170  0.94624  0.42535  Biso   1.000  C
  Ag9      1.0000 0.80476  0.27001  0.20931  Biso   1.000  Ag
  Ag10     1.0000 0.47215  0.94257  0.01584  Biso   1.000  Ag
  O17      1.0000 0.65640  0.19592  0.18598  Biso   1.000  O
  O18      1.0000 0.54730  0.16747  0.25046  Biso   1.000  O
  O19      1.0000 0.52060  0.08787  0.05365  Biso   1.000  O
  O20      1.0000 0.34170  0.01167  0.05824  Biso   1.000  O
  N9       1.0000 0.89140  0.31264  0.14246  Biso   1.000  N
  N10      1.0000 0.98090  0.37421  0.06848  Biso   1.000  N
  C49      1.0000 0.99910  0.35818  0.14437  Biso   1.000  C
  H33      1.0000 0.04610  0.36990  0.17140  Biso   1.000  H
  C50      1.0000 0.04290  0.38841  0.10745  Biso   1.000  C
  H34      1.0000 0.11940  0.42020  0.11010  Biso   1.000  H
  C51      1.0000 0.87540  0.32818  0.06662  Biso   1.000  C
  H35      1.0000 0.83050  0.31610  0.03950  Biso   1.000  H
  C52      1.0000 0.83040  0.29793  0.10325  Biso   1.000  C
  H36      1.0000 0.75450  0.26600  0.10050  Biso   1.000  H
  C53      1.0000 0.56660  0.16338  0.21003  Biso   1.000  C
  C54      1.0000 0.47120  0.11452  0.18817  Biso   1.000  C
  C55      1.0000 0.36320  0.07723  0.21195  Biso   1.000  C
  H37      1.0000 0.35260  0.08140  0.24230  Biso   1.000  H
  C56      1.0000 0.27110  0.03392  0.19112  Biso   1.000  C
  H38      1.0000 0.19680  0.00900  0.20730  Biso   1.000  H
  C57      1.0000 0.28770  0.02716  0.14699  Biso   1.000  C
  H39      1.0000 0.22350  0.99780  0.13310  Biso   1.000  H
  C58      1.0000 0.39860  0.06326  0.12249  Biso   1.000  C
  C59      1.0000 0.48870  0.10719  0.14346  Biso   1.000  C
  H40      1.0000 0.56230  0.13220  0.12730  Biso   1.000  H
  C60      1.0000 0.42170  0.05376  0.07465  Biso   1.000  C
  Ag11     1.0000 0.30476  0.77001  0.70931  Biso   1.000  Ag
  Ag12     1.0000 0.97215  0.44257  0.51584  Biso   1.000  Ag
  O21      1.0000 0.15640  0.69592  0.68598  Biso   1.000  O
  O22      1.0000 0.04730  0.66747  0.75046  Biso   1.000  O
  O23      1.0000 0.02060  0.58787  0.55365  Biso   1.000  O
  O24      1.0000 0.84170  0.51167  0.55824  Biso   1.000  O
  N11      1.0000 0.39140  0.81264  0.64246  Biso   1.000  N
  N12      1.0000 0.48090  0.87421  0.56848  Biso   1.000  N
  C61      1.0000 0.49910  0.85818  0.64437  Biso   1.000  C
  H41      1.0000 0.54610  0.86990  0.67140  Biso   1.000  H
  C62      1.0000 0.54290  0.88841  0.60745  Biso   1.000  C
  H42      1.0000 0.61940  0.92020  0.61010  Biso   1.000  H
  C63      1.0000 0.37540  0.82818  0.56662  Biso   1.000  C
  H43      1.0000 0.33050  0.81610  0.53950  Biso   1.000  H
  C64      1.0000 0.33040  0.79793  0.60325  Biso   1.000  C
  H44      1.0000 0.25450  0.76600  0.60050  Biso   1.000  H
  C65      1.0000 0.06660  0.66338  0.71003  Biso   1.000  C
  C66      1.0000 0.97120  0.61452  0.68817  Biso   1.000  C
  C67      1.0000 0.86320  0.57723  0.71195  Biso   1.000  C
  H45      1.0000 0.85260  0.58140  0.74230  Biso   1.000  H
  C68      1.0000 0.77110  0.53392  0.69112  Biso   1.000  C
  H46      1.0000 0.69680  0.50900  0.70730  Biso   1.000  H
  C69      1.0000 0.78770  0.52716  0.64699  Biso   1.000  C
  H47      1.0000 0.72350  0.49780  0.63310  Biso   1.000  H
  C70      1.0000 0.89860  0.56326  0.62249  Biso   1.000  C
  C71      1.0000 0.98870  0.60719  0.64346  Biso   1.000  C
  H48      1.0000 0.06230  0.63220  0.62730  Biso   1.000  H
  C72      1.0000 0.92170  0.55376  0.57465  Biso   1.000  C
  Ag13     1.0000 0.69524  0.72999  0.70931  Biso   1.000  Ag
  Ag14     1.0000 0.02785  0.05743  0.51584  Biso   1.000  Ag
  O25      1.0000 0.84360  0.80408  0.68598  Biso   1.000  O
  O26      1.0000 0.95270  0.83253  0.75046  Biso   1.000  O
  O27      1.0000 0.97940  0.91213  0.55365  Biso   1.000  O
  O28      1.0000 0.15830  0.98833  0.55824  Biso   1.000  O
  N13      1.0000 0.60860  0.68736  0.64246  Biso   1.000  N
  N14      1.0000 0.51910  0.62579  0.56848  Biso   1.000  N
  C73      1.0000 0.50090  0.64182  0.64437  Biso   1.000  C
  H49      1.0000 0.45390  0.63010  0.67140  Biso   1.000  H
  C74      1.0000 0.45710  0.61159  0.60745  Biso   1.000  C
  H50      1.0000 0.38060  0.57980  0.61010  Biso   1.000  H
  C75      1.0000 0.62460  0.67182  0.56662  Biso   1.000  C
  H51      1.0000 0.66950  0.68390  0.53950  Biso   1.000  H
  C76      1.0000 0.66960  0.70207  0.60325  Biso   1.000  C
  H52      1.0000 0.74550  0.73400  0.60050  Biso   1.000  H
  C77      1.0000 0.93340  0.83662  0.71003  Biso   1.000  C
  C78      1.0000 0.02880  0.88548  0.68817  Biso   1.000  C
  C79      1.0000 0.13680  0.92277  0.71195  Biso   1.000  C
  H53      1.0000 0.14740  0.91860  0.74230  Biso   1.000  H
  C80      1.0000 0.22890  0.96608  0.69112  Biso   1.000  C
  H54      1.0000 0.30320  0.99100  0.70730  Biso   1.000  H
  C81      1.0000 0.21230  0.97284  0.64699  Biso   1.000  C
  H55      1.0000 0.27650  0.00220  0.63310  Biso   1.000  H
  C82      1.0000 0.10140  0.93674  0.62249  Biso   1.000  C
  C83      1.0000 0.01130  0.89281  0.64346  Biso   1.000  C
  H56      1.0000 0.93770  0.86780  0.62730  Biso   1.000  H
  C84      1.0000 0.07830  0.94624  0.57465  Biso   1.000  C
  Ag15     1.0000 0.19524  0.22999  0.20931  Biso   1.000  Ag
  Ag16     1.0000 0.52785  0.55743  0.01584  Biso   1.000  Ag
  O29      1.0000 0.34360  0.30408  0.18598  Biso   1.000  O
  O30      1.0000 0.45270  0.33253  0.25046  Biso   1.000  O
  O31      1.0000 0.47940  0.41213  0.05365  Biso   1.000  O
  O32      1.0000 0.65830  0.48833  0.05824  Biso   1.000  O
  N15      1.0000 0.10860  0.18736  0.14246  Biso   1.000  N
  N16      1.0000 0.01910  0.12579  0.06848  Biso   1.000  N
  C85      1.0000 0.00090  0.14182  0.14437  Biso   1.000  C
  H57      1.0000 0.95390  0.13010  0.17140  Biso   1.000  H
  C86      1.0000 0.95710  0.11159  0.10745  Biso   1.000  C
  H58      1.0000 0.88060  0.07980  0.11010  Biso   1.000  H
  C87      1.0000 0.12460  0.17182  0.06662  Biso   1.000  C
  H59      1.0000 0.16950  0.18390  0.03950  Biso   1.000  H
  C88      1.0000 0.16960  0.20207  0.10325  Biso   1.000  C
  H60      1.0000 0.24550  0.23400  0.10050  Biso   1.000  H
  C89      1.0000 0.43340  0.33662  0.21003  Biso   1.000  C
  C90      1.0000 0.52880  0.38548  0.18817  Biso   1.000  C
  C91      1.0000 0.63680  0.42277  0.21195  Biso   1.000  C
  H61      1.0000 0.64740  0.41860  0.24230  Biso   1.000  H
  C92      1.0000 0.72890  0.46608  0.19112  Biso   1.000  C
  H62      1.0000 0.80320  0.49100  0.20730  Biso   1.000  H
  C93      1.0000 0.71230  0.47284  0.14699  Biso   1.000  C
  H63      1.0000 0.77650  0.50220  0.13310  Biso   1.000  H
  C94      1.0000 0.60140  0.43674  0.12249  Biso   1.000  C
  C95      1.0000 0.51130  0.39281  0.14346  Biso   1.000  C
  H64      1.0000 0.43770  0.36780  0.12730  Biso   1.000  H
  C96      1.0000 0.57830  0.44624  0.07465  Biso   1.000  C
  Ag17     1.0000 0.80476  0.22999  0.70931  Biso   1.000  Ag
  Ag18     1.0000 0.47215  0.55743  0.51584  Biso   1.000  Ag
  O33      1.0000 0.65640  0.30408  0.68598  Biso   1.000  O
  O34      1.0000 0.54730  0.33253  0.75046  Biso   1.000  O
  O35      1.0000 0.52060  0.41213  0.55365  Biso   1.000  O
  O36      1.0000 0.34170  0.48833  0.55824  Biso   1.000  O
  N17      1.0000 0.89140  0.18736  0.64246  Biso   1.000  N
  N18      1.0000 0.98090  0.12579  0.56848  Biso   1.000  N
  C97      1.0000 0.99910  0.14182  0.64437  Biso   1.000  C
  H65      1.0000 0.04610  0.13010  0.67140  Biso   1.000  H
  C98      1.0000 0.04290  0.11159  0.60745  Biso   1.000  C
  H66      1.0000 0.11940  0.07980  0.61010  Biso   1.000  H
  C99      1.0000 0.87540  0.17182  0.56662  Biso   1.000  C
  H67      1.0000 0.83050  0.18390  0.53950  Biso   1.000  H
  C100     1.0000 0.83040  0.20207  0.60325  Biso   1.000  C
  H68      1.0000 0.75450  0.23400  0.60050  Biso   1.000  H
  C101     1.0000 0.56660  0.33662  0.71003  Biso   1.000  C
  C102     1.0000 0.47120  0.38548  0.68817  Biso   1.000  C
  C103     1.0000 0.36320  0.42277  0.71195  Biso   1.000  C
  H69      1.0000 0.35260  0.41860  0.74230  Biso   1.000  H
  C104     1.0000 0.27110  0.46608  0.69112  Biso   1.000  C
  H70      1.0000 0.19680  0.49100  0.70730  Biso   1.000  H
  C105     1.0000 0.28770  0.47284  0.64699  Biso   1.000  C
  H71      1.0000 0.22350  0.50220  0.63310  Biso   1.000  H
  C106     1.0000 0.39860  0.43674  0.62249  Biso   1.000  C
  C107     1.0000 0.48870  0.39281  0.64346  Biso   1.000  C
  H72      1.0000 0.56230  0.36780  0.62730  Biso   1.000  H
  C108     1.0000 0.42170  0.44624  0.57465  Biso   1.000  C
  Ag19     1.0000 0.30476  0.72999  0.20931  Biso   1.000  Ag
  Ag20     1.0000 0.97215  0.05743  0.01584  Biso   1.000  Ag
  O37      1.0000 0.15640  0.80408  0.18598  Biso   1.000  O
  O38      1.0000 0.04730  0.83253  0.25046  Biso   1.000  O
  O39      1.0000 0.02060  0.91213  0.05365  Biso   1.000  O
  O40      1.0000 0.84170  0.98833  0.05824  Biso   1.000  O
  N19      1.0000 0.39140  0.68736  0.14246  Biso   1.000  N
  N20      1.0000 0.48090  0.62579  0.06848  Biso   1.000  N
  C109     1.0000 0.49910  0.64182  0.14437  Biso   1.000  C
  H73      1.0000 0.54610  0.63010  0.17140  Biso   1.000  H
  C110     1.0000 0.54290  0.61159  0.10745  Biso   1.000  C
  H74      1.0000 0.61940  0.57980  0.11010  Biso   1.000  H
  C111     1.0000 0.37540  0.67182  0.06662  Biso   1.000  C
  H75      1.0000 0.33050  0.68390  0.03950  Biso   1.000  H
  C112     1.0000 0.33040  0.70207  0.10325  Biso   1.000  C
  H76      1.0000 0.25450  0.73400  0.10050  Biso   1.000  H
  C113     1.0000 0.06660  0.83662  0.21003  Biso   1.000  C
  C114     1.0000 0.97120  0.88548  0.18817  Biso   1.000  C
  C115     1.0000 0.86320  0.92277  0.21195  Biso   1.000  C
  H77      1.0000 0.85260  0.91860  0.24230  Biso   1.000  H
  C116     1.0000 0.77110  0.96608  0.19112  Biso   1.000  C
  H78      1.0000 0.69680  0.99100  0.20730  Biso   1.000  H
  C117     1.0000 0.78770  0.97284  0.14699  Biso   1.000  C
  H79      1.0000 0.72350  0.00220  0.13310  Biso   1.000  H
  C118     1.0000 0.89860  0.93674  0.12249  Biso   1.000  C
  C119     1.0000 0.98870  0.89281  0.14346  Biso   1.000  C
  H80      1.0000 0.06230  0.86780  0.12730  Biso   1.000  H
  C120     1.0000 0.92170  0.94624  0.07465  Biso   1.000  C
  Ag21     1.0000 0.69524  0.77001  0.20931  Biso   1.000  Ag
  Ag22     1.0000 0.02785  0.44257  0.01584  Biso   1.000  Ag
  O41      1.0000 0.84360  0.69592  0.18598  Biso   1.000  O
  O42      1.0000 0.95270  0.66747  0.25046  Biso   1.000  O
  O43      1.0000 0.97940  0.58787  0.05365  Biso   1.000  O
  O44      1.0000 0.15830  0.51167  0.05824  Biso   1.000  O
  N21      1.0000 0.60860  0.81264  0.14246  Biso   1.000  N
  N22      1.0000 0.51910  0.87421  0.06848  Biso   1.000  N
  C121     1.0000 0.50090  0.85818  0.14437  Biso   1.000  C
  H81      1.0000 0.45390  0.86990  0.17140  Biso   1.000  H
  C122     1.0000 0.45710  0.88841  0.10745  Biso   1.000  C
  H82      1.0000 0.38060  0.92020  0.11010  Biso   1.000  H
  C123     1.0000 0.62460  0.82818  0.06662  Biso   1.000  C
  H83      1.0000 0.66950  0.81610  0.03950  Biso   1.000  H
  C124     1.0000 0.66960  0.79793  0.10325  Biso   1.000  C
  H84      1.0000 0.74550  0.76600  0.10050  Biso   1.000  H
  C125     1.0000 0.93340  0.66338  0.21003  Biso   1.000  C
  C126     1.0000 0.02880  0.61452  0.18817  Biso   1.000  C
  C127     1.0000 0.13680  0.57723  0.21195  Biso   1.000  C
  H85      1.0000 0.14740  0.58140  0.24230  Biso   1.000  H
  C128     1.0000 0.22890  0.53392  0.19112  Biso   1.000  C
  H86      1.0000 0.30320  0.50900  0.20730  Biso   1.000  H
  C129     1.0000 0.21230  0.52716  0.14699  Biso   1.000  C
  H87      1.0000 0.27650  0.49780  0.13310  Biso   1.000  H
  C130     1.0000 0.10140  0.56326  0.12249  Biso   1.000  C
  C131     1.0000 0.01130  0.60719  0.14346  Biso   1.000  C
  H88      1.0000 0.93770  0.63220  0.12730  Biso   1.000  H
  C132     1.0000 0.07830  0.55376  0.07465  Biso   1.000  C
  Ag23     1.0000 0.19524  0.27001  0.70931  Biso   1.000  Ag
  Ag24     1.0000 0.52785  0.94257  0.51584  Biso   1.000  Ag
  O45      1.0000 0.34360  0.19592  0.68598  Biso   1.000  O
  O46      1.0000 0.45270  0.16747  0.75046  Biso   1.000  O
  O47      1.0000 0.47940  0.08787  0.55365  Biso   1.000  O
  O48      1.0000 0.65830  0.01167  0.55824  Biso   1.000  O
  N23      1.0000 0.10860  0.31264  0.64246  Biso   1.000  N
  N24      1.0000 0.01910  0.37421  0.56848  Biso   1.000  N
  C133     1.0000 0.00090  0.35818  0.64437  Biso   1.000  C
  H89      1.0000 0.95390  0.36990  0.67140  Biso   1.000  H
  C134     1.0000 0.95710  0.38841  0.60745  Biso   1.000  C
  H90      1.0000 0.88060  0.42020  0.61010  Biso   1.000  H
  C135     1.0000 0.12460  0.32818  0.56662  Biso   1.000  C
  H91      1.0000 0.16950  0.31610  0.53950  Biso   1.000  H
  C136     1.0000 0.16960  0.29793  0.60325  Biso   1.000  C
  H92      1.0000 0.24550  0.26600  0.60050  Biso   1.000  H
  C137     1.0000 0.43340  0.16338  0.71003  Biso   1.000  C
  C138     1.0000 0.52880  0.11452  0.68817  Biso   1.000  C
  C139     1.0000 0.63680  0.07723  0.71195  Biso   1.000  C
  H93      1.0000 0.64740  0.08140  0.74230  Biso   1.000  H
  C140     1.0000 0.72890  0.03392  0.69112  Biso   1.000  C
  H94      1.0000 0.80320  0.00900  0.70730  Biso   1.000  H
  C141     1.0000 0.71230  0.02716  0.64699  Biso   1.000  C
  H95      1.0000 0.77650  0.99780  0.63310  Biso   1.000  H
  C142     1.0000 0.60140  0.06326  0.62249  Biso   1.000  C
  C143     1.0000 0.51130  0.10719  0.64346  Biso   1.000  C
  H96      1.0000 0.43770  0.13220  0.62730  Biso   1.000  H
  C144     1.0000 0.57830  0.05376  0.57465  Biso   1.000  C
  Ag25     1.0000 0.19524  0.72999  0.79069  Biso   1.000  Ag
  Ag26     1.0000 0.52785  0.05743  0.98416  Biso   1.000  Ag
  O49      1.0000 0.34360  0.80408  0.81402  Biso   1.000  O
  O50      1.0000 0.45270  0.83253  0.74954  Biso   1.000  O
  O51      1.0000 0.47940  0.91213  0.94635  Biso   1.000  O
  O52      1.0000 0.65830  0.98833  0.94176  Biso   1.000  O
  N25      1.0000 0.10860  0.68736  0.85754  Biso   1.000  N
  N26      1.0000 0.01910  0.62579  0.93152  Biso   1.000  N
  C145     1.0000 0.00090  0.64182  0.85563  Biso   1.000  C
  H97      1.0000 0.95390  0.63010  0.82860  Biso   1.000  H
  C146     1.0000 0.95710  0.61159  0.89255  Biso   1.000  C
  H98      1.0000 0.88060  0.57980  0.88990  Biso   1.000  H
  C147     1.0000 0.12460  0.67182  0.93338  Biso   1.000  C
  H99      1.0000 0.16950  0.68390  0.96050  Biso   1.000  H
  C148     1.0000 0.16960  0.70207  0.89675  Biso   1.000  C
  H100     1.0000 0.24550  0.73400  0.89950  Biso   1.000  H
  C149     1.0000 0.43340  0.83662  0.78997  Biso   1.000  C
  C150     1.0000 0.52880  0.88548  0.81183  Biso   1.000  C
  C151     1.0000 0.63680  0.92277  0.78805  Biso   1.000  C
  H101     1.0000 0.64740  0.91860  0.75770  Biso   1.000  H
  C152     1.0000 0.72890  0.96608  0.80888  Biso   1.000  C
  H102     1.0000 0.80320  0.99100  0.79270  Biso   1.000  H
  C153     1.0000 0.71230  0.97284  0.85301  Biso   1.000  C
  H103     1.0000 0.77650  0.00220  0.86690  Biso   1.000  H
  C154     1.0000 0.60140  0.93674  0.87751  Biso   1.000  C
  C155     1.0000 0.51130  0.89281  0.85654  Biso   1.000  C
  H104     1.0000 0.43770  0.86780  0.87270  Biso   1.000  H
  C156     1.0000 0.57830  0.94624  0.92535  Biso   1.000  C
  Ag27     1.0000 0.69524  0.22999  0.29069  Biso   1.000  Ag
  Ag28     1.0000 0.02785  0.55743  0.48416  Biso   1.000  Ag
  O53      1.0000 0.84360  0.30408  0.31402  Biso   1.000  O
  O54      1.0000 0.95270  0.33253  0.24954  Biso   1.000  O
  O55      1.0000 0.97940  0.41213  0.44635  Biso   1.000  O
  O56      1.0000 0.15830  0.48833  0.44176  Biso   1.000  O
  N27      1.0000 0.60860  0.18736  0.35754  Biso   1.000  N
  N28      1.0000 0.51910  0.12579  0.43152  Biso   1.000  N
  C157     1.0000 0.50090  0.14182  0.35563  Biso   1.000  C
  H105     1.0000 0.45390  0.13010  0.32860  Biso   1.000  H
  C158     1.0000 0.45710  0.11159  0.39255  Biso   1.000  C
  H106     1.0000 0.38060  0.07980  0.38990  Biso   1.000  H
  C159     1.0000 0.62460  0.17182  0.43338  Biso   1.000  C
  H107     1.0000 0.66950  0.18390  0.46050  Biso   1.000  H
  C160     1.0000 0.66960  0.20207  0.39675  Biso   1.000  C
  H108     1.0000 0.74550  0.23400  0.39950  Biso   1.000  H
  C161     1.0000 0.93340  0.33662  0.28997  Biso   1.000  C
  C162     1.0000 0.02880  0.38548  0.31183  Biso   1.000  C
  C163     1.0000 0.13680  0.42277  0.28805  Biso   1.000  C
  H109     1.0000 0.14740  0.41860  0.25770  Biso   1.000  H
  C164     1.0000 0.22890  0.46608  0.30888  Biso   1.000  C
  H110     1.0000 0.30320  0.49100  0.29270  Biso   1.000  H
  C165     1.0000 0.21230  0.47284  0.35301  Biso   1.000  C
  H111     1.0000 0.27650  0.50220  0.36690  Biso   1.000  H
  C166     1.0000 0.10140  0.43674  0.37751  Biso   1.000  C
  C167     1.0000 0.01130  0.39281  0.35654  Biso   1.000  C
  H112     1.0000 0.93770  0.36780  0.37270  Biso   1.000  H
  C168     1.0000 0.07830  0.44624  0.42535  Biso   1.000  C
  Ag29     1.0000 0.30476  0.27001  0.29069  Biso   1.000  Ag
  Ag30     1.0000 0.97215  0.94257  0.48416  Biso   1.000  Ag
  O57      1.0000 0.15640  0.19592  0.31402  Biso   1.000  O
  O58      1.0000 0.04730  0.16747  0.24954  Biso   1.000  O
  O59      1.0000 0.02060  0.08787  0.44635  Biso   1.000  O
  O60      1.0000 0.84170  0.01167  0.44176  Biso   1.000  O
  N29      1.0000 0.39140  0.31264  0.35754  Biso   1.000  N
  N30      1.0000 0.48090  0.37421  0.43152  Biso   1.000  N
  C169     1.0000 0.49910  0.35818  0.35563  Biso   1.000  C
  H113     1.0000 0.54610  0.36990  0.32860  Biso   1.000  H
  C170     1.0000 0.54290  0.38841  0.39255  Biso   1.000  C
  H114     1.0000 0.61940  0.42020  0.38990  Biso   1.000  H
  C171     1.0000 0.37540  0.32818  0.43338  Biso   1.000  C
  H115     1.0000 0.33050  0.31610  0.46050  Biso   1.000  H
  C172     1.0000 0.33040  0.29793  0.39675  Biso   1.000  C
  H116     1.0000 0.25450  0.26600  0.39950  Biso   1.000  H
  C173     1.0000 0.06660  0.16338  0.28997  Biso   1.000  C
  C174     1.0000 0.97120  0.11452  0.31183  Biso   1.000  C
  C175     1.0000 0.86320  0.07723  0.28805  Biso   1.000  C
  H117     1.0000 0.85260  0.08140  0.25770  Biso   1.000  H
  C176     1.0000 0.77110  0.03392  0.30888  Biso   1.000  C
  H118     1.0000 0.69680  0.00900  0.29270  Biso   1.000  H
  C177     1.0000 0.78770  0.02716  0.35301  Biso   1.000  C
  H119     1.0000 0.72350  0.99780  0.36690  Biso   1.000  H
  C178     1.0000 0.89860  0.06326  0.37751  Biso   1.000  C
  C179     1.0000 0.98870  0.10719  0.35654  Biso   1.000  C
  H120     1.0000 0.06230  0.13220  0.37270  Biso   1.000  H
  C180     1.0000 0.92170  0.05376  0.42535  Biso   1.000  C
  Ag31     1.0000 0.80476  0.77001  0.79069  Biso   1.000  Ag
  Ag32     1.0000 0.47215  0.44257  0.98416  Biso   1.000  Ag
  O61      1.0000 0.65640  0.69592  0.81402  Biso   1.000  O
  O62      1.0000 0.54730  0.66747  0.74954  Biso   1.000  O
  O63      1.0000 0.52060  0.58787  0.94635  Biso   1.000  O
  O64      1.0000 0.34170  0.51167  0.94176  Biso   1.000  O
  N31      1.0000 0.89140  0.81264  0.85754  Biso   1.000  N
  N32      1.0000 0.98090  0.87421  0.93152  Biso   1.000  N
  C181     1.0000 0.99910  0.85818  0.85563  Biso   1.000  C
  H121     1.0000 0.04610  0.86990  0.82860  Biso   1.000  H
  C182     1.0000 0.04290  0.88841  0.89255  Biso   1.000  C
  H122     1.0000 0.11940  0.92020  0.88990  Biso   1.000  H
  C183     1.0000 0.87540  0.82818  0.93338  Biso   1.000  C
  H123     1.0000 0.83050  0.81610  0.96050  Biso   1.000  H
  C184     1.0000 0.83040  0.79793  0.89675  Biso   1.000  C
  H124     1.0000 0.75450  0.76600  0.89950  Biso   1.000  H
  C185     1.0000 0.56660  0.66338  0.78997  Biso   1.000  C
  C186     1.0000 0.47120  0.61452  0.81183  Biso   1.000  C
  C187     1.0000 0.36320  0.57723  0.78805  Biso   1.000  C
  H125     1.0000 0.35260  0.58140  0.75770  Biso   1.000  H
  C188     1.0000 0.27110  0.53392  0.80888  Biso   1.000  C
  H126     1.0000 0.19680  0.50900  0.79270  Biso   1.000  H
  C189     1.0000 0.28770  0.52716  0.85301  Biso   1.000  C
  H127     1.0000 0.22350  0.49780  0.86690  Biso   1.000  H
  C190     1.0000 0.39860  0.56326  0.87751  Biso   1.000  C
  C191     1.0000 0.48870  0.60719  0.85654  Biso   1.000  C
  H128     1.0000 0.56230  0.63220  0.87270  Biso   1.000  H
  C192     1.0000 0.42170  0.55376  0.92535  Biso   1.000  C
