data_image0
_cell_length_a       9.758
_cell_length_b       16.575
_cell_length_c       21.452
_cell_angle_alpha    104.13
_cell_angle_beta     100.68
_cell_angle_gamma    96.53

_symmetry_space_group_name_H-M    "P 1"
_symmetry_int_tables_number       1

loop_
  _symmetry_equiv_pos_as_xyz
  'x, y, z'

loop_
  _atom_site_label
  _atom_site_occupancy
  _atom_site_fract_x
  _atom_site_fract_y
  _atom_site_fract_z
  _atom_site_thermal_displace_type
  _atom_site_B_iso_or_equiv
  _atom_site_type_symbol
  Ce1      1.0000 0.27720  0.51746  0.99827  Biso   1.000  Ce
  I1       1.0000 0.76373  0.99164  0.50025  Biso   1.000  I
  I2       1.0000 0.98493  0.77848  0.46957  Biso   1.000  I
  I3       1.0000 0.08712  0.97835  0.67145  Biso   1.000  I
  I4       1.0000 0.70094  0.78769  0.61220  Biso   1.000  I
  Cu1      1.0000 0.01258  0.94228  0.53908  Biso   1.000  Cu
  Cu2      1.0000 0.75388  0.82695  0.50223  Biso   1.000  Cu
  Cu3      1.0000 0.82017  0.94511  0.62078  Biso   1.000  Cu
  Cu4      1.0000 0.96305  0.81685  0.59713  Biso   1.000  Cu
  O1       1.0000 0.17320  0.54930  0.09430  Biso   1.000  O
  O2       1.0000 0.94590  0.48920  0.07510  Biso   1.000  O
  O3       1.0000 0.54380  0.37030  0.92640  Biso   1.000  O
  O4       1.0000 0.32430  0.40520  0.91200  Biso   1.000  O
  O5       1.0000 0.35500  0.58710  0.91880  Biso   1.000  O
  O6       1.0000 0.56880  0.54990  0.93720  Biso   1.000  O
  N1       1.0000 0.57820  0.76310  0.43490  Biso   1.000  N
  N2       1.0000 0.70560  0.02610  0.66610  Biso   1.000  N
  N3       1.0000 0.09790  0.74990  0.63750  Biso   1.000  N
  C1       1.0000 0.45280  0.78620  0.43830  Biso   1.000  C
  H1       1.0000 0.44940  0.83470  0.47030  Biso   1.000  H
  C2       1.0000 0.32790  0.74170  0.39650  Biso   1.000  C
  H2       1.0000 0.24240  0.75800  0.40310  Biso   1.000  H
  C3       1.0000 0.32890  0.67210  0.34440  Biso   1.000  C
  C4       1.0000 0.45990  0.64830  0.34020  Biso   1.000  C
  H3       1.0000 0.46750  0.60110  0.30790  Biso   1.000  H
  C5       1.0000 0.57860  0.69660  0.38540  Biso   1.000  C
  H4       1.0000 0.66580  0.68140  0.38070  Biso   1.000  H
  C6       1.0000 0.19640  0.62320  0.29800  Biso   1.000  C
  C7       1.0000 0.19080  0.59710  0.23080  Biso   1.000  C
  H5       1.0000 0.27160  0.60890  0.21540  Biso   1.000  H
  C8       1.0000 0.06740  0.55380  0.18630  Biso   1.000  C
  C9       1.0000 0.94690  0.53180  0.20980  Biso   1.000  C
  H6       1.0000 0.86550  0.49950  0.18060  Biso   1.000  H
  C10      1.0000 0.94990  0.55780  0.27570  Biso   1.000  C
  H7       1.0000 0.87020  0.54350  0.29120  Biso   1.000  H
  C11      1.0000 0.07060  0.60530  0.31920  Biso   1.000  C
  H8       1.0000 0.06910  0.62590  0.36340  Biso   1.000  H
  C12      1.0000 0.06050  0.52740  0.11420  Biso   1.000  C
  C13      1.0000 0.76010  0.10380  0.70870  Biso   1.000  C
  H9       1.0000 0.85790  0.11990  0.72070  Biso   1.000  H
  C14      1.0000 0.68060  0.15730  0.73370  Biso   1.000  C
  H10      1.0000 0.72410  0.20860  0.76360  Biso   1.000  H
  C15      1.0000 0.53170  0.13860  0.71630  Biso   1.000  C
  C16      1.0000 0.47300  0.05640  0.67030  Biso   1.000  C
  H11      1.0000 0.37590  0.03870  0.65560  Biso   1.000  H
  C17      1.0000 0.56640  0.00640  0.64970  Biso   1.000  C
  H12      1.0000 0.52840  0.95320  0.62140  Biso   1.000  H
  C18      1.0000 0.43330  0.19440  0.74060  Biso   1.000  C
  C19      1.0000 0.47180  0.25430  0.80320  Biso   1.000  C
  H13      1.0000 0.56250  0.26100  0.82890  Biso   1.000  H
  C20      1.0000 0.37720  0.30250  0.82650  Biso   1.000  C
  C21      1.0000 0.24410  0.29430  0.78700  Biso   1.000  C
  H14      1.0000 0.17930  0.32630  0.80290  Biso   1.000  H
  C22      1.0000 0.20570  0.23990  0.72470  Biso   1.000  C
  H15      1.0000 0.11790  0.23760  0.69800  Biso   1.000  H
  C23      1.0000 0.29820  0.18830  0.70180  Biso   1.000  C
  H16      1.0000 0.27050  0.14960  0.66050  Biso   1.000  H
  C24      1.0000 0.41760  0.36380  0.89300  Biso   1.000  C
  C25      1.0000 0.23820  0.76770  0.63660  Biso   1.000  C
  H17      1.0000 0.26650  0.80540  0.61390  Biso   1.000  H
  C26      1.0000 0.33820  0.73030  0.66890  Biso   1.000  C
  H18      1.0000 0.43170  0.74050  0.66530  Biso   1.000  H
  C27      1.0000 0.30090  0.67770  0.70690  Biso   1.000  C
  C28      1.0000 0.15960  0.66240  0.70730  Biso   1.000  C
  H19      1.0000 0.12990  0.62830  0.73250  Biso   1.000  H
  C29      1.0000 0.06410  0.69520  0.67250  Biso   1.000  C
  H20      1.0000 0.96920  0.67980  0.67210  Biso   1.000  H
  C30      1.0000 0.41030  0.63930  0.74340  Biso   1.000  C
  C31      1.0000 0.39180  0.62390  0.80290  Biso   1.000  C
  H21      1.0000 0.31050  0.63480  0.81800  Biso   1.000  H
  C32      1.0000 0.49530  0.59210  0.83960  Biso   1.000  C
  C33      1.0000 0.61690  0.57580  0.81890  Biso   1.000  C
  H22      1.0000 0.68850  0.55880  0.84530  Biso   1.000  H
  C34      1.0000 0.63080  0.58590  0.75490  Biso   1.000  C
  H23      1.0000 0.70820  0.57030  0.73820  Biso   1.000  H
  C35      1.0000 0.53050  0.61820  0.71880  Biso   1.000  C
  H24      1.0000 0.54130  0.62620  0.67850  Biso   1.000  H
  C36      1.0000 0.47240  0.57500  0.90320  Biso   1.000  C
  Ce2      1.0000 0.72280  0.48254  0.00173  Biso   1.000  Ce
  I5       1.0000 0.23627  0.00836  0.49975  Biso   1.000  I
  I6       1.0000 0.01507  0.22152  0.53043  Biso   1.000  I
  I7       1.0000 0.91288  0.02165  0.32855  Biso   1.000  I
  I8       1.0000 0.29906  0.21231  0.38780  Biso   1.000  I
  Cu5      1.0000 0.98742  0.05772  0.46092  Biso   1.000  Cu
  Cu6      1.0000 0.24612  0.17305  0.49777  Biso   1.000  Cu
  Cu7      1.0000 0.17983  0.05489  0.37922  Biso   1.000  Cu
  Cu8      1.0000 0.03695  0.18315  0.40287  Biso   1.000  Cu
  O7       1.0000 0.82680  0.45070  0.90570  Biso   1.000  O
  O8       1.0000 0.05410  0.51080  0.92490  Biso   1.000  O
  O9       1.0000 0.45620  0.62970  0.07360  Biso   1.000  O
  O10      1.0000 0.67570  0.59480  0.08800  Biso   1.000  O
  O11      1.0000 0.64500  0.41290  0.08120  Biso   1.000  O
  O12      1.0000 0.43120  0.45010  0.06280  Biso   1.000  O
  N4       1.0000 0.42180  0.23690  0.56510  Biso   1.000  N
  N5       1.0000 0.29440  0.97390  0.33390  Biso   1.000  N
  N6       1.0000 0.90210  0.25010  0.36250  Biso   1.000  N
  C37      1.0000 0.54720  0.21380  0.56170  Biso   1.000  C
  H25      1.0000 0.55060  0.16530  0.52970  Biso   1.000  H
  C38      1.0000 0.67210  0.25830  0.60350  Biso   1.000  C
  H26      1.0000 0.75760  0.24200  0.59690  Biso   1.000  H
  C39      1.0000 0.67110  0.32790  0.65560  Biso   1.000  C
  C40      1.0000 0.54010  0.35170  0.65980  Biso   1.000  C
  H27      1.0000 0.53250  0.39890  0.69210  Biso   1.000  H
  C41      1.0000 0.42140  0.30340  0.61460  Biso   1.000  C
  H28      1.0000 0.33420  0.31860  0.61930  Biso   1.000  H
  C42      1.0000 0.80360  0.37680  0.70200  Biso   1.000  C
  C43      1.0000 0.80920  0.40290  0.76920  Biso   1.000  C
  H29      1.0000 0.72840  0.39110  0.78460  Biso   1.000  H
  C44      1.0000 0.93260  0.44620  0.81370  Biso   1.000  C
  C45      1.0000 0.05310  0.46820  0.79020  Biso   1.000  C
  H30      1.0000 0.13450  0.50050  0.81940  Biso   1.000  H
  C46      1.0000 0.05010  0.44220  0.72430  Biso   1.000  C
  H31      1.0000 0.12980  0.45650  0.70880  Biso   1.000  H
  C47      1.0000 0.92940  0.39470  0.68080  Biso   1.000  C
  H32      1.0000 0.93090  0.37410  0.63660  Biso   1.000  H
  C48      1.0000 0.93950  0.47260  0.88580  Biso   1.000  C
  C49      1.0000 0.23990  0.89620  0.29130  Biso   1.000  C
  H33      1.0000 0.14210  0.88010  0.27930  Biso   1.000  H
  C50      1.0000 0.31940  0.84270  0.26630  Biso   1.000  C
  H34      1.0000 0.27590  0.79140  0.23640  Biso   1.000  H
  C51      1.0000 0.46830  0.86140  0.28370  Biso   1.000  C
  C52      1.0000 0.52700  0.94360  0.32970  Biso   1.000  C
  H35      1.0000 0.62410  0.96130  0.34440  Biso   1.000  H
  C53      1.0000 0.43360  0.99360  0.35030  Biso   1.000  C
  H36      1.0000 0.47160  0.04680  0.37860  Biso   1.000  H
  C54      1.0000 0.56670  0.80560  0.25940  Biso   1.000  C
  C55      1.0000 0.52820  0.74570  0.19680  Biso   1.000  C
  H37      1.0000 0.43750  0.73900  0.17110  Biso   1.000  H
  C56      1.0000 0.62280  0.69750  0.17350  Biso   1.000  C
  C57      1.0000 0.75590  0.70570  0.21300  Biso   1.000  C
  H38      1.0000 0.82070  0.67370  0.19710  Biso   1.000  H
  C58      1.0000 0.79430  0.76010  0.27530  Biso   1.000  C
  H39      1.0000 0.88210  0.76240  0.30200  Biso   1.000  H
  C59      1.0000 0.70180  0.81170  0.29820  Biso   1.000  C
  H40      1.0000 0.72950  0.85040  0.33950  Biso   1.000  H
  C60      1.0000 0.58240  0.63620  0.10700  Biso   1.000  C
  C61      1.0000 0.76180  0.23230  0.36340  Biso   1.000  C
  H41      1.0000 0.73350  0.19460  0.38610  Biso   1.000  H
  C62      1.0000 0.66180  0.26970  0.33110  Biso   1.000  C
  H42      1.0000 0.56830  0.25950  0.33470  Biso   1.000  H
  C63      1.0000 0.69910  0.32230  0.29310  Biso   1.000  C
  C64      1.0000 0.84040  0.33760  0.29270  Biso   1.000  C
  H43      1.0000 0.87010  0.37170  0.26750  Biso   1.000  H
  C65      1.0000 0.93590  0.30480  0.32750  Biso   1.000  C
  H44      1.0000 0.03080  0.32020  0.32790  Biso   1.000  H
  C66      1.0000 0.58970  0.36070  0.25660  Biso   1.000  C
  C67      1.0000 0.60820  0.37610  0.19710  Biso   1.000  C
  H45      1.0000 0.68950  0.36520  0.18200  Biso   1.000  H
  C68      1.0000 0.50470  0.40790  0.16040  Biso   1.000  C
  C69      1.0000 0.38310  0.42420  0.18110  Biso   1.000  C
  H46      1.0000 0.31150  0.44120  0.15470  Biso   1.000  H
  C70      1.0000 0.36920  0.41410  0.24510  Biso   1.000  C
  H47      1.0000 0.29180  0.42970  0.26180  Biso   1.000  H
  C71      1.0000 0.46950  0.38180  0.28120  Biso   1.000  C
  H48      1.0000 0.45870  0.37380  0.32150  Biso   1.000  H
  C72      1.0000 0.52760  0.42500  0.09680  Biso   1.000  C
