data_image0
_cell_length_a       9.605
_cell_length_b       16.769
_cell_length_c       21.155
_cell_angle_alpha    104.16
_cell_angle_beta     100.31
_cell_angle_gamma    97.16

_symmetry_space_group_name_H-M    "P 1"
_symmetry_int_tables_number       1

loop_
  _symmetry_equiv_pos_as_xyz
  'x, y, z'

loop_
  _atom_site_label
  _atom_site_occupancy
  _atom_site_fract_x
  _atom_site_fract_y
  _atom_site_fract_z
  _atom_site_thermal_displace_type
  _atom_site_B_iso_or_equiv
  _atom_site_type_symbol
  Tb1      1.0000 0.27684  0.51230  0.99710  Biso   1.000  Tb
  I1       1.0000 0.76160  0.98920  0.49996  Biso   1.000  I
  I2       1.0000 0.99071  0.77992  0.47107  Biso   1.000  I
  I3       1.0000 0.08918  0.97768  0.67472  Biso   1.000  I
  I4       1.0000 0.69498  0.78942  0.61293  Biso   1.000  I
  Cu1      1.0000 0.01403  0.94245  0.54044  Biso   1.000  Cu
  Cu2      1.0000 0.75521  0.82692  0.50169  Biso   1.000  Cu
  Cu3      1.0000 0.82035  0.94494  0.62243  Biso   1.000  Cu
  Cu4      1.0000 0.96195  0.81770  0.59979  Biso   1.000  Cu
  O1       1.0000 0.16960  0.54040  0.08880  Biso   1.000  O
  O2       1.0000 0.93930  0.48300  0.06930  Biso   1.000  O
  O3       1.0000 0.55160  0.37790  0.92820  Biso   1.000  O
  O4       1.0000 0.33090  0.40990  0.91300  Biso   1.000  O
  O5       1.0000 0.35920  0.58350  0.92340  Biso   1.000  O
  O6       1.0000 0.57810  0.55220  0.94060  Biso   1.000  O
  N1       1.0000 0.57740  0.76080  0.43260  Biso   1.000  N
  N2       1.0000 0.71060  0.02660  0.66970  Biso   1.000  N
  N3       1.0000 0.09920  0.75310  0.64270  Biso   1.000  N
  C1       1.0000 0.45010  0.78360  0.43460  Biso   1.000  C
  H1       1.0000 0.44600  0.83150  0.46700  Biso   1.000  H
  C2       1.0000 0.32560  0.74020  0.39190  Biso   1.000  C
  H2       1.0000 0.23920  0.75800  0.39660  Biso   1.000  H
  C3       1.0000 0.32580  0.67020  0.34170  Biso   1.000  C
  C4       1.0000 0.45930  0.64760  0.33850  Biso   1.000  C
  H3       1.0000 0.46720  0.60130  0.30550  Biso   1.000  H
  C5       1.0000 0.58020  0.69440  0.38470  Biso   1.000  C
  H4       1.0000 0.66830  0.67800  0.38170  Biso   1.000  H
  C6       1.0000 0.19180  0.62100  0.29400  Biso   1.000  C
  C7       1.0000 0.18770  0.59420  0.22630  Biso   1.000  C
  H5       1.0000 0.26960  0.60670  0.21040  Biso   1.000  H
  C8       1.0000 0.06110  0.54840  0.18140  Biso   1.000  C
  C9       1.0000 0.93850  0.52900  0.20580  Biso   1.000  C
  H6       1.0000 0.85460  0.49780  0.17650  Biso   1.000  H
  C10      1.0000 0.94170  0.55570  0.27250  Biso   1.000  C
  H7       1.0000 0.86000  0.54260  0.28840  Biso   1.000  H
  C11      1.0000 0.06700  0.60260  0.31700  Biso   1.000  C
  H8       1.0000 0.06760  0.62170  0.36220  Biso   1.000  H
  C12      1.0000 0.05670  0.52240  0.10790  Biso   1.000  C
  C13      1.0000 0.76730  0.10170  0.71280  Biso   1.000  C
  H9       1.0000 0.86690  0.11640  0.72590  Biso   1.000  H
  C14      1.0000 0.68490  0.15830  0.73840  Biso   1.000  C
  H10      1.0000 0.72940  0.20920  0.76870  Biso   1.000  H
  C15      1.0000 0.53470  0.13940  0.71910  Biso   1.000  C
  C16      1.0000 0.47900  0.06100  0.67380  Biso   1.000  C
  H11      1.0000 0.38010  0.04560  0.65790  Biso   1.000  H
  C17      1.0000 0.56650  0.00630  0.65230  Biso   1.000  C
  H12      1.0000 0.52470  0.95340  0.62460  Biso   1.000  H
  C18      1.0000 0.43900  0.19660  0.74330  Biso   1.000  C
  C19      1.0000 0.47760  0.25530  0.80460  Biso   1.000  C
  H13      1.0000 0.56920  0.26150  0.83070  Biso   1.000  H
  C20      1.0000 0.38210  0.30590  0.82850  Biso   1.000  C
  C21      1.0000 0.24670  0.29750  0.78990  Biso   1.000  C
  H14      1.0000 0.18250  0.33060  0.80550  Biso   1.000  H
  C22      1.0000 0.20580  0.23850  0.72640  Biso   1.000  C
  H15      1.0000 0.11500  0.23340  0.70000  Biso   1.000  H
  C23      1.0000 0.29940  0.18890  0.70380  Biso   1.000  C
  H16      1.0000 0.27130  0.14990  0.66220  Biso   1.000  H
  C24      1.0000 0.42490  0.36890  0.89500  Biso   1.000  C
  C25      1.0000 0.23440  0.76990  0.64240  Biso   1.000  C
  H17      1.0000 0.26310  0.80740  0.61930  Biso   1.000  H
  C26      1.0000 0.33930  0.73420  0.67520  Biso   1.000  C
  H18      1.0000 0.43500  0.74760  0.67310  Biso   1.000  H
  C27      1.0000 0.30200  0.68030  0.70980  Biso   1.000  C
  C28      1.0000 0.15910  0.66300  0.70970  Biso   1.000  C
  H19      1.0000 0.12750  0.62550  0.73220  Biso   1.000  H
  C29      1.0000 0.06070  0.70080  0.67640  Biso   1.000  C
  H20      1.0000 0.96440  0.68890  0.67790  Biso   1.000  H
  C30      1.0000 0.41220  0.64370  0.74730  Biso   1.000  C
  C31      1.0000 0.39580  0.62740  0.80800  Biso   1.000  C
  H21      1.0000 0.31450  0.63860  0.82430  Biso   1.000  H
  C32      1.0000 0.49950  0.59490  0.84390  Biso   1.000  C
  C33      1.0000 0.62050  0.57830  0.81950  Biso   1.000  C
  H22      1.0000 0.69110  0.55720  0.84340  Biso   1.000  H
  C34      1.0000 0.63620  0.59350  0.75840  Biso   1.000  C
  H23      1.0000 0.71720  0.58210  0.74190  Biso   1.000  H
  C35      1.0000 0.53260  0.62510  0.72300  Biso   1.000  C
  H24      1.0000 0.54340  0.63420  0.68230  Biso   1.000  H
  C36      1.0000 0.47720  0.57510  0.90700  Biso   1.000  C
  Tb2      1.0000 0.72316  0.48770  0.00290  Biso   1.000  Tb
  I5       1.0000 0.23840  0.01080  0.50004  Biso   1.000  I
  I6       1.0000 0.00929  0.22008  0.52893  Biso   1.000  I
  I7       1.0000 0.91082  0.02232  0.32528  Biso   1.000  I
  I8       1.0000 0.30502  0.21058  0.38707  Biso   1.000  I
  Cu5      1.0000 0.98597  0.05755  0.45956  Biso   1.000  Cu
  Cu6      1.0000 0.24479  0.17308  0.49831  Biso   1.000  Cu
  Cu7      1.0000 0.17965  0.05506  0.37757  Biso   1.000  Cu
  Cu8      1.0000 0.03805  0.18230  0.40021  Biso   1.000  Cu
  O7       1.0000 0.83040  0.45960  0.91120  Biso   1.000  O
  O8       1.0000 0.06070  0.51700  0.93070  Biso   1.000  O
  O9       1.0000 0.44840  0.62210  0.07180  Biso   1.000  O
  O10      1.0000 0.66910  0.59010  0.08700  Biso   1.000  O
  O11      1.0000 0.64080  0.41650  0.07660  Biso   1.000  O
  O12      1.0000 0.42190  0.44780  0.05940  Biso   1.000  O
  N4       1.0000 0.42260  0.23920  0.56740  Biso   1.000  N
  N5       1.0000 0.28940  0.97340  0.33030  Biso   1.000  N
  N6       1.0000 0.90080  0.24690  0.35730  Biso   1.000  N
  C37      1.0000 0.54990  0.21640  0.56540  Biso   1.000  C
  H25      1.0000 0.55400  0.16850  0.53300  Biso   1.000  H
  C38      1.0000 0.67440  0.25980  0.60810  Biso   1.000  C
  H26      1.0000 0.76080  0.24200  0.60340  Biso   1.000  H
  C39      1.0000 0.67420  0.32980  0.65830  Biso   1.000  C
  C40      1.0000 0.54070  0.35240  0.66150  Biso   1.000  C
  H27      1.0000 0.53280  0.39870  0.69450  Biso   1.000  H
  C41      1.0000 0.41980  0.30560  0.61530  Biso   1.000  C
  H28      1.0000 0.33170  0.32200  0.61830  Biso   1.000  H
  C42      1.0000 0.80820  0.37900  0.70600  Biso   1.000  C
  C43      1.0000 0.81230  0.40580  0.77370  Biso   1.000  C
  H29      1.0000 0.73040  0.39330  0.78960  Biso   1.000  H
  C44      1.0000 0.93890  0.45160  0.81860  Biso   1.000  C
  C45      1.0000 0.06150  0.47100  0.79420  Biso   1.000  C
  H30      1.0000 0.14540  0.50220  0.82350  Biso   1.000  H
  C46      1.0000 0.05830  0.44430  0.72750  Biso   1.000  C
  H31      1.0000 0.14000  0.45740  0.71160  Biso   1.000  H
  C47      1.0000 0.93300  0.39740  0.68300  Biso   1.000  C
  H32      1.0000 0.93240  0.37830  0.63780  Biso   1.000  H
  C48      1.0000 0.94330  0.47760  0.89210  Biso   1.000  C
  C49      1.0000 0.23270  0.89830  0.28720  Biso   1.000  C
  H33      1.0000 0.13310  0.88360  0.27410  Biso   1.000  H
  C50      1.0000 0.31510  0.84170  0.26160  Biso   1.000  C
  H34      1.0000 0.27060  0.79080  0.23130  Biso   1.000  H
  C51      1.0000 0.46530  0.86060  0.28090  Biso   1.000  C
  C52      1.0000 0.52100  0.93900  0.32620  Biso   1.000  C
  H35      1.0000 0.61990  0.95440  0.34210  Biso   1.000  H
  C53      1.0000 0.43350  0.99370  0.34770  Biso   1.000  C
  H36      1.0000 0.47530  0.04660  0.37540  Biso   1.000  H
  C54      1.0000 0.56100  0.80340  0.25670  Biso   1.000  C
  C55      1.0000 0.52240  0.74470  0.19540  Biso   1.000  C
  H37      1.0000 0.43080  0.73850  0.16930  Biso   1.000  H
  C56      1.0000 0.61790  0.69410  0.17150  Biso   1.000  C
  C57      1.0000 0.75330  0.70250  0.21010  Biso   1.000  C
  H38      1.0000 0.81750  0.66940  0.19450  Biso   1.000  H
  C58      1.0000 0.79420  0.76150  0.27360  Biso   1.000  C
  H39      1.0000 0.88500  0.76660  0.30000  Biso   1.000  H
  C59      1.0000 0.70060  0.81110  0.29620  Biso   1.000  C
  H40      1.0000 0.72870  0.85010  0.33780  Biso   1.000  H
  C60      1.0000 0.57510  0.63110  0.10500  Biso   1.000  C
  C61      1.0000 0.76560  0.23010  0.35760  Biso   1.000  C
  H41      1.0000 0.73690  0.19260  0.38070  Biso   1.000  H
  C62      1.0000 0.66070  0.26580  0.32480  Biso   1.000  C
  H42      1.0000 0.56500  0.25240  0.32690  Biso   1.000  H
  C63      1.0000 0.69800  0.31970  0.29020  Biso   1.000  C
  C64      1.0000 0.84090  0.33700  0.29030  Biso   1.000  C
  H43      1.0000 0.87250  0.37450  0.26780  Biso   1.000  H
  C65      1.0000 0.93930  0.29920  0.32360  Biso   1.000  C
  H44      1.0000 0.03560  0.31110  0.32210  Biso   1.000  H
  C66      1.0000 0.58780  0.35630  0.25270  Biso   1.000  C
  C67      1.0000 0.60420  0.37260  0.19200  Biso   1.000  C
  H45      1.0000 0.68550  0.36140  0.17570  Biso   1.000  H
  C68      1.0000 0.50050  0.40510  0.15610  Biso   1.000  C
  C69      1.0000 0.37950  0.42170  0.18050  Biso   1.000  C
  H46      1.0000 0.30890  0.44280  0.15660  Biso   1.000  H
  C70      1.0000 0.36380  0.40650  0.24160  Biso   1.000  C
  H47      1.0000 0.28280  0.41790  0.25810  Biso   1.000  H
  C71      1.0000 0.46740  0.37490  0.27700  Biso   1.000  C
  H48      1.0000 0.45660  0.36580  0.31770  Biso   1.000  H
  C72      1.0000 0.52280  0.42490  0.09300  Biso   1.000  C
