data_image0
_cell_length_a       9.6689
_cell_length_b       16.716
_cell_length_c       21.277
_cell_angle_alpha    104.23
_cell_angle_beta     100.42
_cell_angle_gamma    96.86

_symmetry_space_group_name_H-M    "P 1"
_symmetry_int_tables_number       1

loop_
  _symmetry_equiv_pos_as_xyz
  'x, y, z'

loop_
  _atom_site_label
  _atom_site_occupancy
  _atom_site_fract_x
  _atom_site_fract_y
  _atom_site_fract_z
  _atom_site_thermal_displace_type
  _atom_site_B_iso_or_equiv
  _atom_site_type_symbol
  Eu1      1.0000 0.27613  0.51536  0.99816  Biso   1.000  Eu
  I1       1.0000 0.76300  0.99030  0.50023  Biso   1.000  I
  I2       1.0000 0.98948  0.77964  0.47165  Biso   1.000  I
  I3       1.0000 0.08940  0.97873  0.67434  Biso   1.000  I
  I4       1.0000 0.69772  0.79038  0.61407  Biso   1.000  I
  Cu1      1.0000 0.01404  0.94278  0.54053  Biso   1.000  Cu
  Cu2      1.0000 0.75541  0.82741  0.50277  Biso   1.000  Cu
  Cu3      1.0000 0.82078  0.94673  0.62266  Biso   1.000  Cu
  Cu4      1.0000 0.96271  0.81831  0.59992  Biso   1.000  Cu
  O1       1.0000 0.17040  0.54440  0.09180  Biso   1.000  O
  O2       1.0000 0.94000  0.48530  0.07200  Biso   1.000  O
  O3       1.0000 0.54520  0.37540  0.92830  Biso   1.000  O
  O4       1.0000 0.32640  0.40800  0.91280  Biso   1.000  O
  O5       1.0000 0.35920  0.58300  0.92170  Biso   1.000  O
  O6       1.0000 0.57670  0.55010  0.93880  Biso   1.000  O
  N1       1.0000 0.57780  0.76170  0.43470  Biso   1.000  N
  N2       1.0000 0.70790  0.02820  0.66810  Biso   1.000  N
  N3       1.0000 0.09810  0.75470  0.64220  Biso   1.000  N
  C1       1.0000 0.45260  0.78370  0.43710  Biso   1.000  C
  H1       1.0000 0.44860  0.83110  0.47000  Biso   1.000  H
  C2       1.0000 0.32760  0.74160  0.39420  Biso   1.000  C
  H2       1.0000 0.24270  0.76100  0.39850  Biso   1.000  H
  C3       1.0000 0.32630  0.67150  0.34530  Biso   1.000  C
  C4       1.0000 0.45750  0.64810  0.33980  Biso   1.000  C
  H3       1.0000 0.46370  0.60190  0.30630  Biso   1.000  H
  C5       1.0000 0.57910  0.69470  0.38520  Biso   1.000  C
  H4       1.0000 0.66640  0.67840  0.38110  Biso   1.000  H
  C6       1.0000 0.19360  0.62210  0.29710  Biso   1.000  C
  C7       1.0000 0.18750  0.59660  0.22810  Biso   1.000  C
  H5       1.0000 0.26750  0.61030  0.21180  Biso   1.000  H
  C8       1.0000 0.06240  0.55110  0.18460  Biso   1.000  C
  C9       1.0000 0.94120  0.53060  0.20840  Biso   1.000  C
  H6       1.0000 0.85810  0.49940  0.17900  Biso   1.000  H
  C10      1.0000 0.94520  0.55660  0.27500  Biso   1.000  C
  H7       1.0000 0.86440  0.54380  0.29100  Biso   1.000  H
  C11      1.0000 0.07090  0.60230  0.31890  Biso   1.000  C
  H8       1.0000 0.07210  0.61990  0.36400  Biso   1.000  H
  C12      1.0000 0.05790  0.52550  0.11060  Biso   1.000  C
  C13      1.0000 0.76440  0.10350  0.71090  Biso   1.000  C
  H9       1.0000 0.86320  0.11860  0.72360  Biso   1.000  H
  C14      1.0000 0.68100  0.15960  0.73690  Biso   1.000  C
  H10      1.0000 0.72400  0.21050  0.76740  Biso   1.000  H
  C15      1.0000 0.53140  0.13960  0.71710  Biso   1.000  C
  C16      1.0000 0.47630  0.05990  0.67130  Biso   1.000  C
  H11      1.0000 0.37810  0.04330  0.65580  Biso   1.000  H
  C17      1.0000 0.56470  0.00800  0.65010  Biso   1.000  C
  H12      1.0000 0.52470  0.95530  0.62150  Biso   1.000  H
  C18      1.0000 0.43480  0.19760  0.74230  Biso   1.000  C
  C19      1.0000 0.47560  0.25640  0.80250  Biso   1.000  C
  H13      1.0000 0.56840  0.26440  0.82720  Biso   1.000  H
  C20      1.0000 0.37820  0.30480  0.82730  Biso   1.000  C
  C21      1.0000 0.24360  0.29630  0.78760  Biso   1.000  C
  H14      1.0000 0.17940  0.32920  0.80320  Biso   1.000  H
  C22      1.0000 0.20390  0.24060  0.72630  Biso   1.000  C
  H15      1.0000 0.11380  0.23630  0.70000  Biso   1.000  H
  C23      1.0000 0.29740  0.19070  0.70340  Biso   1.000  C
  H16      1.0000 0.26960  0.15200  0.66180  Biso   1.000  H
  C24      1.0000 0.41960  0.36750  0.89490  Biso   1.000  C
  C25      1.0000 0.23880  0.77130  0.64350  Biso   1.000  C
  H17      1.0000 0.26840  0.80990  0.62160  Biso   1.000  H
  C26      1.0000 0.34100  0.73560  0.67450  Biso   1.000  C
  H18      1.0000 0.43580  0.74790  0.67180  Biso   1.000  H
  C27      1.0000 0.30110  0.68010  0.71060  Biso   1.000  C
  C28      1.0000 0.15820  0.66190  0.70840  Biso   1.000  C
  H19      1.0000 0.12430  0.62330  0.72930  Biso   1.000  H
  C29      1.0000 0.06550  0.70140  0.67490  Biso   1.000  C
  H20      1.0000 0.96970  0.68890  0.67580  Biso   1.000  H
  C30      1.0000 0.41210  0.64340  0.74550  Biso   1.000  C
  C31      1.0000 0.39490  0.62600  0.80650  Biso   1.000  C
  H21      1.0000 0.31470  0.63760  0.82310  Biso   1.000  H
  C32      1.0000 0.49630  0.59210  0.84080  Biso   1.000  C
  C33      1.0000 0.62180  0.57710  0.81760  Biso   1.000  C
  H22      1.0000 0.69280  0.55710  0.84210  Biso   1.000  H
  C34      1.0000 0.63730  0.59210  0.75930  Biso   1.000  C
  H23      1.0000 0.71830  0.58100  0.74330  Biso   1.000  H
  C35      1.0000 0.53230  0.62410  0.72300  Biso   1.000  C
  H24      1.0000 0.54420  0.63260  0.68260  Biso   1.000  H
  C36      1.0000 0.47790  0.57440  0.90670  Biso   1.000  C
  Eu2      1.0000 0.72387  0.48464  0.00184  Biso   1.000  Eu
  I5       1.0000 0.23700  0.00970  0.49977  Biso   1.000  I
  I6       1.0000 0.01052  0.22036  0.52835  Biso   1.000  I
  I7       1.0000 0.91060  0.02127  0.32566  Biso   1.000  I
  I8       1.0000 0.30228  0.20962  0.38593  Biso   1.000  I
  Cu5      1.0000 0.98596  0.05722  0.45947  Biso   1.000  Cu
  Cu6      1.0000 0.24459  0.17259  0.49723  Biso   1.000  Cu
  Cu7      1.0000 0.17922  0.05327  0.37734  Biso   1.000  Cu
  Cu8      1.0000 0.03729  0.18169  0.40008  Biso   1.000  Cu
  O7       1.0000 0.82960  0.45560  0.90820  Biso   1.000  O
  O8       1.0000 0.06000  0.51470  0.92800  Biso   1.000  O
  O9       1.0000 0.45480  0.62460  0.07170  Biso   1.000  O
  O10      1.0000 0.67360  0.59200  0.08720  Biso   1.000  O
  O11      1.0000 0.64080  0.41700  0.07830  Biso   1.000  O
  O12      1.0000 0.42330  0.44990  0.06120  Biso   1.000  O
  N4       1.0000 0.42220  0.23830  0.56530  Biso   1.000  N
  N5       1.0000 0.29210  0.97180  0.33190  Biso   1.000  N
  N6       1.0000 0.90190  0.24530  0.35780  Biso   1.000  N
  C37      1.0000 0.54740  0.21630  0.56290  Biso   1.000  C
  H25      1.0000 0.55140  0.16890  0.53000  Biso   1.000  H
  C38      1.0000 0.67240  0.25840  0.60580  Biso   1.000  C
  H26      1.0000 0.75730  0.23900  0.60150  Biso   1.000  H
  C39      1.0000 0.67370  0.32850  0.65470  Biso   1.000  C
  C40      1.0000 0.54250  0.35190  0.66020  Biso   1.000  C
  H27      1.0000 0.53630  0.39810  0.69370  Biso   1.000  H
  C41      1.0000 0.42090  0.30530  0.61480  Biso   1.000  C
  H28      1.0000 0.33360  0.32160  0.61890  Biso   1.000  H
  C42      1.0000 0.80640  0.37790  0.70290  Biso   1.000  C
  C43      1.0000 0.81250  0.40340  0.77190  Biso   1.000  C
  H29      1.0000 0.73250  0.38970  0.78820  Biso   1.000  H
  C44      1.0000 0.93760  0.44890  0.81540  Biso   1.000  C
  C45      1.0000 0.05880  0.46940  0.79160  Biso   1.000  C
  H30      1.0000 0.14190  0.50060  0.82100  Biso   1.000  H
  C46      1.0000 0.05480  0.44340  0.72500  Biso   1.000  C
  H31      1.0000 0.13560  0.45620  0.70900  Biso   1.000  H
  C47      1.0000 0.92910  0.39770  0.68110  Biso   1.000  C
  H32      1.0000 0.92790  0.38010  0.63600  Biso   1.000  H
  C48      1.0000 0.94210  0.47450  0.88940  Biso   1.000  C
  C49      1.0000 0.23560  0.89650  0.28910  Biso   1.000  C
  H33      1.0000 0.13680  0.88140  0.27640  Biso   1.000  H
  C50      1.0000 0.31900  0.84040  0.26310  Biso   1.000  C
  H34      1.0000 0.27600  0.78950  0.23260  Biso   1.000  H
  C51      1.0000 0.46860  0.86040  0.28290  Biso   1.000  C
  C52      1.0000 0.52370  0.94010  0.32870  Biso   1.000  C
  H35      1.0000 0.62190  0.95670  0.34420  Biso   1.000  H
  C53      1.0000 0.43530  0.99200  0.34990  Biso   1.000  C
  H36      1.0000 0.47530  0.04470  0.37850  Biso   1.000  H
  C54      1.0000 0.56520  0.80240  0.25770  Biso   1.000  C
  C55      1.0000 0.52440  0.74360  0.19750  Biso   1.000  C
  H37      1.0000 0.43160  0.73560  0.17280  Biso   1.000  H
  C56      1.0000 0.62180  0.69520  0.17270  Biso   1.000  C
  C57      1.0000 0.75640  0.70370  0.21240  Biso   1.000  C
  H38      1.0000 0.82060  0.67080  0.19680  Biso   1.000  H
  C58      1.0000 0.79610  0.75940  0.27370  Biso   1.000  C
  H39      1.0000 0.88620  0.76370  0.30000  Biso   1.000  H
  C59      1.0000 0.70260  0.80930  0.29660  Biso   1.000  C
  H40      1.0000 0.73040  0.84800  0.33820  Biso   1.000  H
  C60      1.0000 0.58040  0.63250  0.10510  Biso   1.000  C
  C61      1.0000 0.76120  0.22870  0.35650  Biso   1.000  C
  H41      1.0000 0.73160  0.19010  0.37840  Biso   1.000  H
  C62      1.0000 0.65900  0.26440  0.32550  Biso   1.000  C
  H42      1.0000 0.56420  0.25210  0.32820  Biso   1.000  H
  C63      1.0000 0.69890  0.31990  0.28940  Biso   1.000  C
  C64      1.0000 0.84180  0.33810  0.29160  Biso   1.000  C
  H43      1.0000 0.87570  0.37670  0.27070  Biso   1.000  H
  C65      1.0000 0.93450  0.29860  0.32510  Biso   1.000  C
  H44      1.0000 0.03030  0.31110  0.32420  Biso   1.000  H
  C66      1.0000 0.58790  0.35660  0.25450  Biso   1.000  C
  C67      1.0000 0.60510  0.37400  0.19350  Biso   1.000  C
  H45      1.0000 0.68530  0.36240  0.17690  Biso   1.000  H
  C68      1.0000 0.50370  0.40790  0.15920  Biso   1.000  C
  C69      1.0000 0.37820  0.42290  0.18240  Biso   1.000  C
  H46      1.0000 0.30720  0.44290  0.15790  Biso   1.000  H
  C70      1.0000 0.36270  0.40790  0.24070  Biso   1.000  C
  H47      1.0000 0.28170  0.41900  0.25670  Biso   1.000  H
  C71      1.0000 0.46770  0.37590  0.27700  Biso   1.000  C
  H48      1.0000 0.45580  0.36740  0.31740  Biso   1.000  H
  C72      1.0000 0.52210  0.42560  0.09330  Biso   1.000  C
