data_image0
_cell_length_a       14.932
_cell_length_b       14.932
_cell_length_c       11.956
_cell_angle_alpha    90
_cell_angle_beta     90
_cell_angle_gamma    90

_symmetry_space_group_name_H-M    "P 1"
_symmetry_int_tables_number       1

loop_
  _symmetry_equiv_pos_as_xyz
  'x, y, z'

loop_
  _atom_site_label
  _atom_site_occupancy
  _atom_site_fract_x
  _atom_site_fract_y
  _atom_site_fract_z
  _atom_site_thermal_displace_type
  _atom_site_B_iso_or_equiv
  _atom_site_type_symbol
  O1       1.0000 0.39986  0.21348  0.99612  Biso   1.000  O
  O2       1.0000 0.37830  0.12090  0.14340  Biso   1.000  O
  C1       1.0000 0.40800  0.14030  0.04780  Biso   1.000  C
  C2       1.0000 0.45450  0.06860  0.99070  Biso   1.000  C
  C3       1.0000 0.46060  0.06980  0.87080  Biso   1.000  C
  H1       1.0000 0.43750  0.11840  0.83150  Biso   1.000  H
  O3       1.0000 0.89986  0.71348  0.49612  Biso   1.000  O
  O4       1.0000 0.87830  0.62090  0.64340  Biso   1.000  O
  C4       1.0000 0.90800  0.64030  0.54780  Biso   1.000  C
  C5       1.0000 0.95450  0.56860  0.49070  Biso   1.000  C
  C6       1.0000 0.96060  0.56980  0.37080  Biso   1.000  C
  H2       1.0000 0.93750  0.61840  0.33150  Biso   1.000  H
  O5       1.0000 0.10014  0.28652  0.49612  Biso   1.000  O
  O6       1.0000 0.12170  0.37910  0.64340  Biso   1.000  O
  C7       1.0000 0.09200  0.35970  0.54780  Biso   1.000  C
  C8       1.0000 0.04550  0.43140  0.49070  Biso   1.000  C
  C9       1.0000 0.03940  0.43020  0.37080  Biso   1.000  C
  H3       1.0000 0.06250  0.38160  0.33150  Biso   1.000  H
  O7       1.0000 0.60014  0.78652  0.99612  Biso   1.000  O
  O8       1.0000 0.62170  0.87910  0.14340  Biso   1.000  O
  C10      1.0000 0.59200  0.85970  0.04780  Biso   1.000  C
  C11      1.0000 0.54550  0.93140  0.99070  Biso   1.000  C
  C12      1.0000 0.53940  0.93020  0.87080  Biso   1.000  C
  H4       1.0000 0.56250  0.88160  0.83150  Biso   1.000  H
  O9       1.0000 0.78652  0.89986  0.24612  Biso   1.000  O
  O10      1.0000 0.87910  0.87830  0.39340  Biso   1.000  O
  C13      1.0000 0.85970  0.90800  0.29780  Biso   1.000  C
  C14      1.0000 0.93140  0.95450  0.24070  Biso   1.000  C
  C15      1.0000 0.93020  0.96060  0.12080  Biso   1.000  C
  H5       1.0000 0.88160  0.93750  0.08150  Biso   1.000  H
  O11      1.0000 0.28652  0.39986  0.74612  Biso   1.000  O
  O12      1.0000 0.37910  0.37830  0.89340  Biso   1.000  O
  C16      1.0000 0.35970  0.40800  0.79780  Biso   1.000  C
  C17      1.0000 0.43140  0.45450  0.74070  Biso   1.000  C
  C18      1.0000 0.43020  0.46060  0.62080  Biso   1.000  C
  H6       1.0000 0.38160  0.43750  0.58150  Biso   1.000  H
  O13      1.0000 0.71348  0.60014  0.74612  Biso   1.000  O
  O14      1.0000 0.62090  0.62170  0.89340  Biso   1.000  O
  C19      1.0000 0.64030  0.59200  0.79780  Biso   1.000  C
  C20      1.0000 0.56860  0.54550  0.74070  Biso   1.000  C
  C21      1.0000 0.56980  0.53940  0.62080  Biso   1.000  C
  H7       1.0000 0.61840  0.56250  0.58150  Biso   1.000  H
  O15      1.0000 0.21348  0.10014  0.24612  Biso   1.000  O
  O16      1.0000 0.12090  0.12170  0.39340  Biso   1.000  O
  C22      1.0000 0.14030  0.09200  0.29780  Biso   1.000  C
  C23      1.0000 0.06860  0.04550  0.24070  Biso   1.000  C
  C24      1.0000 0.06980  0.03940  0.12080  Biso   1.000  C
  H8       1.0000 0.11840  0.06250  0.08150  Biso   1.000  H
  O17      1.0000 0.10014  0.21348  0.75388  Biso   1.000  O
  O18      1.0000 0.12170  0.12090  0.60660  Biso   1.000  O
  C25      1.0000 0.09200  0.14030  0.70220  Biso   1.000  C
  C26      1.0000 0.04550  0.06860  0.75930  Biso   1.000  C
  C27      1.0000 0.03940  0.06980  0.87920  Biso   1.000  C
  H9       1.0000 0.06250  0.11840  0.91850  Biso   1.000  H
  O19      1.0000 0.60014  0.71348  0.25388  Biso   1.000  O
  O20      1.0000 0.62170  0.62090  0.10660  Biso   1.000  O
  C28      1.0000 0.59200  0.64030  0.20220  Biso   1.000  C
  C29      1.0000 0.54550  0.56860  0.25930  Biso   1.000  C
  C30      1.0000 0.53940  0.56980  0.37920  Biso   1.000  C
  H10      1.0000 0.56250  0.61840  0.41850  Biso   1.000  H
  O21      1.0000 0.39986  0.28652  0.25388  Biso   1.000  O
  O22      1.0000 0.37830  0.37910  0.10660  Biso   1.000  O
  C31      1.0000 0.40800  0.35970  0.20220  Biso   1.000  C
  C32      1.0000 0.45450  0.43140  0.25930  Biso   1.000  C
  C33      1.0000 0.46060  0.43020  0.37920  Biso   1.000  C
  H11      1.0000 0.43750  0.38160  0.41850  Biso   1.000  H
  O23      1.0000 0.89986  0.78652  0.75388  Biso   1.000  O
  O24      1.0000 0.87830  0.87910  0.60660  Biso   1.000  O
  C34      1.0000 0.90800  0.85970  0.70220  Biso   1.000  C
  C35      1.0000 0.95450  0.93140  0.75930  Biso   1.000  C
  C36      1.0000 0.96060  0.93020  0.87920  Biso   1.000  C
  H12      1.0000 0.93750  0.88160  0.91850  Biso   1.000  H
  O25      1.0000 0.71348  0.89986  0.50388  Biso   1.000  O
  O26      1.0000 0.62090  0.87830  0.35660  Biso   1.000  O
  C37      1.0000 0.64030  0.90800  0.45220  Biso   1.000  C
  C38      1.0000 0.56860  0.95450  0.50930  Biso   1.000  C
  C39      1.0000 0.56980  0.96060  0.62920  Biso   1.000  C
  H13      1.0000 0.61840  0.93750  0.66850  Biso   1.000  H
  O27      1.0000 0.21348  0.39986  0.00388  Biso   1.000  O
  O28      1.0000 0.12090  0.37830  0.85660  Biso   1.000  O
  C40      1.0000 0.14030  0.40800  0.95220  Biso   1.000  C
  C41      1.0000 0.06860  0.45450  0.00930  Biso   1.000  C
  C42      1.0000 0.06980  0.46060  0.12920  Biso   1.000  C
  H14      1.0000 0.11840  0.43750  0.16850  Biso   1.000  H
  O29      1.0000 0.78652  0.60014  0.00388  Biso   1.000  O
  O30      1.0000 0.87910  0.62170  0.85660  Biso   1.000  O
  C43      1.0000 0.85970  0.59200  0.95220  Biso   1.000  C
  C44      1.0000 0.93140  0.54550  0.00930  Biso   1.000  C
  C45      1.0000 0.93020  0.53940  0.12920  Biso   1.000  C
  H15      1.0000 0.88160  0.56250  0.16850  Biso   1.000  H
  O31      1.0000 0.28652  0.10014  0.50388  Biso   1.000  O
  O32      1.0000 0.37910  0.12170  0.35660  Biso   1.000  O
  C46      1.0000 0.35970  0.09200  0.45220  Biso   1.000  C
  C47      1.0000 0.43140  0.04550  0.50930  Biso   1.000  C
  C48      1.0000 0.43020  0.03940  0.62920  Biso   1.000  C
  H16      1.0000 0.38160  0.06250  0.66850  Biso   1.000  H
  Fe1      1.0000 0.30728  0.30728  0.00000  Biso   1.000  Fe
  Fe2      1.0000 0.80728  0.80728  0.50000  Biso   1.000  Fe
  Fe3      1.0000 0.19272  0.19272  0.50000  Biso   1.000  Fe
  Fe4      1.0000 0.69272  0.80728  0.25000  Biso   1.000  Fe
  Fe5      1.0000 0.80728  0.69272  0.75000  Biso   1.000  Fe
  Fe6      1.0000 0.19272  0.30728  0.75000  Biso   1.000  Fe
  Fe7      1.0000 0.30728  0.19272  0.25000  Biso   1.000  Fe
  Fe8      1.0000 0.69272  0.69272  0.00000  Biso   1.000  Fe
  O33      1.0000 0.24680  0.25000  0.12500  Biso   1.000  O
  H17      1.0000 0.19160  0.25000  0.12500  Biso   1.000  H
  O34      1.0000 0.74680  0.75000  0.62500  Biso   1.000  O
  H18      1.0000 0.69160  0.75000  0.62500  Biso   1.000  H
  O35      1.0000 0.25320  0.25000  0.62500  Biso   1.000  O
  H19      1.0000 0.30840  0.25000  0.62500  Biso   1.000  H
  O36      1.0000 0.75320  0.75000  0.12500  Biso   1.000  O
  H20      1.0000 0.80840  0.75000  0.12500  Biso   1.000  H
  O37      1.0000 0.75000  0.74680  0.37500  Biso   1.000  O
  H21      1.0000 0.75000  0.69160  0.37500  Biso   1.000  H
  O38      1.0000 0.25000  0.24680  0.87500  Biso   1.000  O
  H22      1.0000 0.25000  0.19160  0.87500  Biso   1.000  H
  O39      1.0000 0.75000  0.75320  0.87500  Biso   1.000  O
  H23      1.0000 0.75000  0.80840  0.87500  Biso   1.000  H
  O40      1.0000 0.25000  0.25320  0.37500  Biso   1.000  O
  H24      1.0000 0.25000  0.30840  0.37500  Biso   1.000  H
  C49      1.0000 0.50000  0.00000  0.04670  Biso   1.000  C
  H25      1.0000 0.50000  0.00000  0.12450  Biso   1.000  H
  C50      1.0000 0.50000  0.00000  0.81280  Biso   1.000  C
  C51      1.0000 0.00000  0.50000  0.54670  Biso   1.000  C
  H26      1.0000 0.00000  0.50000  0.62450  Biso   1.000  H
  C52      1.0000 0.00000  0.50000  0.31280  Biso   1.000  C
  C53      1.0000 0.00000  0.00000  0.29670  Biso   1.000  C
  H27      1.0000 0.00000  0.00000  0.37450  Biso   1.000  H
  C54      1.0000 0.00000  0.00000  0.06280  Biso   1.000  C
  C55      1.0000 0.50000  0.50000  0.79670  Biso   1.000  C
  H28      1.0000 0.50000  0.50000  0.87450  Biso   1.000  H
  C56      1.0000 0.50000  0.50000  0.56280  Biso   1.000  C
  C57      1.0000 0.00000  0.00000  0.70330  Biso   1.000  C
  H29      1.0000 0.00000  0.00000  0.62550  Biso   1.000  H
  C58      1.0000 0.00000  0.00000  0.93720  Biso   1.000  C
  C59      1.0000 0.50000  0.50000  0.20330  Biso   1.000  C
  H30      1.0000 0.50000  0.50000  0.12550  Biso   1.000  H
  C60      1.0000 0.50000  0.50000  0.43720  Biso   1.000  C
  C61      1.0000 0.50000  0.00000  0.45330  Biso   1.000  C
  H31      1.0000 0.50000  0.00000  0.37550  Biso   1.000  H
  C62      1.0000 0.50000  0.00000  0.68720  Biso   1.000  C
  C63      1.0000 0.00000  0.50000  0.95330  Biso   1.000  C
  H32      1.0000 0.00000  0.50000  0.87550  Biso   1.000  H
  C64      1.0000 0.00000  0.50000  0.18720  Biso   1.000  C
