data_image0
_cell_length_a       15.0535
_cell_length_b       15.0535
_cell_length_c       11.8737
_cell_angle_alpha    90
_cell_angle_beta     90
_cell_angle_gamma    90

_symmetry_space_group_name_H-M    "P 1"
_symmetry_int_tables_number       1

loop_
  _symmetry_equiv_pos_as_xyz
  'x, y, z'

loop_
  _atom_site_label
  _atom_site_occupancy
  _atom_site_fract_x
  _atom_site_fract_y
  _atom_site_fract_z
  _atom_site_thermal_displace_type
  _atom_site_B_iso_or_equiv
  _atom_site_type_symbol
  O1       1.0000 0.09960  0.28580  0.99880  Biso   1.000  O
  O2       1.0000 0.12510  0.38070  0.14250  Biso   1.000  O
  C1       1.0000 0.09230  0.36190  0.04840  Biso   1.000  C
  C2       1.0000 0.04110  0.43030  0.98970  Biso   1.000  C
  C3       1.0000 0.03800  0.43010  0.87090  Biso   1.000  C
  H1       1.0000 0.06230  0.38140  0.83030  Biso   1.000  H
  O3       1.0000 0.59960  0.78580  0.49880  Biso   1.000  O
  O4       1.0000 0.62510  0.88070  0.64250  Biso   1.000  O
  C4       1.0000 0.59230  0.86190  0.54840  Biso   1.000  C
  C5       1.0000 0.54110  0.93030  0.48970  Biso   1.000  C
  C6       1.0000 0.53800  0.93010  0.37090  Biso   1.000  C
  H2       1.0000 0.56230  0.88140  0.33030  Biso   1.000  H
  O5       1.0000 0.40040  0.21420  0.49880  Biso   1.000  O
  O6       1.0000 0.37490  0.11930  0.64250  Biso   1.000  O
  C7       1.0000 0.40770  0.13810  0.54840  Biso   1.000  C
  C8       1.0000 0.45890  0.06970  0.48970  Biso   1.000  C
  C9       1.0000 0.46200  0.06990  0.37090  Biso   1.000  C
  H3       1.0000 0.43770  0.11860  0.33030  Biso   1.000  H
  O7       1.0000 0.90040  0.71420  0.99880  Biso   1.000  O
  O8       1.0000 0.87490  0.61930  0.14250  Biso   1.000  O
  C10      1.0000 0.90770  0.63810  0.04840  Biso   1.000  C
  C11      1.0000 0.95890  0.56970  0.98970  Biso   1.000  C
  C12      1.0000 0.96200  0.56990  0.87090  Biso   1.000  C
  H4       1.0000 0.93770  0.61860  0.83030  Biso   1.000  H
  O9       1.0000 0.71420  0.59960  0.24880  Biso   1.000  O
  O10      1.0000 0.61930  0.62510  0.39250  Biso   1.000  O
  C13      1.0000 0.63810  0.59230  0.29840  Biso   1.000  C
  C14      1.0000 0.56970  0.54110  0.23970  Biso   1.000  C
  C15      1.0000 0.56990  0.53800  0.12090  Biso   1.000  C
  H5       1.0000 0.61860  0.56230  0.08030  Biso   1.000  H
  O11      1.0000 0.21420  0.09960  0.74880  Biso   1.000  O
  O12      1.0000 0.11930  0.12510  0.89250  Biso   1.000  O
  C16      1.0000 0.13810  0.09230  0.79840  Biso   1.000  C
  C17      1.0000 0.06970  0.04110  0.73970  Biso   1.000  C
  C18      1.0000 0.06990  0.03800  0.62090  Biso   1.000  C
  H6       1.0000 0.11860  0.06230  0.58030  Biso   1.000  H
  O13      1.0000 0.78580  0.90040  0.74880  Biso   1.000  O
  O14      1.0000 0.88070  0.87490  0.89250  Biso   1.000  O
  C19      1.0000 0.86190  0.90770  0.79840  Biso   1.000  C
  C20      1.0000 0.93030  0.95890  0.73970  Biso   1.000  C
  C21      1.0000 0.93010  0.96200  0.62090  Biso   1.000  C
  H7       1.0000 0.88140  0.93770  0.58030  Biso   1.000  H
  O15      1.0000 0.28580  0.40040  0.24880  Biso   1.000  O
  O16      1.0000 0.38070  0.37490  0.39250  Biso   1.000  O
  C22      1.0000 0.36190  0.40770  0.29840  Biso   1.000  C
  C23      1.0000 0.43030  0.45890  0.23970  Biso   1.000  C
  C24      1.0000 0.43010  0.46200  0.12090  Biso   1.000  C
  H8       1.0000 0.38140  0.43770  0.08030  Biso   1.000  H
  O17      1.0000 0.40040  0.28580  0.75120  Biso   1.000  O
  O18      1.0000 0.37490  0.38070  0.60750  Biso   1.000  O
  C25      1.0000 0.40770  0.36190  0.70160  Biso   1.000  C
  C26      1.0000 0.45890  0.43030  0.76030  Biso   1.000  C
  C27      1.0000 0.46200  0.43010  0.87910  Biso   1.000  C
  H9       1.0000 0.43770  0.38140  0.91970  Biso   1.000  H
  O19      1.0000 0.90040  0.78580  0.25120  Biso   1.000  O
  O20      1.0000 0.87490  0.88070  0.10750  Biso   1.000  O
  C28      1.0000 0.90770  0.86190  0.20160  Biso   1.000  C
  C29      1.0000 0.95890  0.93030  0.26030  Biso   1.000  C
  C30      1.0000 0.96200  0.93010  0.37910  Biso   1.000  C
  H10      1.0000 0.93770  0.88140  0.41970  Biso   1.000  H
  O21      1.0000 0.09960  0.21420  0.25120  Biso   1.000  O
  O22      1.0000 0.12510  0.11930  0.10750  Biso   1.000  O
  C31      1.0000 0.09230  0.13810  0.20160  Biso   1.000  C
  C32      1.0000 0.04110  0.06970  0.26030  Biso   1.000  C
  C33      1.0000 0.03800  0.06990  0.37910  Biso   1.000  C
  H11      1.0000 0.06230  0.11860  0.41970  Biso   1.000  H
  O23      1.0000 0.59960  0.71420  0.75120  Biso   1.000  O
  O24      1.0000 0.62510  0.61930  0.60750  Biso   1.000  O
  C34      1.0000 0.59230  0.63810  0.70160  Biso   1.000  C
  C35      1.0000 0.54110  0.56970  0.76030  Biso   1.000  C
  C36      1.0000 0.53800  0.56990  0.87910  Biso   1.000  C
  H12      1.0000 0.56230  0.61860  0.91970  Biso   1.000  H
  O25      1.0000 0.78580  0.59960  0.50120  Biso   1.000  O
  O26      1.0000 0.88070  0.62510  0.35750  Biso   1.000  O
  C37      1.0000 0.86190  0.59230  0.45160  Biso   1.000  C
  C38      1.0000 0.93030  0.54110  0.51030  Biso   1.000  C
  C39      1.0000 0.93010  0.53800  0.62910  Biso   1.000  C
  H13      1.0000 0.88140  0.56230  0.66970  Biso   1.000  H
  O27      1.0000 0.28580  0.09960  0.00120  Biso   1.000  O
  O28      1.0000 0.38070  0.12510  0.85750  Biso   1.000  O
  C40      1.0000 0.36190  0.09230  0.95160  Biso   1.000  C
  C41      1.0000 0.43030  0.04110  0.01030  Biso   1.000  C
  C42      1.0000 0.43010  0.03800  0.12910  Biso   1.000  C
  H14      1.0000 0.38140  0.06230  0.16970  Biso   1.000  H
  O29      1.0000 0.71420  0.90040  0.00120  Biso   1.000  O
  O30      1.0000 0.61930  0.87490  0.85750  Biso   1.000  O
  C43      1.0000 0.63810  0.90770  0.95160  Biso   1.000  C
  C44      1.0000 0.56970  0.95890  0.01030  Biso   1.000  C
  C45      1.0000 0.56990  0.96200  0.12910  Biso   1.000  C
  H15      1.0000 0.61860  0.93770  0.16970  Biso   1.000  H
  O31      1.0000 0.21420  0.40040  0.50120  Biso   1.000  O
  O32      1.0000 0.11930  0.37490  0.35750  Biso   1.000  O
  C46      1.0000 0.13810  0.40770  0.45160  Biso   1.000  C
  C47      1.0000 0.06970  0.45890  0.51030  Biso   1.000  C
  C48      1.0000 0.06990  0.46200  0.62910  Biso   1.000  C
  H16      1.0000 0.11860  0.43770  0.66970  Biso   1.000  H
  Ga1      1.0000 0.19473  0.19473  0.00000  Biso   1.000  Ga
  Ga2      1.0000 0.69473  0.69473  0.50000  Biso   1.000  Ga
  Ga3      1.0000 0.30527  0.30527  0.50000  Biso   1.000  Ga
  Ga4      1.0000 0.80527  0.69473  0.25000  Biso   1.000  Ga
  Ga5      1.0000 0.69473  0.80527  0.75000  Biso   1.000  Ga
  Ga6      1.0000 0.30527  0.19473  0.75000  Biso   1.000  Ga
  Ga7      1.0000 0.19473  0.30527  0.25000  Biso   1.000  Ga
  Ga8      1.0000 0.80527  0.80527  0.00000  Biso   1.000  Ga
  O33      1.0000 0.25230  0.25000  0.12500  Biso   1.000  O
  H17      1.0000 0.30790  0.25000  0.12500  Biso   1.000  H
  O34      1.0000 0.75230  0.75000  0.62500  Biso   1.000  O
  H18      1.0000 0.80790  0.75000  0.62500  Biso   1.000  H
  O35      1.0000 0.24770  0.25000  0.62500  Biso   1.000  O
  H19      1.0000 0.19210  0.25000  0.62500  Biso   1.000  H
  O36      1.0000 0.74770  0.75000  0.12500  Biso   1.000  O
  H20      1.0000 0.69210  0.75000  0.12500  Biso   1.000  H
  O37      1.0000 0.75000  0.75230  0.37500  Biso   1.000  O
  H21      1.0000 0.75000  0.80790  0.37500  Biso   1.000  H
  O38      1.0000 0.25000  0.25230  0.87500  Biso   1.000  O
  H22      1.0000 0.25000  0.30790  0.87500  Biso   1.000  H
  O39      1.0000 0.75000  0.74770  0.87500  Biso   1.000  O
  H23      1.0000 0.75000  0.69210  0.87500  Biso   1.000  H
  O40      1.0000 0.25000  0.24770  0.37500  Biso   1.000  O
  H24      1.0000 0.25000  0.19210  0.37500  Biso   1.000  H
  C49      1.0000 0.00000  0.50000  0.05020  Biso   1.000  C
  H25      1.0000 0.00000  0.50000  0.13020  Biso   1.000  H
  C50      1.0000 0.00000  0.50000  0.81360  Biso   1.000  C
  C51      1.0000 0.50000  0.00000  0.55020  Biso   1.000  C
  H26      1.0000 0.50000  0.00000  0.63020  Biso   1.000  H
  C52      1.0000 0.50000  0.00000  0.31360  Biso   1.000  C
  C53      1.0000 0.50000  0.50000  0.30020  Biso   1.000  C
  H27      1.0000 0.50000  0.50000  0.38020  Biso   1.000  H
  C54      1.0000 0.50000  0.50000  0.06360  Biso   1.000  C
  C55      1.0000 0.00000  0.00000  0.80020  Biso   1.000  C
  H28      1.0000 0.00000  0.00000  0.88020  Biso   1.000  H
  C56      1.0000 0.00000  0.00000  0.56360  Biso   1.000  C
  C57      1.0000 0.50000  0.50000  0.69980  Biso   1.000  C
  H29      1.0000 0.50000  0.50000  0.61980  Biso   1.000  H
  C58      1.0000 0.50000  0.50000  0.93640  Biso   1.000  C
  C59      1.0000 0.00000  0.00000  0.19980  Biso   1.000  C
  H30      1.0000 0.00000  0.00000  0.11980  Biso   1.000  H
  C60      1.0000 0.00000  0.00000  0.43640  Biso   1.000  C
  C61      1.0000 0.00000  0.50000  0.44980  Biso   1.000  C
  H31      1.0000 0.00000  0.50000  0.36980  Biso   1.000  H
  C62      1.0000 0.00000  0.50000  0.68640  Biso   1.000  C
  C63      1.0000 0.50000  0.00000  0.94980  Biso   1.000  C
  H32      1.0000 0.50000  0.00000  0.86980  Biso   1.000  H
  C64      1.0000 0.50000  0.00000  0.18640  Biso   1.000  C
