data_image0
_cell_length_a       14.924
_cell_length_b       14.924
_cell_length_c       11.929
_cell_angle_alpha    90
_cell_angle_beta     90
_cell_angle_gamma    90

_symmetry_space_group_name_H-M    "P 1"
_symmetry_int_tables_number       1

loop_
  _symmetry_equiv_pos_as_xyz
  'x, y, z'

loop_
  _atom_site_label
  _atom_site_occupancy
  _atom_site_fract_x
  _atom_site_fract_y
  _atom_site_fract_z
  _atom_site_thermal_displace_type
  _atom_site_B_iso_or_equiv
  _atom_site_type_symbol
  O1       1.0000 0.09944  0.28612  0.99783  Biso   1.000  O
  O2       1.0000 0.12249  0.37951  0.14331  Biso   1.000  O
  C1       1.0000 0.09110  0.35960  0.04900  Biso   1.000  C
  C2       1.0000 0.04330  0.43056  0.99050  Biso   1.000  C
  C3       1.0000 0.03910  0.43110  0.87030  Biso   1.000  C
  H1       1.0000 0.06410  0.38240  0.82980  Biso   1.000  H
  O3       1.0000 0.59944  0.78612  0.49783  Biso   1.000  O
  O4       1.0000 0.62249  0.87951  0.64331  Biso   1.000  O
  C4       1.0000 0.59110  0.85960  0.54900  Biso   1.000  C
  C5       1.0000 0.54330  0.93056  0.49050  Biso   1.000  C
  C6       1.0000 0.53910  0.93110  0.37030  Biso   1.000  C
  H2       1.0000 0.56410  0.88240  0.32980  Biso   1.000  H
  O5       1.0000 0.40056  0.21388  0.49783  Biso   1.000  O
  O6       1.0000 0.37751  0.12049  0.64331  Biso   1.000  O
  C7       1.0000 0.40890  0.14040  0.54900  Biso   1.000  C
  C8       1.0000 0.45670  0.06944  0.49050  Biso   1.000  C
  C9       1.0000 0.46090  0.06890  0.37030  Biso   1.000  C
  H3       1.0000 0.43590  0.11760  0.32980  Biso   1.000  H
  O7       1.0000 0.90056  0.71388  0.99783  Biso   1.000  O
  O8       1.0000 0.87751  0.62049  0.14331  Biso   1.000  O
  C10      1.0000 0.90890  0.64040  0.04900  Biso   1.000  C
  C11      1.0000 0.95670  0.56944  0.99050  Biso   1.000  C
  C12      1.0000 0.96090  0.56890  0.87030  Biso   1.000  C
  H4       1.0000 0.93590  0.61760  0.82980  Biso   1.000  H
  O9       1.0000 0.71388  0.59944  0.24783  Biso   1.000  O
  O10      1.0000 0.62049  0.62249  0.39331  Biso   1.000  O
  C13      1.0000 0.64040  0.59110  0.29900  Biso   1.000  C
  C14      1.0000 0.56944  0.54330  0.24050  Biso   1.000  C
  C15      1.0000 0.56890  0.53910  0.12030  Biso   1.000  C
  H5       1.0000 0.61760  0.56410  0.07980  Biso   1.000  H
  O11      1.0000 0.21388  0.09944  0.74783  Biso   1.000  O
  O12      1.0000 0.12049  0.12249  0.89331  Biso   1.000  O
  C16      1.0000 0.14040  0.09110  0.79900  Biso   1.000  C
  C17      1.0000 0.06944  0.04330  0.74050  Biso   1.000  C
  C18      1.0000 0.06890  0.03910  0.62030  Biso   1.000  C
  H6       1.0000 0.11760  0.06410  0.57980  Biso   1.000  H
  O13      1.0000 0.78612  0.90056  0.74783  Biso   1.000  O
  O14      1.0000 0.87951  0.87751  0.89331  Biso   1.000  O
  C19      1.0000 0.85960  0.90890  0.79900  Biso   1.000  C
  C20      1.0000 0.93056  0.95670  0.74050  Biso   1.000  C
  C21      1.0000 0.93110  0.96090  0.62030  Biso   1.000  C
  H7       1.0000 0.88240  0.93590  0.57980  Biso   1.000  H
  O15      1.0000 0.28612  0.40056  0.24783  Biso   1.000  O
  O16      1.0000 0.37951  0.37751  0.39331  Biso   1.000  O
  C22      1.0000 0.35960  0.40890  0.29900  Biso   1.000  C
  C23      1.0000 0.43056  0.45670  0.24050  Biso   1.000  C
  C24      1.0000 0.43110  0.46090  0.12030  Biso   1.000  C
  H8       1.0000 0.38240  0.43590  0.07980  Biso   1.000  H
  O17      1.0000 0.40056  0.28612  0.75217  Biso   1.000  O
  O18      1.0000 0.37751  0.37951  0.60669  Biso   1.000  O
  C25      1.0000 0.40890  0.35960  0.70100  Biso   1.000  C
  C26      1.0000 0.45670  0.43056  0.75950  Biso   1.000  C
  C27      1.0000 0.46090  0.43110  0.87970  Biso   1.000  C
  H9       1.0000 0.43590  0.38240  0.92020  Biso   1.000  H
  O19      1.0000 0.90056  0.78612  0.25217  Biso   1.000  O
  O20      1.0000 0.87751  0.87951  0.10669  Biso   1.000  O
  C28      1.0000 0.90890  0.85960  0.20100  Biso   1.000  C
  C29      1.0000 0.95670  0.93056  0.25950  Biso   1.000  C
  C30      1.0000 0.96090  0.93110  0.37970  Biso   1.000  C
  H10      1.0000 0.93590  0.88240  0.42020  Biso   1.000  H
  O21      1.0000 0.09944  0.21388  0.25217  Biso   1.000  O
  O22      1.0000 0.12249  0.12049  0.10669  Biso   1.000  O
  C31      1.0000 0.09110  0.14040  0.20100  Biso   1.000  C
  C32      1.0000 0.04330  0.06944  0.25950  Biso   1.000  C
  C33      1.0000 0.03910  0.06890  0.37970  Biso   1.000  C
  H11      1.0000 0.06410  0.11760  0.42020  Biso   1.000  H
  O23      1.0000 0.59944  0.71388  0.75217  Biso   1.000  O
  O24      1.0000 0.62249  0.62049  0.60669  Biso   1.000  O
  C34      1.0000 0.59110  0.64040  0.70100  Biso   1.000  C
  C35      1.0000 0.54330  0.56944  0.75950  Biso   1.000  C
  C36      1.0000 0.53910  0.56890  0.87970  Biso   1.000  C
  H12      1.0000 0.56410  0.61760  0.92020  Biso   1.000  H
  O25      1.0000 0.78612  0.59944  0.50217  Biso   1.000  O
  O26      1.0000 0.87951  0.62249  0.35669  Biso   1.000  O
  C37      1.0000 0.85960  0.59110  0.45100  Biso   1.000  C
  C38      1.0000 0.93056  0.54330  0.50950  Biso   1.000  C
  C39      1.0000 0.93110  0.53910  0.62970  Biso   1.000  C
  H13      1.0000 0.88240  0.56410  0.67020  Biso   1.000  H
  O27      1.0000 0.28612  0.09944  0.00217  Biso   1.000  O
  O28      1.0000 0.37951  0.12249  0.85669  Biso   1.000  O
  C40      1.0000 0.35960  0.09110  0.95100  Biso   1.000  C
  C41      1.0000 0.43056  0.04330  0.00950  Biso   1.000  C
  C42      1.0000 0.43110  0.03910  0.12970  Biso   1.000  C
  H14      1.0000 0.38240  0.06410  0.17020  Biso   1.000  H
  O29      1.0000 0.71388  0.90056  0.00217  Biso   1.000  O
  O30      1.0000 0.62049  0.87751  0.85669  Biso   1.000  O
  C43      1.0000 0.64040  0.90890  0.95100  Biso   1.000  C
  C44      1.0000 0.56944  0.95670  0.00950  Biso   1.000  C
  C45      1.0000 0.56890  0.96090  0.12970  Biso   1.000  C
  H15      1.0000 0.61760  0.93590  0.17020  Biso   1.000  H
  O31      1.0000 0.21388  0.40056  0.50217  Biso   1.000  O
  O32      1.0000 0.12049  0.37751  0.35669  Biso   1.000  O
  C46      1.0000 0.14040  0.40890  0.45100  Biso   1.000  C
  C47      1.0000 0.06944  0.45670  0.50950  Biso   1.000  C
  C48      1.0000 0.06890  0.46090  0.62970  Biso   1.000  C
  H16      1.0000 0.11760  0.43590  0.67020  Biso   1.000  H
  Fe1      1.0000 0.19347  0.19347  0.00000  Biso   1.000  Fe
  Fe2      1.0000 0.69347  0.69347  0.50000  Biso   1.000  Fe
  Fe3      1.0000 0.30653  0.30653  0.50000  Biso   1.000  Fe
  Fe4      1.0000 0.80653  0.69347  0.25000  Biso   1.000  Fe
  Fe5      1.0000 0.69347  0.80653  0.75000  Biso   1.000  Fe
  Fe6      1.0000 0.30653  0.19347  0.75000  Biso   1.000  Fe
  Fe7      1.0000 0.19347  0.30653  0.25000  Biso   1.000  Fe
  Fe8      1.0000 0.80653  0.80653  0.00000  Biso   1.000  Fe
  O33      1.0000 0.25370  0.25000  0.12500  Biso   1.000  O
  H17      1.0000 0.30880  0.25000  0.12500  Biso   1.000  H
  O34      1.0000 0.75370  0.75000  0.62500  Biso   1.000  O
  H18      1.0000 0.80880  0.75000  0.62500  Biso   1.000  H
  O35      1.0000 0.24630  0.25000  0.62500  Biso   1.000  O
  H19      1.0000 0.19120  0.25000  0.62500  Biso   1.000  H
  O36      1.0000 0.74630  0.75000  0.12500  Biso   1.000  O
  H20      1.0000 0.69120  0.75000  0.12500  Biso   1.000  H
  O37      1.0000 0.75000  0.75370  0.37500  Biso   1.000  O
  H21      1.0000 0.75000  0.80880  0.37500  Biso   1.000  H
  O38      1.0000 0.25000  0.25370  0.87500  Biso   1.000  O
  H22      1.0000 0.25000  0.30880  0.87500  Biso   1.000  H
  O39      1.0000 0.75000  0.74630  0.87500  Biso   1.000  O
  H23      1.0000 0.75000  0.69120  0.87500  Biso   1.000  H
  O40      1.0000 0.25000  0.24630  0.37500  Biso   1.000  O
  H24      1.0000 0.25000  0.19120  0.37500  Biso   1.000  H
  C49      1.0000 0.00000  0.50000  0.81230  Biso   1.000  C
  C50      1.0000 0.00000  0.50000  0.04710  Biso   1.000  C
  H25      1.0000 0.00000  0.50000  0.12680  Biso   1.000  H
  C51      1.0000 0.50000  0.00000  0.31230  Biso   1.000  C
  C52      1.0000 0.50000  0.00000  0.54710  Biso   1.000  C
  H26      1.0000 0.50000  0.00000  0.62680  Biso   1.000  H
  C53      1.0000 0.50000  0.50000  0.06230  Biso   1.000  C
  C54      1.0000 0.50000  0.50000  0.29710  Biso   1.000  C
  H27      1.0000 0.50000  0.50000  0.37680  Biso   1.000  H
  C55      1.0000 0.00000  0.00000  0.56230  Biso   1.000  C
  C56      1.0000 0.00000  0.00000  0.79710  Biso   1.000  C
  H28      1.0000 0.00000  0.00000  0.87680  Biso   1.000  H
  C57      1.0000 0.50000  0.50000  0.93770  Biso   1.000  C
  C58      1.0000 0.50000  0.50000  0.70290  Biso   1.000  C
  H29      1.0000 0.50000  0.50000  0.62320  Biso   1.000  H
  C59      1.0000 0.00000  0.00000  0.43770  Biso   1.000  C
  C60      1.0000 0.00000  0.00000  0.20290  Biso   1.000  C
  H30      1.0000 0.00000  0.00000  0.12320  Biso   1.000  H
  C61      1.0000 0.00000  0.50000  0.68770  Biso   1.000  C
  C62      1.0000 0.00000  0.50000  0.45290  Biso   1.000  C
  H31      1.0000 0.00000  0.50000  0.37320  Biso   1.000  H
  C63      1.0000 0.50000  0.00000  0.18770  Biso   1.000  C
  C64      1.0000 0.50000  0.00000  0.95290  Biso   1.000  C
  H32      1.0000 0.50000  0.00000  0.87320  Biso   1.000  H
