data_image0
_cell_length_a       8.018
_cell_length_b       21.04
_cell_length_c       11.069
_cell_angle_alpha    90
_cell_angle_beta     91.26
_cell_angle_gamma    90

_symmetry_space_group_name_H-M    "P 1"
_symmetry_int_tables_number       1

loop_
  _symmetry_equiv_pos_as_xyz
  'x, y, z'

loop_
  _atom_site_label
  _atom_site_occupancy
  _atom_site_fract_x
  _atom_site_fract_y
  _atom_site_fract_z
  _atom_site_thermal_displace_type
  _atom_site_B_iso_or_equiv
  _atom_site_type_symbol
  Zn1      1.0000 0.10337  0.61355  0.27669  Biso   1.000  Zn
  Zn2      1.0000 0.81521  0.69168  0.13554  Biso   1.000  Zn
  N1       1.0000 0.86410  0.75210  0.49510  Biso   1.000  N
  N2       1.0000 0.98160  0.68190  0.37450  Biso   1.000  N
  N3       1.0000 0.87990  0.72260  0.30420  Biso   1.000  N
  N4       1.0000 0.31590  0.65390  0.21220  Biso   1.000  N
  N5       1.0000 0.56320  0.67870  0.15030  Biso   1.000  N
  N6       1.0000 0.44830  0.70740  0.07730  Biso   1.000  N
  N7       1.0000 0.30050  0.69240  0.11350  Biso   1.000  N
  O1       1.0000 0.84600  0.45130  0.60490  Biso   1.000  O
  O2       1.0000 0.75140  0.52070  0.73970  Biso   1.000  O
  O3       1.0000 0.94610  0.61410  0.14110  Biso   1.000  O
  H1       1.0000 0.96310  0.59390  0.07820  Biso   1.000  H
  C1       1.0000 0.77040  0.50310  0.63420  Biso   1.000  C
  C2       1.0000 0.69800  0.54090  0.52900  Biso   1.000  C
  C3       1.0000 0.59180  0.59220  0.55170  Biso   1.000  C
  H2       1.0000 0.56800  0.60340  0.63080  Biso   1.000  H
  C4       1.0000 0.73360  0.52400  0.41060  Biso   1.000  C
  H3       1.0000 0.80450  0.49010  0.39550  Biso   1.000  H
  C5       1.0000 0.52170  0.62660  0.45490  Biso   1.000  C
  H4       1.0000 0.45160  0.66080  0.46970  Biso   1.000  H
  C6       1.0000 0.66230  0.55820  0.31500  Biso   1.000  C
  H5       1.0000 0.68520  0.54660  0.23600  Biso   1.000  H
  C7       1.0000 0.55690  0.60970  0.33620  Biso   1.000  C
  C8       1.0000 0.47890  0.64690  0.23430  Biso   1.000  C
  C9       1.0000 0.69580  0.81550  0.33860  Biso   1.000  C
  H6       1.0000 0.74670  0.85620  0.35270  Biso   1.000  H
  H7       1.0000 0.59470  0.81260  0.38320  Biso   1.000  H
  H8       1.0000 0.67050  0.81070  0.25390  Biso   1.000  H
  C10      1.0000 0.81300  0.76420  0.37900  Biso   1.000  C
  C11      1.0000 0.96850  0.70080  0.48760  Biso   1.000  C
  C12      1.0000 0.05410  0.66870  0.59210  Biso   1.000  C
  H9       1.0000 0.11730  0.63320  0.56340  Biso   1.000  H
  H10      1.0000 0.97240  0.65400  0.64760  Biso   1.000  H
  H11      1.0000 0.12770  0.69830  0.63230  Biso   1.000  H
  Zn3      1.0000 0.89663  0.11355  0.22331  Biso   1.000  Zn
  Zn4      1.0000 0.18479  0.19168  0.36446  Biso   1.000  Zn
  N8       1.0000 0.13590  0.25210  0.00490  Biso   1.000  N
  N9       1.0000 0.01840  0.18190  0.12550  Biso   1.000  N
  N10      1.0000 0.12010  0.22260  0.19580  Biso   1.000  N
  N11      1.0000 0.68410  0.15390  0.28780  Biso   1.000  N
  N12      1.0000 0.43680  0.17870  0.34970  Biso   1.000  N
  N13      1.0000 0.55170  0.20740  0.42270  Biso   1.000  N
  N14      1.0000 0.69950  0.19240  0.38650  Biso   1.000  N
  O4       1.0000 0.15400  0.95130  0.89510  Biso   1.000  O
  O5       1.0000 0.24860  0.02070  0.76030  Biso   1.000  O
  O6       1.0000 0.05390  0.11410  0.35890  Biso   1.000  O
  H12      1.0000 0.03690  0.09390  0.42180  Biso   1.000  H
  C13      1.0000 0.22960  0.00310  0.86580  Biso   1.000  C
  C14      1.0000 0.30200  0.04090  0.97100  Biso   1.000  C
  C15      1.0000 0.40820  0.09220  0.94830  Biso   1.000  C
  H13      1.0000 0.43200  0.10340  0.86920  Biso   1.000  H
  C16      1.0000 0.26640  0.02400  0.08940  Biso   1.000  C
  H14      1.0000 0.19550  0.99010  0.10450  Biso   1.000  H
  C17      1.0000 0.47830  0.12660  0.04510  Biso   1.000  C
  H15      1.0000 0.54840  0.16080  0.03030  Biso   1.000  H
  C18      1.0000 0.33770  0.05820  0.18500  Biso   1.000  C
  H16      1.0000 0.31480  0.04660  0.26400  Biso   1.000  H
  C19      1.0000 0.44310  0.10970  0.16380  Biso   1.000  C
  C20      1.0000 0.52110  0.14690  0.26570  Biso   1.000  C
  C21      1.0000 0.30420  0.31550  0.16140  Biso   1.000  C
  H17      1.0000 0.25330  0.35620  0.14730  Biso   1.000  H
  H18      1.0000 0.40530  0.31260  0.11680  Biso   1.000  H
  H19      1.0000 0.32950  0.31070  0.24610  Biso   1.000  H
  C22      1.0000 0.18700  0.26420  0.12100  Biso   1.000  C
  C23      1.0000 0.03150  0.20080  0.01240  Biso   1.000  C
  C24      1.0000 0.94590  0.16870  0.90790  Biso   1.000  C
  H20      1.0000 0.88270  0.13320  0.93660  Biso   1.000  H
  H21      1.0000 0.02760  0.15400  0.85240  Biso   1.000  H
  H22      1.0000 0.87230  0.19830  0.86770  Biso   1.000  H
  Zn5      1.0000 0.89663  0.38645  0.72331  Biso   1.000  Zn
  Zn6      1.0000 0.18479  0.30832  0.86446  Biso   1.000  Zn
  N15      1.0000 0.13590  0.24790  0.50490  Biso   1.000  N
  N16      1.0000 0.01840  0.31810  0.62550  Biso   1.000  N
  N17      1.0000 0.12010  0.27740  0.69580  Biso   1.000  N
  N18      1.0000 0.68410  0.34610  0.78780  Biso   1.000  N
  N19      1.0000 0.43680  0.32130  0.84970  Biso   1.000  N
  N20      1.0000 0.55170  0.29260  0.92270  Biso   1.000  N
  N21      1.0000 0.69950  0.30760  0.88650  Biso   1.000  N
  O7       1.0000 0.15400  0.54870  0.39510  Biso   1.000  O
  O8       1.0000 0.24860  0.47930  0.26030  Biso   1.000  O
  O9       1.0000 0.05390  0.38590  0.85890  Biso   1.000  O
  H23      1.0000 0.03690  0.40610  0.92180  Biso   1.000  H
  C25      1.0000 0.22960  0.49690  0.36580  Biso   1.000  C
  C26      1.0000 0.30200  0.45910  0.47100  Biso   1.000  C
  C27      1.0000 0.40820  0.40780  0.44830  Biso   1.000  C
  H24      1.0000 0.43200  0.39660  0.36920  Biso   1.000  H
  C28      1.0000 0.26640  0.47600  0.58940  Biso   1.000  C
  H25      1.0000 0.19550  0.50990  0.60450  Biso   1.000  H
  C29      1.0000 0.47830  0.37340  0.54510  Biso   1.000  C
  H26      1.0000 0.54840  0.33920  0.53030  Biso   1.000  H
  C30      1.0000 0.33770  0.44180  0.68500  Biso   1.000  C
  H27      1.0000 0.31480  0.45340  0.76400  Biso   1.000  H
  C31      1.0000 0.44310  0.39030  0.66380  Biso   1.000  C
  C32      1.0000 0.52110  0.35310  0.76570  Biso   1.000  C
  C33      1.0000 0.30420  0.18450  0.66140  Biso   1.000  C
  H28      1.0000 0.25330  0.14380  0.64730  Biso   1.000  H
  H29      1.0000 0.40530  0.18740  0.61680  Biso   1.000  H
  H30      1.0000 0.32950  0.18930  0.74610  Biso   1.000  H
  C34      1.0000 0.18700  0.23580  0.62100  Biso   1.000  C
  C35      1.0000 0.03150  0.29920  0.51240  Biso   1.000  C
  C36      1.0000 0.94590  0.33130  0.40790  Biso   1.000  C
  H31      1.0000 0.88270  0.36680  0.43660  Biso   1.000  H
  H32      1.0000 0.02760  0.34600  0.35240  Biso   1.000  H
  H33      1.0000 0.87230  0.30170  0.36770  Biso   1.000  H
  Zn7      1.0000 0.10337  0.88645  0.77669  Biso   1.000  Zn
  Zn8      1.0000 0.81521  0.80832  0.63554  Biso   1.000  Zn
  N22      1.0000 0.86410  0.74790  0.99510  Biso   1.000  N
  N23      1.0000 0.98160  0.81810  0.87450  Biso   1.000  N
  N24      1.0000 0.87990  0.77740  0.80420  Biso   1.000  N
  N25      1.0000 0.31590  0.84610  0.71220  Biso   1.000  N
  N26      1.0000 0.56320  0.82130  0.65030  Biso   1.000  N
  N27      1.0000 0.44830  0.79260  0.57730  Biso   1.000  N
  N28      1.0000 0.30050  0.80760  0.61350  Biso   1.000  N
  O10      1.0000 0.84600  0.04870  0.10490  Biso   1.000  O
  O11      1.0000 0.75140  0.97930  0.23970  Biso   1.000  O
  O12      1.0000 0.94610  0.88590  0.64110  Biso   1.000  O
  H34      1.0000 0.96310  0.90610  0.57820  Biso   1.000  H
  C37      1.0000 0.77040  0.99690  0.13420  Biso   1.000  C
  C38      1.0000 0.69800  0.95910  0.02900  Biso   1.000  C
  C39      1.0000 0.59180  0.90780  0.05170  Biso   1.000  C
  H35      1.0000 0.56800  0.89660  0.13080  Biso   1.000  H
  C40      1.0000 0.73360  0.97600  0.91060  Biso   1.000  C
  H36      1.0000 0.80450  0.00990  0.89550  Biso   1.000  H
  C41      1.0000 0.52170  0.87340  0.95490  Biso   1.000  C
  H37      1.0000 0.45160  0.83920  0.96970  Biso   1.000  H
  C42      1.0000 0.66230  0.94180  0.81500  Biso   1.000  C
  H38      1.0000 0.68520  0.95340  0.73600  Biso   1.000  H
  C43      1.0000 0.55690  0.89030  0.83620  Biso   1.000  C
  C44      1.0000 0.47890  0.85310  0.73430  Biso   1.000  C
  C45      1.0000 0.69580  0.68450  0.83860  Biso   1.000  C
  H39      1.0000 0.74670  0.64380  0.85270  Biso   1.000  H
  H40      1.0000 0.59470  0.68740  0.88320  Biso   1.000  H
  H41      1.0000 0.67050  0.68930  0.75390  Biso   1.000  H
  C46      1.0000 0.81300  0.73580  0.87900  Biso   1.000  C
  C47      1.0000 0.96850  0.79920  0.98760  Biso   1.000  C
  C48      1.0000 0.05410  0.83130  0.09210  Biso   1.000  C
  H42      1.0000 0.11730  0.86680  0.06340  Biso   1.000  H
  H43      1.0000 0.97240  0.84600  0.14760  Biso   1.000  H
  H44      1.0000 0.12770  0.80170  0.13230  Biso   1.000  H
