data_image0
_cell_length_a       27.978
_cell_length_b       27.978
_cell_length_c       14.9798
_cell_angle_alpha    90
_cell_angle_beta     90
_cell_angle_gamma    120

_symmetry_space_group_name_H-M    "P 1"
_symmetry_int_tables_number       1

loop_
  _symmetry_equiv_pos_as_xyz
  'x, y, z'

loop_
  _atom_site_label
  _atom_site_occupancy
  _atom_site_fract_x
  _atom_site_fract_y
  _atom_site_fract_z
  _atom_site_thermal_displace_type
  _atom_site_B_iso_or_equiv
  _atom_site_type_symbol
  Ag1      1.0000 0.74308  0.12940  0.42770  Biso   1.000  Ag
  N1       1.0000 0.80290  0.21380  0.37460  Biso   1.000  N
  C1       1.0000 0.88160  0.26400  0.04940  Biso   1.000  C
  H1       1.0000 0.84740  0.23070  0.04310  Biso   1.000  H
  C2       1.0000 0.88490  0.30320  0.10890  Biso   1.000  C
  C3       1.0000 0.80230  0.22820  0.29030  Biso   1.000  C
  H2       1.0000 0.77620  0.20160  0.25050  Biso   1.000  H
  N2       1.0000 0.87680  0.31940  0.31020  Biso   1.000  N
  C4       1.0000 0.87930  0.30530  0.39230  Biso   1.000  C
  H3       1.0000 0.90710  0.33190  0.43010  Biso   1.000  H
  N3       1.0000 0.93290  0.34970  0.12370  Biso   1.000  N
  C5       1.0000 0.83850  0.28060  0.25810  Biso   1.000  C
  N4       1.0000 0.92380  0.27090  0.00110  Biso   1.000  N
  C6       1.0000 0.97620  0.35770  0.07480  Biso   1.000  C
  H4       1.0000 0.01030  0.39110  0.08180  Biso   1.000  H
  C7       1.0000 0.84390  0.25410  0.42710  Biso   1.000  C
  H5       1.0000 0.84770  0.24640  0.48760  Biso   1.000  H
  C8       1.0000 0.97300  0.31900  0.01440  Biso   1.000  C
  H6       1.0000 0.00480  0.32550  0.98180  Biso   1.000  H
  C9       1.0000 0.83540  0.29500  0.16300  Biso   1.000  C
  H7       1.0000 0.80130  0.26520  0.13560  Biso   1.000  H
  H8       1.0000 0.83330  0.32930  0.16100  Biso   1.000  H
  Ag2      1.0000 0.40975  0.46273  0.76103  Biso   1.000  Ag
  N5       1.0000 0.46957  0.54713  0.70793  Biso   1.000  N
  C10      1.0000 0.54827  0.59733  0.38273  Biso   1.000  C
  H9       1.0000 0.51407  0.56403  0.37643  Biso   1.000  H
  C11      1.0000 0.55157  0.63653  0.44223  Biso   1.000  C
  C12      1.0000 0.46897  0.56153  0.62363  Biso   1.000  C
  H10      1.0000 0.44287  0.53493  0.58383  Biso   1.000  H
  N6       1.0000 0.54347  0.65273  0.64353  Biso   1.000  N
  C13      1.0000 0.54597  0.63863  0.72563  Biso   1.000  C
  H11      1.0000 0.57377  0.66523  0.76343  Biso   1.000  H
  N7       1.0000 0.59957  0.68303  0.45703  Biso   1.000  N
  C14      1.0000 0.50517  0.61393  0.59143  Biso   1.000  C
  N8       1.0000 0.59047  0.60423  0.33443  Biso   1.000  N
  C15      1.0000 0.64287  0.69103  0.40813  Biso   1.000  C
  H12      1.0000 0.67697  0.72443  0.41513  Biso   1.000  H
  C16      1.0000 0.51057  0.58743  0.76043  Biso   1.000  C
  H13      1.0000 0.51437  0.57973  0.82093  Biso   1.000  H
  C17      1.0000 0.63967  0.65233  0.34773  Biso   1.000  C
  H14      1.0000 0.67147  0.65883  0.31513  Biso   1.000  H
  C18      1.0000 0.50207  0.62833  0.49633  Biso   1.000  C
  H15      1.0000 0.46797  0.59853  0.46893  Biso   1.000  H
  H16      1.0000 0.49997  0.66263  0.49433  Biso   1.000  H
  Ag3      1.0000 0.07641  0.79607  0.09437  Biso   1.000  Ag
  N9       1.0000 0.13623  0.88047  0.04127  Biso   1.000  N
  C19      1.0000 0.21493  0.93067  0.71607  Biso   1.000  C
  H17      1.0000 0.18073  0.89737  0.70977  Biso   1.000  H
  C20      1.0000 0.21823  0.96987  0.77557  Biso   1.000  C
  C21      1.0000 0.13563  0.89487  0.95697  Biso   1.000  C
  H18      1.0000 0.10953  0.86827  0.91717  Biso   1.000  H
  N10      1.0000 0.21013  0.98607  0.97687  Biso   1.000  N
  C22      1.0000 0.21263  0.97197  0.05897  Biso   1.000  C
  H19      1.0000 0.24043  0.99857  0.09677  Biso   1.000  H
  N11      1.0000 0.26623  0.01637  0.79037  Biso   1.000  N
  C23      1.0000 0.17183  0.94727  0.92477  Biso   1.000  C
  N12      1.0000 0.25713  0.93757  0.66777  Biso   1.000  N
  C24      1.0000 0.30953  0.02437  0.74147  Biso   1.000  C
  H20      1.0000 0.34363  0.05777  0.74847  Biso   1.000  H
  C25      1.0000 0.17723  0.92077  0.09377  Biso   1.000  C
  H21      1.0000 0.18103  0.91307  0.15427  Biso   1.000  H
  C26      1.0000 0.30633  0.98567  0.68107  Biso   1.000  C
  H22      1.0000 0.33813  0.99217  0.64847  Biso   1.000  H
  C27      1.0000 0.16873  0.96167  0.82967  Biso   1.000  C
  H23      1.0000 0.13463  0.93187  0.80227  Biso   1.000  H
  H24      1.0000 0.16663  0.99597  0.82767  Biso   1.000  H
  Ag4      1.0000 0.87060  0.61368  0.42770  Biso   1.000  Ag
  N13      1.0000 0.78620  0.58910  0.37460  Biso   1.000  N
  C28      1.0000 0.73600  0.61760  0.04940  Biso   1.000  C
  H25      1.0000 0.76930  0.61670  0.04310  Biso   1.000  H
  C29      1.0000 0.69680  0.58170  0.10890  Biso   1.000  C
  C30      1.0000 0.77180  0.57410  0.29030  Biso   1.000  C
  H26      1.0000 0.79840  0.57460  0.25050  Biso   1.000  H
  N14      1.0000 0.68060  0.55740  0.31020  Biso   1.000  N
  C31      1.0000 0.69470  0.57400  0.39230  Biso   1.000  C
  H27      1.0000 0.66810  0.57520  0.43010  Biso   1.000  H
  N15      1.0000 0.65030  0.58320  0.12370  Biso   1.000  N
  C32      1.0000 0.71940  0.55790  0.25810  Biso   1.000  C
  N16      1.0000 0.72910  0.65290  0.00110  Biso   1.000  N
  C33      1.0000 0.64230  0.61850  0.07480  Biso   1.000  C
  H28      1.0000 0.60890  0.61920  0.08180  Biso   1.000  H
  C34      1.0000 0.74590  0.58980  0.42710  Biso   1.000  C
  H29      1.0000 0.75360  0.60130  0.48760  Biso   1.000  H
  C35      1.0000 0.68100  0.65400  0.01440  Biso   1.000  C
  H30      1.0000 0.67450  0.67930  0.98180  Biso   1.000  H
  C36      1.0000 0.70500  0.54040  0.16300  Biso   1.000  C
  H31      1.0000 0.73480  0.53610  0.13560  Biso   1.000  H
  H32      1.0000 0.67070  0.50400  0.16100  Biso   1.000  H
  Ag5      1.0000 0.53727  0.94701  0.76103  Biso   1.000  Ag
  N17      1.0000 0.45287  0.92243  0.70793  Biso   1.000  N
  C37      1.0000 0.40267  0.95093  0.38273  Biso   1.000  C
  H33      1.0000 0.43597  0.95003  0.37643  Biso   1.000  H
  C38      1.0000 0.36347  0.91503  0.44223  Biso   1.000  C
  C39      1.0000 0.43847  0.90743  0.62363  Biso   1.000  C
  H34      1.0000 0.46507  0.90793  0.58383  Biso   1.000  H
  N18      1.0000 0.34727  0.89073  0.64353  Biso   1.000  N
  C40      1.0000 0.36137  0.90733  0.72563  Biso   1.000  C
  H35      1.0000 0.33477  0.90853  0.76343  Biso   1.000  H
  N19      1.0000 0.31697  0.91653  0.45703  Biso   1.000  N
  C41      1.0000 0.38607  0.89123  0.59143  Biso   1.000  C
  N20      1.0000 0.39577  0.98623  0.33443  Biso   1.000  N
  C42      1.0000 0.30897  0.95183  0.40813  Biso   1.000  C
  H36      1.0000 0.27557  0.95253  0.41513  Biso   1.000  H
  C43      1.0000 0.41257  0.92313  0.76043  Biso   1.000  C
  H37      1.0000 0.42027  0.93463  0.82093  Biso   1.000  H
  C44      1.0000 0.34767  0.98733  0.34773  Biso   1.000  C
  H38      1.0000 0.34117  0.01263  0.31513  Biso   1.000  H
  C45      1.0000 0.37167  0.87373  0.49633  Biso   1.000  C
  H39      1.0000 0.40147  0.86943  0.46893  Biso   1.000  H
  H40      1.0000 0.33737  0.83733  0.49433  Biso   1.000  H
  Ag6      1.0000 0.20393  0.28035  0.09437  Biso   1.000  Ag
  N21      1.0000 0.11953  0.25577  0.04127  Biso   1.000  N
  C46      1.0000 0.06933  0.28427  0.71607  Biso   1.000  C
  H41      1.0000 0.10263  0.28337  0.70977  Biso   1.000  H
  C47      1.0000 0.03013  0.24837  0.77557  Biso   1.000  C
  C48      1.0000 0.10513  0.24077  0.95697  Biso   1.000  C
  H42      1.0000 0.13173  0.24127  0.91717  Biso   1.000  H
  N22      1.0000 0.01393  0.22407  0.97687  Biso   1.000  N
  C49      1.0000 0.02803  0.24067  0.05897  Biso   1.000  C
  H43      1.0000 0.00143  0.24187  0.09677  Biso   1.000  H
  N23      1.0000 0.98363  0.24987  0.79037  Biso   1.000  N
  C50      1.0000 0.05273  0.22457  0.92477  Biso   1.000  C
  N24      1.0000 0.06243  0.31957  0.66777  Biso   1.000  N
  C51      1.0000 0.97563  0.28517  0.74147  Biso   1.000  C
  H44      1.0000 0.94223  0.28587  0.74847  Biso   1.000  H
  C52      1.0000 0.07923  0.25647  0.09377  Biso   1.000  C
  H45      1.0000 0.08693  0.26797  0.15427  Biso   1.000  H
  C53      1.0000 0.01433  0.32067  0.68107  Biso   1.000  C
  H46      1.0000 0.00783  0.34597  0.64847  Biso   1.000  H
  C54      1.0000 0.03833  0.20707  0.82967  Biso   1.000  C
  H47      1.0000 0.06813  0.20277  0.80227  Biso   1.000  H
  H48      1.0000 0.00403  0.17067  0.82767  Biso   1.000  H
  Ag7      1.0000 0.38632  0.25692  0.42770  Biso   1.000  Ag
  N25      1.0000 0.41090  0.19710  0.37460  Biso   1.000  N
  C55      1.0000 0.38240  0.11840  0.04940  Biso   1.000  C
  H49      1.0000 0.38330  0.15260  0.04310  Biso   1.000  H
  C56      1.0000 0.41830  0.11510  0.10890  Biso   1.000  C
  C57      1.0000 0.42590  0.19770  0.29030  Biso   1.000  C
  H50      1.0000 0.42540  0.22380  0.25050  Biso   1.000  H
  N26      1.0000 0.44260  0.12320  0.31020  Biso   1.000  N
  C58      1.0000 0.42600  0.12070  0.39230  Biso   1.000  C
  H51      1.0000 0.42480  0.09290  0.43010  Biso   1.000  H
  N27      1.0000 0.41680  0.06710  0.12370  Biso   1.000  N
  C59      1.0000 0.44210  0.16150  0.25810  Biso   1.000  C
  N28      1.0000 0.34710  0.07620  0.00110  Biso   1.000  N
  C60      1.0000 0.38150  0.02380  0.07480  Biso   1.000  C
  H52      1.0000 0.38080  0.98970  0.08180  Biso   1.000  H
  C61      1.0000 0.41020  0.15610  0.42710  Biso   1.000  C
  H53      1.0000 0.39870  0.15230  0.48760  Biso   1.000  H
  C62      1.0000 0.34600  0.02700  0.01440  Biso   1.000  C
  H54      1.0000 0.32070  0.99520  0.98180  Biso   1.000  H
  C63      1.0000 0.45960  0.16460  0.16300  Biso   1.000  C
  H55      1.0000 0.46390  0.19870  0.13560  Biso   1.000  H
  H56      1.0000 0.49600  0.16670  0.16100  Biso   1.000  H
  Ag8      1.0000 0.05299  0.59025  0.76103  Biso   1.000  Ag
  N29      1.0000 0.07757  0.53043  0.70793  Biso   1.000  N
  C64      1.0000 0.04907  0.45173  0.38273  Biso   1.000  C
  H57      1.0000 0.04997  0.48593  0.37643  Biso   1.000  H
  C65      1.0000 0.08497  0.44843  0.44223  Biso   1.000  C
  C66      1.0000 0.09257  0.53103  0.62363  Biso   1.000  C
  H58      1.0000 0.09207  0.55713  0.58383  Biso   1.000  H
  N30      1.0000 0.10927  0.45653  0.64353  Biso   1.000  N
  C67      1.0000 0.09267  0.45403  0.72563  Biso   1.000  C
  H59      1.0000 0.09147  0.42623  0.76343  Biso   1.000  H
  N31      1.0000 0.08347  0.40043  0.45703  Biso   1.000  N
  C68      1.0000 0.10877  0.49483  0.59143  Biso   1.000  C
  N32      1.0000 0.01377  0.40953  0.33443  Biso   1.000  N
  C69      1.0000 0.04817  0.35713  0.40813  Biso   1.000  C
  H60      1.0000 0.04747  0.32303  0.41513  Biso   1.000  H
  C70      1.0000 0.07687  0.48943  0.76043  Biso   1.000  C
  H61      1.0000 0.06537  0.48563  0.82093  Biso   1.000  H
  C71      1.0000 0.01267  0.36033  0.34773  Biso   1.000  C
  H62      1.0000 0.98737  0.32853  0.31513  Biso   1.000  H
  C72      1.0000 0.12627  0.49793  0.49633  Biso   1.000  C
  H63      1.0000 0.13057  0.53203  0.46893  Biso   1.000  H
  H64      1.0000 0.16267  0.50003  0.49433  Biso   1.000  H
  Ag9      1.0000 0.71965  0.92359  0.09437  Biso   1.000  Ag
  N33      1.0000 0.74423  0.86377  0.04127  Biso   1.000  N
  C73      1.0000 0.71573  0.78507  0.71607  Biso   1.000  C
  H65      1.0000 0.71663  0.81927  0.70977  Biso   1.000  H
  C74      1.0000 0.75163  0.78177  0.77557  Biso   1.000  C
  C75      1.0000 0.75923  0.86437  0.95697  Biso   1.000  C
  H66      1.0000 0.75873  0.89047  0.91717  Biso   1.000  H
  N34      1.0000 0.77593  0.78987  0.97687  Biso   1.000  N
  C76      1.0000 0.75933  0.78737  0.05897  Biso   1.000  C
  H67      1.0000 0.75813  0.75957  0.09677  Biso   1.000  H
  N35      1.0000 0.75013  0.73377  0.79037  Biso   1.000  N
  C77      1.0000 0.77543  0.82817  0.92477  Biso   1.000  C
  N36      1.0000 0.68043  0.74287  0.66777  Biso   1.000  N
  C78      1.0000 0.71483  0.69047  0.74147  Biso   1.000  C
  H68      1.0000 0.71413  0.65637  0.74847  Biso   1.000  H
  C79      1.0000 0.74353  0.82277  0.09377  Biso   1.000  C
  H69      1.0000 0.73203  0.81897  0.15427  Biso   1.000  H
  C80      1.0000 0.67933  0.69367  0.68107  Biso   1.000  C
  H70      1.0000 0.65403  0.66187  0.64847  Biso   1.000  H
  C81      1.0000 0.79293  0.83127  0.82967  Biso   1.000  C
  H71      1.0000 0.79723  0.86537  0.80227  Biso   1.000  H
  H72      1.0000 0.82933  0.83337  0.82767  Biso   1.000  H
  Ag10     1.0000 0.25692  0.87060  0.57230  Biso   1.000  Ag
  N37      1.0000 0.19710  0.78620  0.62540  Biso   1.000  N
  C82      1.0000 0.11840  0.73600  0.95060  Biso   1.000  C
  H73      1.0000 0.15260  0.76930  0.95690  Biso   1.000  H
  C83      1.0000 0.11510  0.69680  0.89110  Biso   1.000  C
  C84      1.0000 0.19770  0.77180  0.70970  Biso   1.000  C
  H74      1.0000 0.22380  0.79840  0.74950  Biso   1.000  H
  N38      1.0000 0.12320  0.68060  0.68980  Biso   1.000  N
  C85      1.0000 0.12070  0.69470  0.60770  Biso   1.000  C
  H75      1.0000 0.09290  0.66810  0.56990  Biso   1.000  H
  N39      1.0000 0.06710  0.65030  0.87630  Biso   1.000  N
  C86      1.0000 0.16150  0.71940  0.74190  Biso   1.000  C
  N40      1.0000 0.07620  0.72910  0.99890  Biso   1.000  N
  C87      1.0000 0.02380  0.64230  0.92520  Biso   1.000  C
  H76      1.0000 0.98970  0.60890  0.91820  Biso   1.000  H
  C88      1.0000 0.15610  0.74590  0.57290  Biso   1.000  C
  H77      1.0000 0.15230  0.75360  0.51240  Biso   1.000  H
  C89      1.0000 0.02700  0.68100  0.98560  Biso   1.000  C
  H78      1.0000 0.99520  0.67450  0.01820  Biso   1.000  H
  C90      1.0000 0.16460  0.70500  0.83700  Biso   1.000  C
  H79      1.0000 0.19870  0.73480  0.86440  Biso   1.000  H
  H80      1.0000 0.16670  0.67070  0.83900  Biso   1.000  H
  Ag11     1.0000 0.92359  0.20393  0.90563  Biso   1.000  Ag
  N41      1.0000 0.86377  0.11953  0.95873  Biso   1.000  N
  C91      1.0000 0.78507  0.06933  0.28393  Biso   1.000  C
  H81      1.0000 0.81927  0.10263  0.29023  Biso   1.000  H
  C92      1.0000 0.78177  0.03013  0.22443  Biso   1.000  C
  C93      1.0000 0.86437  0.10513  0.04303  Biso   1.000  C
  H82      1.0000 0.89047  0.13173  0.08283  Biso   1.000  H
  N42      1.0000 0.78987  0.01393  0.02313  Biso   1.000  N
  C94      1.0000 0.78737  0.02803  0.94103  Biso   1.000  C
  H83      1.0000 0.75957  0.00143  0.90323  Biso   1.000  H
  N43      1.0000 0.73377  0.98363  0.20963  Biso   1.000  N
  C95      1.0000 0.82817  0.05273  0.07523  Biso   1.000  C
  N44      1.0000 0.74287  0.06243  0.33223  Biso   1.000  N
  C96      1.0000 0.69047  0.97563  0.25853  Biso   1.000  C
  H84      1.0000 0.65637  0.94223  0.25153  Biso   1.000  H
  C97      1.0000 0.82277  0.07923  0.90623  Biso   1.000  C
  H85      1.0000 0.81897  0.08693  0.84573  Biso   1.000  H
  C98      1.0000 0.69367  0.01433  0.31893  Biso   1.000  C
  H86      1.0000 0.66187  0.00783  0.35153  Biso   1.000  H
  C99      1.0000 0.83127  0.03833  0.17033  Biso   1.000  C
  H87      1.0000 0.86537  0.06813  0.19773  Biso   1.000  H
  H88      1.0000 0.83337  0.00403  0.17233  Biso   1.000  H
  Ag12     1.0000 0.59025  0.53727  0.23897  Biso   1.000  Ag
  N45      1.0000 0.53043  0.45287  0.29207  Biso   1.000  N
  C100     1.0000 0.45173  0.40267  0.61727  Biso   1.000  C
  H89      1.0000 0.48593  0.43597  0.62357  Biso   1.000  H
  C101     1.0000 0.44843  0.36347  0.55777  Biso   1.000  C
  C102     1.0000 0.53103  0.43847  0.37637  Biso   1.000  C
  H90      1.0000 0.55713  0.46507  0.41617  Biso   1.000  H
  N46      1.0000 0.45653  0.34727  0.35647  Biso   1.000  N
  C103     1.0000 0.45403  0.36137  0.27437  Biso   1.000  C
  H91      1.0000 0.42623  0.33477  0.23657  Biso   1.000  H
  N47      1.0000 0.40043  0.31697  0.54297  Biso   1.000  N
  C104     1.0000 0.49483  0.38607  0.40857  Biso   1.000  C
  N48      1.0000 0.40953  0.39577  0.66557  Biso   1.000  N
  C105     1.0000 0.35713  0.30897  0.59187  Biso   1.000  C
  H92      1.0000 0.32303  0.27557  0.58487  Biso   1.000  H
  C106     1.0000 0.48943  0.41257  0.23957  Biso   1.000  C
  H93      1.0000 0.48563  0.42027  0.17907  Biso   1.000  H
  C107     1.0000 0.36033  0.34767  0.65227  Biso   1.000  C
  H94      1.0000 0.32853  0.34117  0.68487  Biso   1.000  H
  C108     1.0000 0.49793  0.37167  0.50367  Biso   1.000  C
  H95      1.0000 0.53203  0.40147  0.53107  Biso   1.000  H
  H96      1.0000 0.50003  0.33737  0.50567  Biso   1.000  H
  Ag13     1.0000 0.12940  0.38632  0.57230  Biso   1.000  Ag
  N49      1.0000 0.21380  0.41090  0.62540  Biso   1.000  N
  C109     1.0000 0.26400  0.38240  0.95060  Biso   1.000  C
  H97      1.0000 0.23070  0.38330  0.95690  Biso   1.000  H
  C110     1.0000 0.30320  0.41830  0.89110  Biso   1.000  C
  C111     1.0000 0.22820  0.42590  0.70970  Biso   1.000  C
  H98      1.0000 0.20160  0.42540  0.74950  Biso   1.000  H
  N50      1.0000 0.31940  0.44260  0.68980  Biso   1.000  N
  C112     1.0000 0.30530  0.42600  0.60770  Biso   1.000  C
  H99      1.0000 0.33190  0.42480  0.56990  Biso   1.000  H
  N51      1.0000 0.34970  0.41680  0.87630  Biso   1.000  N
  C113     1.0000 0.28060  0.44210  0.74190  Biso   1.000  C
  N52      1.0000 0.27090  0.34710  0.99890  Biso   1.000  N
  C114     1.0000 0.35770  0.38150  0.92520  Biso   1.000  C
  H100     1.0000 0.39110  0.38080  0.91820  Biso   1.000  H
  C115     1.0000 0.25410  0.41020  0.57290  Biso   1.000  C
  H101     1.0000 0.24640  0.39870  0.51240  Biso   1.000  H
  C116     1.0000 0.31900  0.34600  0.98560  Biso   1.000  C
  H102     1.0000 0.32550  0.32070  0.01820  Biso   1.000  H
  C117     1.0000 0.29500  0.45960  0.83700  Biso   1.000  C
  H103     1.0000 0.26520  0.46390  0.86440  Biso   1.000  H
  H104     1.0000 0.32930  0.49600  0.83900  Biso   1.000  H
  Ag14     1.0000 0.79607  0.71965  0.90563  Biso   1.000  Ag
  N53      1.0000 0.88047  0.74423  0.95873  Biso   1.000  N
  C118     1.0000 0.93067  0.71573  0.28393  Biso   1.000  C
  H105     1.0000 0.89737  0.71663  0.29023  Biso   1.000  H
  C119     1.0000 0.96987  0.75163  0.22443  Biso   1.000  C
  C120     1.0000 0.89487  0.75923  0.04303  Biso   1.000  C
  H106     1.0000 0.86827  0.75873  0.08283  Biso   1.000  H
  N54      1.0000 0.98607  0.77593  0.02313  Biso   1.000  N
  C121     1.0000 0.97197  0.75933  0.94103  Biso   1.000  C
  H107     1.0000 0.99857  0.75813  0.90323  Biso   1.000  H
  N55      1.0000 0.01637  0.75013  0.20963  Biso   1.000  N
  C122     1.0000 0.94727  0.77543  0.07523  Biso   1.000  C
  N56      1.0000 0.93757  0.68043  0.33223  Biso   1.000  N
  C123     1.0000 0.02437  0.71483  0.25853  Biso   1.000  C
  H108     1.0000 0.05777  0.71413  0.25153  Biso   1.000  H
  C124     1.0000 0.92077  0.74353  0.90623  Biso   1.000  C
  H109     1.0000 0.91307  0.73203  0.84573  Biso   1.000  H
  C125     1.0000 0.98567  0.67933  0.31893  Biso   1.000  C
  H110     1.0000 0.99217  0.65403  0.35153  Biso   1.000  H
  C126     1.0000 0.96167  0.79293  0.17033  Biso   1.000  C
  H111     1.0000 0.93187  0.79723  0.19773  Biso   1.000  H
  H112     1.0000 0.99597  0.82933  0.17233  Biso   1.000  H
  Ag15     1.0000 0.46273  0.05299  0.23897  Biso   1.000  Ag
  N57      1.0000 0.54713  0.07757  0.29207  Biso   1.000  N
  C127     1.0000 0.59733  0.04907  0.61727  Biso   1.000  C
  H113     1.0000 0.56403  0.04997  0.62357  Biso   1.000  H
  C128     1.0000 0.63653  0.08497  0.55777  Biso   1.000  C
  C129     1.0000 0.56153  0.09257  0.37637  Biso   1.000  C
  H114     1.0000 0.53493  0.09207  0.41617  Biso   1.000  H
  N58      1.0000 0.65273  0.10927  0.35647  Biso   1.000  N
  C130     1.0000 0.63863  0.09267  0.27437  Biso   1.000  C
  H115     1.0000 0.66523  0.09147  0.23657  Biso   1.000  H
  N59      1.0000 0.68303  0.08347  0.54297  Biso   1.000  N
  C131     1.0000 0.61393  0.10877  0.40857  Biso   1.000  C
  N60      1.0000 0.60423  0.01377  0.66557  Biso   1.000  N
  C132     1.0000 0.69103  0.04817  0.59187  Biso   1.000  C
  H116     1.0000 0.72443  0.04747  0.58487  Biso   1.000  H
  C133     1.0000 0.58743  0.07687  0.23957  Biso   1.000  C
  H117     1.0000 0.57973  0.06537  0.17907  Biso   1.000  H
  C134     1.0000 0.65233  0.01267  0.65227  Biso   1.000  C
  H118     1.0000 0.65883  0.98737  0.68487  Biso   1.000  H
  C135     1.0000 0.62833  0.12627  0.50367  Biso   1.000  C
  H119     1.0000 0.59853  0.13057  0.53107  Biso   1.000  H
  H120     1.0000 0.66263  0.16267  0.50567  Biso   1.000  H
  Ag16     1.0000 0.61368  0.74308  0.57230  Biso   1.000  Ag
  N61      1.0000 0.58910  0.80290  0.62540  Biso   1.000  N
  C136     1.0000 0.61760  0.88160  0.95060  Biso   1.000  C
  H121     1.0000 0.61670  0.84740  0.95690  Biso   1.000  H
  C137     1.0000 0.58170  0.88490  0.89110  Biso   1.000  C
  C138     1.0000 0.57410  0.80230  0.70970  Biso   1.000  C
  H122     1.0000 0.57460  0.77620  0.74950  Biso   1.000  H
  N62      1.0000 0.55740  0.87680  0.68980  Biso   1.000  N
  C139     1.0000 0.57400  0.87930  0.60770  Biso   1.000  C
  H123     1.0000 0.57520  0.90710  0.56990  Biso   1.000  H
  N63      1.0000 0.58320  0.93290  0.87630  Biso   1.000  N
  C140     1.0000 0.55790  0.83850  0.74190  Biso   1.000  C
  N64      1.0000 0.65290  0.92380  0.99890  Biso   1.000  N
  C141     1.0000 0.61850  0.97620  0.92520  Biso   1.000  C
  H124     1.0000 0.61920  0.01030  0.91820  Biso   1.000  H
  C142     1.0000 0.58980  0.84390  0.57290  Biso   1.000  C
  H125     1.0000 0.60130  0.84770  0.51240  Biso   1.000  H
  C143     1.0000 0.65400  0.97300  0.98560  Biso   1.000  C
  H126     1.0000 0.67930  0.00480  0.01820  Biso   1.000  H
  C144     1.0000 0.54040  0.83540  0.83700  Biso   1.000  C
  H127     1.0000 0.53610  0.80130  0.86440  Biso   1.000  H
  H128     1.0000 0.50400  0.83330  0.83900  Biso   1.000  H
  Ag17     1.0000 0.28035  0.07641  0.90563  Biso   1.000  Ag
  N65      1.0000 0.25577  0.13623  0.95873  Biso   1.000  N
  C145     1.0000 0.28427  0.21493  0.28393  Biso   1.000  C
  H129     1.0000 0.28337  0.18073  0.29023  Biso   1.000  H
  C146     1.0000 0.24837  0.21823  0.22443  Biso   1.000  C
  C147     1.0000 0.24077  0.13563  0.04303  Biso   1.000  C
  H130     1.0000 0.24127  0.10953  0.08283  Biso   1.000  H
  N66      1.0000 0.22407  0.21013  0.02313  Biso   1.000  N
  C148     1.0000 0.24067  0.21263  0.94103  Biso   1.000  C
  H131     1.0000 0.24187  0.24043  0.90323  Biso   1.000  H
  N67      1.0000 0.24987  0.26623  0.20963  Biso   1.000  N
  C149     1.0000 0.22457  0.17183  0.07523  Biso   1.000  C
  N68      1.0000 0.31957  0.25713  0.33223  Biso   1.000  N
  C150     1.0000 0.28517  0.30953  0.25853  Biso   1.000  C
  H132     1.0000 0.28587  0.34363  0.25153  Biso   1.000  H
  C151     1.0000 0.25647  0.17723  0.90623  Biso   1.000  C
  H133     1.0000 0.26797  0.18103  0.84573  Biso   1.000  H
  C152     1.0000 0.32067  0.30633  0.31893  Biso   1.000  C
  H134     1.0000 0.34597  0.33813  0.35153  Biso   1.000  H
  C153     1.0000 0.20707  0.16873  0.17033  Biso   1.000  C
  H135     1.0000 0.20277  0.13463  0.19773  Biso   1.000  H
  H136     1.0000 0.17067  0.16663  0.17233  Biso   1.000  H
  Ag18     1.0000 0.94701  0.40975  0.23897  Biso   1.000  Ag
  N69      1.0000 0.92243  0.46957  0.29207  Biso   1.000  N
  C154     1.0000 0.95093  0.54827  0.61727  Biso   1.000  C
  H137     1.0000 0.95003  0.51407  0.62357  Biso   1.000  H
  C155     1.0000 0.91503  0.55157  0.55777  Biso   1.000  C
  C156     1.0000 0.90743  0.46897  0.37637  Biso   1.000  C
  H138     1.0000 0.90793  0.44287  0.41617  Biso   1.000  H
  N70      1.0000 0.89073  0.54347  0.35647  Biso   1.000  N
  C157     1.0000 0.90733  0.54597  0.27437  Biso   1.000  C
  H139     1.0000 0.90853  0.57377  0.23657  Biso   1.000  H
  N71      1.0000 0.91653  0.59957  0.54297  Biso   1.000  N
  C158     1.0000 0.89123  0.50517  0.40857  Biso   1.000  C
  N72      1.0000 0.98623  0.59047  0.66557  Biso   1.000  N
  C159     1.0000 0.95183  0.64287  0.59187  Biso   1.000  C
  H140     1.0000 0.95253  0.67697  0.58487  Biso   1.000  H
  C160     1.0000 0.92313  0.51057  0.23957  Biso   1.000  C
  H141     1.0000 0.93463  0.51437  0.17907  Biso   1.000  H
  C161     1.0000 0.98733  0.63967  0.65227  Biso   1.000  C
  H142     1.0000 0.01263  0.67147  0.68487  Biso   1.000  H
  C162     1.0000 0.87373  0.50207  0.50367  Biso   1.000  C
  H143     1.0000 0.86943  0.46797  0.53107  Biso   1.000  H
  H144     1.0000 0.83733  0.49997  0.50567  Biso   1.000  H
