data_TAMJEY_charged
_audit_creation_date              2014-07-02
_audit_creation_method            'Materials Studio'
_symmetry_space_group_name_H-M    'P1'
_symmetry_Int_Tables_number       1
_symmetry_cell_setting            triclinic
loop_
_symmetry_equiv_pos_as_xyz
  x,y,z
_cell_length_a                    13.9544
_cell_length_b                    17.0179
_cell_length_c                    17.0179
_cell_angle_alpha                 67.1738
_cell_angle_beta                  74.1376
_cell_angle_gamma                 105.8620
loop_
_atom_site_label
_atom_site_type_symbol
_atom_site_fract_x
_atom_site_fract_y
_atom_site_fract_z
_atom_site_U_iso_or_equiv
_atom_site_adp_type
_atom_site_occupancy
Ag1    Ag    0.67598   0.87185   0.65966   0.01267  Uiso   1.00
Ag2    Ag    0.33564   0.65966   0.46849   0.01267  Uiso   1.00
Ag3    Ag    0.80413   0.46849   0.87185   0.01267  Uiso   1.00
Ag4    Ag    0.32402   0.12815   0.34034   0.01267  Uiso   1.00
Ag5    Ag    0.66436   0.34034   0.53151   0.01267  Uiso   1.00
Ag6    Ag    0.19587   0.53151   0.12815   0.01267  Uiso   1.00
H1     H     0.38850   0.07680   0.52180   0.01267  Uiso   1.00
H2     H     0.52860   0.97220   0.64760   0.01267  Uiso   1.00
H3     H     0.42200   0.06050   0.65910   0.01267  Uiso   1.00
H4     H     0.47970   0.15390   0.66190   0.01267  Uiso   1.00
H5     H     0.57450   0.39570   0.37630   0.01267  Uiso   1.00
H6     H     0.84620   0.08740   0.56330   0.01267  Uiso   1.00
H7     H     0.84600   0.23420   0.52110   0.01267  Uiso   1.00
H8     H     0.47660   0.32240   0.31230   0.01267  Uiso   1.00
H9     H     0.91030   0.52180   0.40140   0.01267  Uiso   1.00
H10    H     0.17620   0.64760   0.38020   0.01267  Uiso   1.00
H11    H     0.08110   0.65910   0.28040   0.01267  Uiso   1.00
H12    H     0.14160   0.66190   0.18420   0.01267  Uiso   1.00
H13    H     0.95080   0.37630   0.22800   0.01267  Uiso   1.00
H14    H     0.40950   0.56330   0.34930   0.01267  Uiso   1.00
H15    H     0.36710   0.52110   0.24470   0.01267  Uiso   1.00
H16    H     0.78890   0.31230   0.36530   0.01267  Uiso   1.00
H17    H     0.31170   0.40140   0.07680   0.01267  Uiso   1.00
H18    H     0.55640   0.38020   0.97220   0.01267  Uiso   1.00
H19    H     0.36150   0.28040   0.06050   0.01267  Uiso   1.00
H20    H     0.32580   0.18420   0.15390   0.01267  Uiso   1.00
H21    H     0.17880   0.22800   0.39570   0.01267  Uiso   1.00
H22    H     0.75880   0.34930   0.08740   0.01267  Uiso   1.00
H23    H     0.61180   0.24470   0.23420   0.01267  Uiso   1.00
H24    H     0.15420   0.36530   0.32240   0.01267  Uiso   1.00
H25    H     0.61150   0.92320   0.47820   0.01267  Uiso   1.00
H26    H     0.47140   0.02780   0.35240   0.01267  Uiso   1.00
H27    H     0.57800   0.93950   0.34090   0.01267  Uiso   1.00
H28    H     0.52030   0.84610   0.33810   0.01267  Uiso   1.00
H29    H     0.42550   0.60430   0.62370   0.01267  Uiso   1.00
H30    H     0.15380   0.91260   0.43670   0.01267  Uiso   1.00
H31    H     0.15400   0.76580   0.47890   0.01267  Uiso   1.00
H32    H     0.52340   0.67760   0.68770   0.01267  Uiso   1.00
H33    H     0.08970   0.47820   0.59860   0.01267  Uiso   1.00
H34    H     0.82380   0.35240   0.61980   0.01267  Uiso   1.00
H35    H     0.91890   0.34090   0.71960   0.01267  Uiso   1.00
H36    H     0.85840   0.33810   0.81580   0.01267  Uiso   1.00
H37    H     0.04920   0.62370   0.77200   0.01267  Uiso   1.00
H38    H     0.59050   0.43670   0.65070   0.01267  Uiso   1.00
H39    H     0.63290   0.47890   0.75530   0.01267  Uiso   1.00
H40    H     0.21110   0.68770   0.63470   0.01267  Uiso   1.00
H41    H     0.68830   0.59860   0.92320   0.01267  Uiso   1.00
H42    H     0.44360   0.61980   0.02780   0.01267  Uiso   1.00
H43    H     0.63850   0.71960   0.93950   0.01267  Uiso   1.00
H44    H     0.67420   0.81580   0.84610   0.01267  Uiso   1.00
H45    H     0.82120   0.77200   0.60430   0.01267  Uiso   1.00
H46    H     0.24120   0.65070   0.91260   0.01267  Uiso   1.00
H47    H     0.38820   0.75530   0.76580   0.01267  Uiso   1.00
H48    H     0.84580   0.63470   0.67760   0.01267  Uiso   1.00
C1     C     0.58850   0.11090   0.60570   0.01267  Uiso   1.00
C2     C     0.48010   0.18200   0.53250   0.01267  Uiso   1.00
C3     C     0.42330   0.14350   0.49280   0.01267  Uiso   1.00
C4     C     0.59450   0.02650   0.62300   0.01267  Uiso   1.00
C5     C     0.48550   0.12310   0.62300   0.01267  Uiso   1.00
C6     C     0.53540   0.32890   0.40850   0.01267  Uiso   1.00
C7     C     0.77850   0.09290   0.57300   0.01267  Uiso   1.00
C8     C     0.77810   0.18010   0.55040   0.01267  Uiso   1.00
C9     C     0.47390   0.28440   0.37180   0.01267  Uiso   1.00
C10    C     0.19420   0.60570   0.28340   0.01267  Uiso   1.00
C11    C     0.01260   0.53250   0.28550   0.01267  Uiso   1.00
C12    C     0.91610   0.49280   0.36370   0.01267  Uiso   1.00
C13    C     0.21750   0.62300   0.35050   0.01267  Uiso   1.00
C14    C     0.10850   0.62300   0.25390   0.01267  Uiso   1.00
C15    C     0.94390   0.40850   0.26260   0.01267  Uiso   1.00
C16    C     0.35150   0.57300   0.33410   0.01267  Uiso   1.00
C17    C     0.32850   0.55040   0.26950   0.01267  Uiso   1.00
C18    C     0.84570   0.37180   0.34380   0.01267  Uiso   1.00
C19    C     0.47760   0.28340   0.11090   0.01267  Uiso   1.00
C20    C     0.29810   0.28550   0.18200   0.01267  Uiso   1.00
C21    C     0.27980   0.36370   0.14350   0.01267  Uiso   1.00
C22    C     0.56800   0.35050   0.02650   0.01267  Uiso   1.00
C23    C     0.36240   0.25390   0.12310   0.01267  Uiso   1.00
C24    C     0.20650   0.26260   0.32890   0.01267  Uiso   1.00
C25    C     0.68560   0.33410   0.09290   0.01267  Uiso   1.00
C26    C     0.59800   0.26950   0.18010   0.01267  Uiso   1.00
C27    C     0.18950   0.34380   0.28440   0.01267  Uiso   1.00
C28    C     0.41150   0.88910   0.39430   0.01267  Uiso   1.00
C29    C     0.51990   0.81800   0.46750   0.01267  Uiso   1.00
C30    C     0.57670   0.85650   0.50720   0.01267  Uiso   1.00
C31    C     0.40550   0.97350   0.37700   0.01267  Uiso   1.00
C32    C     0.51450   0.87690   0.37700   0.01267  Uiso   1.00
C33    C     0.46460   0.67110   0.59150   0.01267  Uiso   1.00
C34    C     0.22150   0.90710   0.42700   0.01267  Uiso   1.00
C35    C     0.22190   0.81990   0.44960   0.01267  Uiso   1.00
C36    C     0.52610   0.71560   0.62820   0.01267  Uiso   1.00
C37    C     0.80580   0.39430   0.71660   0.01267  Uiso   1.00
C38    C     0.98740   0.46750   0.71450   0.01267  Uiso   1.00
C39    C     0.08390   0.50720   0.63630   0.01267  Uiso   1.00
C40    C     0.78250   0.37700   0.64950   0.01267  Uiso   1.00
C41    C     0.89150   0.37700   0.74610   0.01267  Uiso   1.00
C42    C     0.05610   0.59150   0.73740   0.01267  Uiso   1.00
C43    C     0.64850   0.42700   0.66590   0.01267  Uiso   1.00
C44    C     0.67150   0.44960   0.73050   0.01267  Uiso   1.00
C45    C     0.15430   0.62820   0.65620   0.01267  Uiso   1.00
C46    C     0.52240   0.71660   0.88910   0.01267  Uiso   1.00
C47    C     0.70190   0.71450   0.81800   0.01267  Uiso   1.00
C48    C     0.72020   0.63630   0.85650   0.01267  Uiso   1.00
C49    C     0.43200   0.64950   0.97350   0.01267  Uiso   1.00
C50    C     0.63760   0.74610   0.87690   0.01267  Uiso   1.00
C51    C     0.79350   0.73740   0.67110   0.01267  Uiso   1.00
C52    C     0.31440   0.66590   0.90710   0.01267  Uiso   1.00
C53    C     0.40200   0.73050   0.81990   0.01267  Uiso   1.00
C54    C     0.81050   0.65620   0.71560   0.01267  Uiso   1.00
N1     N     0.68890   0.01880   0.60660   0.01267  Uiso   1.00
N2     N     0.53730   0.27720   0.48670   0.01267  Uiso   1.00
N3     N     0.68430   0.18980   0.56910   0.01267  Uiso   1.00
N4     N     0.41440   0.19440   0.41590   0.01267  Uiso   1.00
N5     N     0.29550   0.60660   0.37460   0.01267  Uiso   1.00
N6     N     0.02400   0.48670   0.23610   0.01267  Uiso   1.00
N7     N     0.25340   0.56910   0.24110   0.01267  Uiso   1.00
N8     N     0.83030   0.41590   0.38970   0.01267  Uiso   1.00
N9     N     0.67010   0.37460   0.01880   0.01267  Uiso   1.00
N10    N     0.26010   0.23610   0.27720   0.01267  Uiso   1.00
N11    N     0.49450   0.24110   0.18980   0.01267  Uiso   1.00
N12    N     0.22000   0.38970   0.19440   0.01267  Uiso   1.00
N13    N     0.31110   0.98120   0.39340   0.01267  Uiso   1.00
N14    N     0.46270   0.72280   0.51330   0.01267  Uiso   1.00
N15    N     0.31570   0.81020   0.43090   0.01267  Uiso   1.00
N16    N     0.58560   0.80560   0.58410   0.01267  Uiso   1.00
N17    N     0.70450   0.39340   0.62540   0.01267  Uiso   1.00
N18    N     0.97600   0.51330   0.76390   0.01267  Uiso   1.00
N19    N     0.74660   0.43090   0.75890   0.01267  Uiso   1.00
N20    N     0.16970   0.58410   0.61030   0.01267  Uiso   1.00
N21    N     0.32990   0.62540   0.98120   0.01267  Uiso   1.00
N22    N     0.73990   0.76390   0.72280   0.01267  Uiso   1.00
N23    N     0.50550   0.75890   0.81020   0.01267  Uiso   1.00
N24    N     0.78000   0.61030   0.80560   0.01267  Uiso   1.00
Cl1    Cl    0.93636   0.68252   0.46874   0.01267  Uiso   1.00
O1     O     0.96810   0.76800   0.47100   0.01267  Uiso   1.00
O2     O     0.98370   0.63110   0.51650   0.01267  Uiso   1.00
O3     O     0.82180   0.64390   0.51730   0.01267  Uiso   1.00
O4     O     0.95650   0.70100   0.37730   0.01267  Uiso   1.00
Cl2    Cl    0.40510   0.46874   0.84874   0.01267  Uiso   1.00
O5     O     0.43910   0.47100   0.76100   0.01267  Uiso   1.00
O6     O     0.50020   0.51650   0.85240   0.01267  Uiso   1.00
O7     O     0.33910   0.51730   0.83880   0.01267  Uiso   1.00
O8     O     0.33380   0.37730   0.92170   0.01267  Uiso   1.00
Cl3    Cl    0.25384   0.84874   0.68252   0.01267  Uiso   1.00
O9     O     0.20010   0.76100   0.76800   0.01267  Uiso   1.00
O10    O     0.35260   0.85240   0.63110   0.01267  Uiso   1.00
O11    O     0.17790   0.83880   0.64390   0.01267  Uiso   1.00
O12    O     0.25550   0.92170   0.70100   0.01267  Uiso   1.00
Cl4    Cl    0.06364   0.31748   0.53126   0.01267  Uiso   1.00
O13    O     0.03190   0.23200   0.52900   0.01267  Uiso   1.00
O14    O     0.01630   0.36890   0.48350   0.01267  Uiso   1.00
O15    O     0.17820   0.35610   0.48270   0.01267  Uiso   1.00
O16    O     0.04350   0.29900   0.62270   0.01267  Uiso   1.00
Cl5    Cl    0.59490   0.53126   0.15126   0.01267  Uiso   1.00
O17    O     0.56090   0.52900   0.23900   0.01267  Uiso   1.00
O18    O     0.49980   0.48350   0.14760   0.01267  Uiso   1.00
O19    O     0.66090   0.48270   0.16120   0.01267  Uiso   1.00
O20    O     0.66620   0.62270   0.07830   0.01267  Uiso   1.00
Cl6    Cl    0.74616   0.15126   0.31748   0.01267  Uiso   1.00
O21    O     0.79990   0.23900   0.23200   0.01267  Uiso   1.00
O22    O     0.64740   0.14760   0.36890   0.01267  Uiso   1.00
O23    O     0.82210   0.16120   0.35610   0.01267  Uiso   1.00
O24    O     0.74450   0.07830   0.29900   0.01267  Uiso   1.00
