data_TAMJAU_charged
_audit_creation_date              2014-07-02
_audit_creation_method            'Materials Studio'
_symmetry_space_group_name_H-M    'P1'
_symmetry_Int_Tables_number       1
_symmetry_cell_setting            triclinic
loop_
_symmetry_equiv_pos_as_xyz
  x,y,z
_cell_length_a                    11.7766
_cell_length_b                    16.8551
_cell_length_c                    16.8551
_cell_angle_alpha                 65.2514
_cell_angle_beta                  76.5322
_cell_angle_gamma                 103.4680
loop_
_atom_site_label
_atom_site_type_symbol
_atom_site_fract_x
_atom_site_fract_y
_atom_site_fract_z
_atom_site_U_iso_or_equiv
_atom_site_adp_type
_atom_site_occupancy
Ag1    Ag    0.12586   0.34335   0.54531   0.01267  Uiso   1.00
Ag2    Ag    0.67117   0.54531   0.11134   0.01267  Uiso   1.00
Ag3    Ag    0.78251   0.11134   0.34335   0.01267  Uiso   1.00
Ag4    Ag    0.87414   0.65665   0.45469   0.01267  Uiso   1.00
Ag5    Ag    0.32883   0.45469   0.88866   0.01267  Uiso   1.00
Ag6    Ag    0.21749   0.88866   0.65665   0.01267  Uiso   1.00
H1     H     0.98580   0.38600   0.39650   0.01267  Uiso   1.00
H2     H     0.82800   0.06610   0.54160   0.01267  Uiso   1.00
H3     H     0.01230   0.97870   0.66060   0.01267  Uiso   1.00
H4     H     0.34860   0.25100   0.52790   0.01267  Uiso   1.00
H5     H     0.93040   0.15240   0.67860   0.01267  Uiso   1.00
H6     H     0.87430   0.05710   0.67690   0.01267  Uiso   1.00
H7     H     0.38050   0.10800   0.56280   0.01267  Uiso   1.00
H8     H     0.89320   0.31270   0.32890   0.01267  Uiso   1.00
H9     H     0.38230   0.39650   0.21750   0.01267  Uiso   1.00
H10    H     0.36960   0.54160   0.39230   0.01267  Uiso   1.00
H11    H     0.67290   0.66060   0.36070   0.01267  Uiso   1.00
H12    H     0.87650   0.52790   0.22110   0.01267  Uiso   1.00
H13    H     0.60900   0.67860   0.16900   0.01267  Uiso   1.00
H14    H     0.55120   0.67690   0.26600   0.01267  Uiso   1.00
H15    H     0.94330   0.56280   0.32920   0.01267  Uiso   1.00
H16    H     0.22210   0.32890   0.35840   0.01267  Uiso   1.00
H17    H     0.59980   0.21750   0.38600   0.01267  Uiso   1.00
H18    H     0.76190   0.39230   0.06610   0.01267  Uiso   1.00
H19    H     0.03360   0.36070   0.97870   0.01267  Uiso   1.00
H20    H     0.09760   0.22110   0.25100   0.01267  Uiso   1.00
H21    H     0.77800   0.16900   0.15240   0.01267  Uiso   1.00
H22    H     0.81720   0.26600   0.05710   0.01267  Uiso   1.00
H23    H     0.27250   0.32920   0.10800   0.01267  Uiso   1.00
H24    H     0.58050   0.35840   0.31270   0.01267  Uiso   1.00
H25    H     0.01420   0.61400   0.60350   0.01267  Uiso   1.00
H26    H     0.17200   0.93390   0.45840   0.01267  Uiso   1.00
H27    H     0.98770   0.02130   0.33940   0.01267  Uiso   1.00
H28    H     0.65140   0.74900   0.47210   0.01267  Uiso   1.00
H29    H     0.06960   0.84760   0.32140   0.01267  Uiso   1.00
H30    H     0.12570   0.94290   0.32310   0.01267  Uiso   1.00
H31    H     0.61950   0.89200   0.43720   0.01267  Uiso   1.00
H32    H     0.10680   0.68730   0.67110   0.01267  Uiso   1.00
H33    H     0.61770   0.60350   0.78250   0.01267  Uiso   1.00
H34    H     0.63040   0.45840   0.60770   0.01267  Uiso   1.00
H35    H     0.32710   0.33940   0.63930   0.01267  Uiso   1.00
H36    H     0.12350   0.47210   0.77890   0.01267  Uiso   1.00
H37    H     0.39100   0.32140   0.83100   0.01267  Uiso   1.00
H38    H     0.44880   0.32310   0.73400   0.01267  Uiso   1.00
H39    H     0.05670   0.43720   0.67080   0.01267  Uiso   1.00
H40    H     0.77790   0.67110   0.64160   0.01267  Uiso   1.00
H41    H     0.40020   0.78250   0.61400   0.01267  Uiso   1.00
H42    H     0.23810   0.60770   0.93390   0.01267  Uiso   1.00
H43    H     0.96640   0.63930   0.02130   0.01267  Uiso   1.00
H44    H     0.90240   0.77890   0.74900   0.01267  Uiso   1.00
H45    H     0.22200   0.83100   0.84760   0.01267  Uiso   1.00
H46    H     0.18280   0.73400   0.94290   0.01267  Uiso   1.00
H47    H     0.72750   0.67080   0.89200   0.01267  Uiso   1.00
H48    H     0.41950   0.64160   0.68730   0.01267  Uiso   1.00
C1     C     0.95530   0.31920   0.42720   0.01267  Uiso   1.00
C2     C     0.86270   0.13300   0.51010   0.01267  Uiso   1.00
C3     C     0.07230   0.11570   0.61820   0.01267  Uiso   1.00
C4     C     0.08480   0.03350   0.63620   0.01267  Uiso   1.00
C5     C     0.27750   0.19400   0.55790   0.01267  Uiso   1.00
C6     C     0.92230   0.17580   0.55110   0.01267  Uiso   1.00
C7     C     0.93970   0.12150   0.64020   0.01267  Uiso   1.00
C8     C     0.29780   0.10830   0.57840   0.01267  Uiso   1.00
C9     C     0.89910   0.27550   0.38740   0.01267  Uiso   1.00
C10    C     0.38250   0.42720   0.25360   0.01267  Uiso   1.00
C11    C     0.37280   0.51010   0.35690   0.01267  Uiso   1.00
C12    C     0.69050   0.61820   0.26610   0.01267  Uiso   1.00
C13    C     0.72100   0.63620   0.33030   0.01267  Uiso   1.00
C14    C     0.83540   0.55790   0.24810   0.01267  Uiso   1.00
C15    C     0.47340   0.55110   0.27310   0.01267  Uiso   1.00
C16    C     0.57990   0.64020   0.23830   0.01267  Uiso   1.00
C17    C     0.87620   0.57840   0.31330   0.01267  Uiso   1.00
C18    C     0.28650   0.38740   0.33710   0.01267  Uiso   1.00
C19    C     0.63610   0.25360   0.31920   0.01267  Uiso   1.00
C20    C     0.72970   0.35690   0.13300   0.01267  Uiso   1.00
C21    C     0.95660   0.26610   0.11570   0.01267  Uiso   1.00
C22    C     0.05130   0.33030   0.03350   0.01267  Uiso   1.00
C23    C     0.08350   0.24810   0.19400   0.01267  Uiso   1.00
C24    C     0.74650   0.27310   0.17580   0.01267  Uiso   1.00
C25    C     0.81820   0.23830   0.12150   0.01267  Uiso   1.00
C26    C     0.18950   0.31330   0.10830   0.01267  Uiso   1.00
C27    C     0.62360   0.33710   0.27550   0.01267  Uiso   1.00
C28    C     0.04470   0.68080   0.57280   0.01267  Uiso   1.00
C29    C     0.13730   0.86700   0.48990   0.01267  Uiso   1.00
C30    C     0.92770   0.88430   0.38180   0.01267  Uiso   1.00
C31    C     0.91520   0.96650   0.36380   0.01267  Uiso   1.00
C32    C     0.72250   0.80600   0.44210   0.01267  Uiso   1.00
C33    C     0.07770   0.82420   0.44890   0.01267  Uiso   1.00
C34    C     0.06030   0.87850   0.35980   0.01267  Uiso   1.00
C35    C     0.70220   0.89170   0.42160   0.01267  Uiso   1.00
C36    C     0.10090   0.72450   0.61260   0.01267  Uiso   1.00
C37    C     0.61750   0.57280   0.74640   0.01267  Uiso   1.00
C38    C     0.62720   0.48990   0.64310   0.01267  Uiso   1.00
C39    C     0.30950   0.38180   0.73390   0.01267  Uiso   1.00
C40    C     0.27900   0.36380   0.66970   0.01267  Uiso   1.00
C41    C     0.16460   0.44210   0.75190   0.01267  Uiso   1.00
C42    C     0.52660   0.44890   0.72690   0.01267  Uiso   1.00
C43    C     0.42010   0.35980   0.76170   0.01267  Uiso   1.00
C44    C     0.12380   0.42160   0.68670   0.01267  Uiso   1.00
C45    C     0.71350   0.61260   0.66290   0.01267  Uiso   1.00
C46    C     0.36390   0.74640   0.68080   0.01267  Uiso   1.00
C47    C     0.27030   0.64310   0.86700   0.01267  Uiso   1.00
C48    C     0.04340   0.73390   0.88430   0.01267  Uiso   1.00
C49    C     0.94870   0.66970   0.96650   0.01267  Uiso   1.00
C50    C     0.91650   0.75190   0.80600   0.01267  Uiso   1.00
C51    C     0.25350   0.72690   0.82420   0.01267  Uiso   1.00
C52    C     0.18180   0.76170   0.87850   0.01267  Uiso   1.00
C53    C     0.81050   0.68670   0.89170   0.01267  Uiso   1.00
C54    C     0.37640   0.66290   0.72450   0.01267  Uiso   1.00
N1     N     0.96950   0.27160   0.50890   0.01267  Uiso   1.00
N2     N     0.16480   0.19700   0.57890   0.01267  Uiso   1.00
N3     N     0.85170   0.18150   0.42750   0.01267  Uiso   1.00
N4     N     0.19650   0.02830   0.62020   0.01267  Uiso   1.00
N5     N     0.47840   0.50890   0.21950   0.01267  Uiso   1.00
N6     N     0.74370   0.57890   0.22410   0.01267  Uiso   1.00
N7     N     0.27920   0.42750   0.39100   0.01267  Uiso   1.00
N8     N     0.81670   0.62020   0.35150   0.01267  Uiso   1.00
N9     N     0.69790   0.21950   0.27160   0.01267  Uiso   1.00
N10    N     0.96780   0.22410   0.19700   0.01267  Uiso   1.00
N11    N     0.67020   0.39100   0.18150   0.01267  Uiso   1.00
N12    N     0.16820   0.35150   0.02830   0.01267  Uiso   1.00
N13    N     0.03050   0.72840   0.49110   0.01267  Uiso   1.00
N14    N     0.83520   0.80300   0.42110   0.01267  Uiso   1.00
N15    N     0.14830   0.81850   0.57250   0.01267  Uiso   1.00
N16    N     0.80350   0.97170   0.37980   0.01267  Uiso   1.00
N17    N     0.52160   0.49110   0.78050   0.01267  Uiso   1.00
N18    N     0.25630   0.42110   0.77590   0.01267  Uiso   1.00
N19    N     0.72080   0.57250   0.60900   0.01267  Uiso   1.00
N20    N     0.18330   0.37980   0.64850   0.01267  Uiso   1.00
N21    N     0.30210   0.78050   0.72840   0.01267  Uiso   1.00
N22    N     0.03220   0.77590   0.80300   0.01267  Uiso   1.00
N23    N     0.32980   0.60900   0.81850   0.01267  Uiso   1.00
N24    N     0.83180   0.64850   0.97170   0.01267  Uiso   1.00
Cl1    Cl    0.38906   0.66668   0.48460   0.01267  Uiso   1.00
O1     O     0.46230   0.69210   0.39560   0.01267  Uiso   1.00
O2     O     0.39100   0.74510   0.49330   0.01267  Uiso   1.00
O3     O     0.43290   0.60990   0.55190   0.01267  Uiso   1.00
O4     O     0.26330   0.60940   0.50070   0.01267  Uiso   1.00
Cl2    Cl    0.87366   0.48460   0.84872   0.01267  Uiso   1.00
O5     O     0.85790   0.39560   0.91230   0.01267  Uiso   1.00
O6     O     0.88430   0.49330   0.76160   0.01267  Uiso   1.00
O7     O     0.98480   0.55190   0.83820   0.01267  Uiso   1.00
O8     O     0.76400   0.50070   0.88990   0.01267  Uiso   1.00
Cl3    Cl    0.72238   0.84872   0.66668   0.01267  Uiso   1.00
O9     O     0.77020   0.91230   0.69210   0.01267  Uiso   1.00
O10    O     0.64590   0.76160   0.74510   0.01267  Uiso   1.00
O11    O     0.82300   0.83820   0.60990   0.01267  Uiso   1.00
O12    O     0.65390   0.88990   0.60940   0.01267  Uiso   1.00
Cl4    Cl    0.61094   0.33332   0.51540   0.01267  Uiso   1.00
O13    O     0.53770   0.30790   0.60440   0.01267  Uiso   1.00
O14    O     0.60900   0.25490   0.50670   0.01267  Uiso   1.00
O15    O     0.56710   0.39010   0.44810   0.01267  Uiso   1.00
O16    O     0.73670   0.39060   0.49930   0.01267  Uiso   1.00
Cl5    Cl    0.12634   0.51540   0.15128   0.01267  Uiso   1.00
O17    O     0.14210   0.60440   0.08770   0.01267  Uiso   1.00
O18    O     0.11570   0.50670   0.23840   0.01267  Uiso   1.00
O19    O     0.01520   0.44810   0.16180   0.01267  Uiso   1.00
O20    O     0.23600   0.49930   0.11010   0.01267  Uiso   1.00
Cl6    Cl    0.27762   0.15128   0.33332   0.01267  Uiso   1.00
O21    O     0.22980   0.08770   0.30790   0.01267  Uiso   1.00
O22    O     0.35410   0.23840   0.25490   0.01267  Uiso   1.00
O23    O     0.17700   0.16180   0.39010   0.01267  Uiso   1.00
O24    O     0.34610   0.11010   0.39060   0.01267  Uiso   1.00
