data_TAMZUE_charged
_audit_creation_date              2014-07-02
_audit_creation_method            'Materials Studio'
_symmetry_space_group_name_H-M    'P1'
_symmetry_Int_Tables_number       1
_symmetry_cell_setting            triclinic
loop_
_symmetry_equiv_pos_as_xyz
  x,y,z
_cell_length_a                    11.1450
_cell_length_b                    12.4240
_cell_length_c                    22.1800
_cell_angle_alpha                 102.0160
_cell_angle_beta                  103.4750
_cell_angle_gamma                 95.4190
loop_
_atom_site_label
_atom_site_type_symbol
_atom_site_fract_x
_atom_site_fract_y
_atom_site_fract_z
_atom_site_U_iso_or_equiv
_atom_site_adp_type
_atom_site_occupancy
Gd1    Gd    0.69874   0.55351   0.54865   0.01267  Uiso   1.00
Gd2    Gd    0.04060   0.36852   0.05069   0.01267  Uiso   1.00
Gd3    Gd    0.30126   0.44649   0.45135   0.01267  Uiso   1.00
Gd4    Gd    0.95940   0.63148   0.94931   0.01267  Uiso   1.00
Co1    Co    0.67761   0.91371   0.25699   0.01267  Uiso   1.00
Co2    Co    0.32239   0.08629   0.74301   0.01267  Uiso   1.00
H1     H     0.77570   0.87340   0.38830   0.01267  Uiso   1.00
H2     H     0.69520   0.76490   0.45040   0.01267  Uiso   1.00
H3     H     0.40230   0.64270   0.29770   0.01267  Uiso   1.00
H4     H     0.32640   0.63420   0.19340   0.01267  Uiso   1.00
H5     H     0.31940   0.81510   0.06550   0.01267  Uiso   1.00
H6     H     0.49720   0.92630   0.12990   0.01267  Uiso   1.00
H7     H     0.67950   0.15100   0.22490   0.01267  Uiso   1.00
H8     H     0.76090   0.22940   0.15900   0.01267  Uiso   1.00
H9     H     0.85110   0.93600   0.08000   0.01267  Uiso   1.00
H10    H     0.84270   0.75800   0.08150   0.01267  Uiso   1.00
H11    H     0.80440   0.54210   0.18690   0.01267  Uiso   1.00
H12    H     0.73230   0.67580   0.25080   0.01267  Uiso   1.00
H13    H     0.94760   0.86990   0.28070   0.01267  Uiso   1.00
H14    H     0.13940   0.96120   0.34860   0.01267  Uiso   1.00
H15    H     0.95880   0.21500   0.41230   0.01267  Uiso   1.00
H16    H     0.76940   0.25220   0.41760   0.01267  Uiso   1.00
H17    H     0.40150   0.16530   0.33470   0.01267  Uiso   1.00
H18    H     0.43980   0.01570   0.26780   0.01267  Uiso   1.00
H19    H     0.74270   0.67450   0.68160   0.01267  Uiso   1.00
H20    H     0.87380   0.68230   0.66690   0.01267  Uiso   1.00
H21    H     0.83820   0.39880   0.60100   0.01267  Uiso   1.00
H22    H     0.93030   0.51060   0.61790   0.01267  Uiso   1.00
H23    H     0.88140   0.61420   0.48390   0.01267  Uiso   1.00
H24    H     0.77320   0.53300   0.43130   0.01267  Uiso   1.00
H25    H     0.05090   0.35600   0.18060   0.01267  Uiso   1.00
H26    H     0.16560   0.44350   0.18520   0.01267  Uiso   1.00
H27    H     0.25720   0.27680   0.03210   0.01267  Uiso   1.00
H28    H     0.30640   0.39020   0.08290   0.01267  Uiso   1.00
H29    H     0.98170   0.19940   0.93480   0.01267  Uiso   1.00
H30    H     0.98260   0.13810   0.97740   0.01267  Uiso   1.00
H31    H     0.22430   0.12660   0.61170   0.01267  Uiso   1.00
H32    H     0.30480   0.23510   0.54960   0.01267  Uiso   1.00
H33    H     0.59770   0.35730   0.70230   0.01267  Uiso   1.00
H34    H     0.67360   0.36580   0.80660   0.01267  Uiso   1.00
H35    H     0.68060   0.18490   0.93450   0.01267  Uiso   1.00
H36    H     0.50280   0.07370   0.87010   0.01267  Uiso   1.00
H37    H     0.32050   0.84900   0.77510   0.01267  Uiso   1.00
H38    H     0.23910   0.77060   0.84100   0.01267  Uiso   1.00
H39    H     0.14890   0.06400   0.92000   0.01267  Uiso   1.00
H40    H     0.15730   0.24200   0.91850   0.01267  Uiso   1.00
H41    H     0.19560   0.45790   0.81310   0.01267  Uiso   1.00
H42    H     0.26770   0.32420   0.74920   0.01267  Uiso   1.00
H43    H     0.05240   0.13010   0.71930   0.01267  Uiso   1.00
H44    H     0.86060   0.03880   0.65140   0.01267  Uiso   1.00
H45    H     0.04120   0.78500   0.58770   0.01267  Uiso   1.00
H46    H     0.23060   0.74780   0.58240   0.01267  Uiso   1.00
H47    H     0.59850   0.83470   0.66530   0.01267  Uiso   1.00
H48    H     0.56020   0.98430   0.73220   0.01267  Uiso   1.00
H49    H     0.25730   0.32550   0.31840   0.01267  Uiso   1.00
H50    H     0.12620   0.31770   0.33310   0.01267  Uiso   1.00
H51    H     0.16180   0.60120   0.39900   0.01267  Uiso   1.00
H52    H     0.06970   0.48940   0.38210   0.01267  Uiso   1.00
H53    H     0.11860   0.38580   0.51610   0.01267  Uiso   1.00
H54    H     0.22680   0.46700   0.56870   0.01267  Uiso   1.00
H55    H     0.94910   0.64400   0.81940   0.01267  Uiso   1.00
H56    H     0.83440   0.55650   0.81480   0.01267  Uiso   1.00
H57    H     0.74280   0.72320   0.96790   0.01267  Uiso   1.00
H58    H     0.69360   0.60980   0.91710   0.01267  Uiso   1.00
H59    H     0.01830   0.80060   0.06520   0.01267  Uiso   1.00
H60    H     0.01740   0.86190   0.02260   0.01267  Uiso   1.00
C1     C     0.69920   0.82760   0.37080   0.01267  Uiso   1.00
C2     C     0.65250   0.75910   0.40820   0.01267  Uiso   1.00
C3     C     0.54650   0.68700   0.38090   0.01267  Uiso   1.00
C4     C     0.47780   0.68940   0.31700   0.01267  Uiso   1.00
C5     C     0.52250   0.75840   0.28590   0.01267  Uiso   1.00
C6     C     0.46630   0.76880   0.22150   0.01267  Uiso   1.00
C7     C     0.36040   0.69350   0.18010   0.01267  Uiso   1.00
C8     C     0.30630   0.71020   0.11730   0.01267  Uiso   1.00
C9     C     0.35640   0.79820   0.10380   0.01267  Uiso   1.00
C10    C     0.46190   0.86790   0.14360   0.01267  Uiso   1.00
C11    C     0.49350   0.60800   0.41530   0.01267  Uiso   1.00
C12    C     0.19320   0.63040   0.07380   0.01267  Uiso   1.00
C13    C     0.71590   0.10800   0.19660   0.01267  Uiso   1.00
C14    C     0.76170   0.15400   0.15700   0.01267  Uiso   1.00
C15    C     0.81290   0.08890   0.11110   0.01267  Uiso   1.00
C16    C     0.81860   0.98000   0.10980   0.01267  Uiso   1.00
C17    C     0.77400   0.93670   0.15480   0.01267  Uiso   1.00
C18    C     0.77010   0.81740   0.15620   0.01267  Uiso   1.00
C19    C     0.81630   0.73920   0.11530   0.01267  Uiso   1.00
C20    C     0.82190   0.63510   0.12600   0.01267  Uiso   1.00
C21    C     0.79510   0.61060   0.17710   0.01267  Uiso   1.00
C22    C     0.75180   0.69450   0.21540   0.01267  Uiso   1.00
C23    C     0.86510   0.14250   0.06770   0.01267  Uiso   1.00
C24    C     0.87930   0.56090   0.08380   0.01267  Uiso   1.00
C25    C     0.95120   0.93800   0.30860   0.01267  Uiso   1.00
C26    C     0.06750   0.99410   0.34720   0.01267  Uiso   1.00
C27    C     0.07130   0.09730   0.38190   0.01267  Uiso   1.00
C28    C     0.95660   0.14560   0.38590   0.01267  Uiso   1.00
C29    C     0.84670   0.08260   0.34850   0.01267  Uiso   1.00
C30    C     0.72400   0.11480   0.34970   0.01267  Uiso   1.00
C31    C     0.70250   0.20380   0.38840   0.01267  Uiso   1.00
C32    C     0.57840   0.22620   0.38580   0.01267  Uiso   1.00
C33    C     0.48340   0.15220   0.33880   0.01267  Uiso   1.00
C34    C     0.50540   0.06230   0.29890   0.01267  Uiso   1.00
C35    C     0.19310   0.17040   0.41700   0.01267  Uiso   1.00
C36    C     0.54350   0.32220   0.42790   0.01267  Uiso   1.00
C37    C     0.30080   0.17240   0.62920   0.01267  Uiso   1.00
C38    C     0.34750   0.24090   0.59180   0.01267  Uiso   1.00
C39    C     0.45350   0.31300   0.61910   0.01267  Uiso   1.00
C40    C     0.52220   0.31060   0.68300   0.01267  Uiso   1.00
C41    C     0.47750   0.24160   0.71410   0.01267  Uiso   1.00
C42    C     0.53370   0.23120   0.77850   0.01267  Uiso   1.00
C43    C     0.63960   0.30650   0.81990   0.01267  Uiso   1.00
C44    C     0.69370   0.28980   0.88270   0.01267  Uiso   1.00
C45    C     0.64360   0.20180   0.89620   0.01267  Uiso   1.00
C46    C     0.53810   0.13210   0.85640   0.01267  Uiso   1.00
C47    C     0.50650   0.39200   0.58470   0.01267  Uiso   1.00
C48    C     0.80680   0.36960   0.92620   0.01267  Uiso   1.00
C49    C     0.28410   0.89200   0.80340   0.01267  Uiso   1.00
C50    C     0.23830   0.84600   0.84300   0.01267  Uiso   1.00
C51    C     0.18710   0.91110   0.88890   0.01267  Uiso   1.00
C52    C     0.18140   0.02000   0.89020   0.01267  Uiso   1.00
C53    C     0.22600   0.06330   0.84520   0.01267  Uiso   1.00
C54    C     0.22990   0.18260   0.84380   0.01267  Uiso   1.00
C55    C     0.18370   0.26080   0.88470   0.01267  Uiso   1.00
C56    C     0.17810   0.36490   0.87400   0.01267  Uiso   1.00
C57    C     0.20490   0.38940   0.82290   0.01267  Uiso   1.00
C58    C     0.24820   0.30550   0.78460   0.01267  Uiso   1.00
C59    C     0.13490   0.85750   0.93230   0.01267  Uiso   1.00
C60    C     0.12070   0.43910   0.91620   0.01267  Uiso   1.00
C61    C     0.04880   0.06200   0.69140   0.01267  Uiso   1.00
C62    C     0.93250   0.00590   0.65280   0.01267  Uiso   1.00
C63    C     0.92870   0.90270   0.61810   0.01267  Uiso   1.00
C64    C     0.04340   0.85440   0.61410   0.01267  Uiso   1.00
C65    C     0.15330   0.91740   0.65150   0.01267  Uiso   1.00
C66    C     0.27600   0.88520   0.65030   0.01267  Uiso   1.00
C67    C     0.29750   0.79620   0.61160   0.01267  Uiso   1.00
C68    C     0.42160   0.77380   0.61420   0.01267  Uiso   1.00
C69    C     0.51660   0.84780   0.66120   0.01267  Uiso   1.00
C70    C     0.49460   0.93770   0.70110   0.01267  Uiso   1.00
C71    C     0.80690   0.82960   0.58300   0.01267  Uiso   1.00
C72    C     0.45650   0.67780   0.57210   0.01267  Uiso   1.00
N1     N     0.63240   0.82660   0.30920   0.01267  Uiso   1.00
N2     N     0.51460   0.85250   0.20210   0.01267  Uiso   1.00
N3     N     0.72030   0.99290   0.19760   0.01267  Uiso   1.00
N4     N     0.73480   0.79220   0.20970   0.01267  Uiso   1.00
N5     N     0.84400   0.97920   0.31070   0.01267  Uiso   1.00
N6     N     0.62350   0.04110   0.30480   0.01267  Uiso   1.00
N7     N     0.36760   0.17340   0.69080   0.01267  Uiso   1.00
N8     N     0.48540   0.14750   0.79790   0.01267  Uiso   1.00
N9     N     0.27970   0.00710   0.80240   0.01267  Uiso   1.00
N10    N     0.26520   0.20780   0.79030   0.01267  Uiso   1.00
N11    N     0.15600   0.02080   0.68930   0.01267  Uiso   1.00
N12    N     0.37650   0.95890   0.69520   0.01267  Uiso   1.00
O1     O     0.57010   0.59020   0.46210   0.01267  Uiso   1.00
O2     O     0.37820   0.56690   0.39973   0.01267  Uiso   1.00
O3     O     0.16010   0.54890   0.09030   0.01267  Uiso   1.00
O4     O     0.14430   0.65960   0.02810   0.01267  Uiso   1.00
O5     O     0.90900   0.24490   0.08170   0.01267  Uiso   1.00
O6     O     0.87120   0.07600   0.01640   0.01267  Uiso   1.00
O7     O     0.90460   0.58430   0.03670   0.01267  Uiso   1.00
O8     O     0.90830   0.47210   0.10330   0.01267  Uiso   1.00
O9     O     0.28690   0.12520   0.42830   0.01267  Uiso   1.00
O10    O     0.19520   0.27320   0.43860   0.01267  Uiso   1.00
O11    O     0.63660   0.37770   0.47100   0.01267  Uiso   1.00
O12    O     0.44380   0.35310   0.41300   0.01267  Uiso   1.00
O13    O     0.79860   0.63340   0.66240   0.01267  Uiso   1.00
O14    O     0.86730   0.45920   0.58470   0.01267  Uiso   1.00
O15    O     0.82600   0.54520   0.47380   0.01267  Uiso   1.00
O16    O     0.11940   0.37150   0.16280   0.01267  Uiso   1.00
O17    O     0.24680   0.32330   0.07040   0.01267  Uiso   1.00
O18    O     0.02080   0.19000   0.97470   0.01267  Uiso   1.00
O19    O     0.42990   0.40980   0.53790   0.01267  Uiso   1.00
O20    O     0.62180   0.43310   0.60027   0.01267  Uiso   1.00
O21    O     0.83990   0.45110   0.90970   0.01267  Uiso   1.00
O22    O     0.85570   0.34040   0.97190   0.01267  Uiso   1.00
O23    O     0.09100   0.75510   0.91830   0.01267  Uiso   1.00
O24    O     0.12880   0.92400   0.98360   0.01267  Uiso   1.00
O25    O     0.09540   0.41570   0.96330   0.01267  Uiso   1.00
O26    O     0.09170   0.52790   0.89670   0.01267  Uiso   1.00
O27    O     0.71310   0.87480   0.57170   0.01267  Uiso   1.00
O28    O     0.80480   0.72680   0.56140   0.01267  Uiso   1.00
O29    O     0.36340   0.62230   0.52900   0.01267  Uiso   1.00
O30    O     0.55620   0.64690   0.58700   0.01267  Uiso   1.00
O31    O     0.20140   0.36660   0.33760   0.01267  Uiso   1.00
O32    O     0.13270   0.54080   0.41530   0.01267  Uiso   1.00
O33    O     0.17400   0.45480   0.52620   0.01267  Uiso   1.00
O34    O     0.88060   0.62850   0.83720   0.01267  Uiso   1.00
O35    O     0.75320   0.67670   0.92960   0.01267  Uiso   1.00
O36    O     0.97920   0.81000   0.02530   0.01267  Uiso   1.00
N13    N     0.86180   0.03590   0.79940   0.01267  Uiso   1.00
O37    O     0.90210   0.94780   0.79720   0.01267  Uiso   1.00
O38    O     0.90920   0.11680   0.84440   0.01267  Uiso   1.00
O39    O     0.77510   0.04590   0.75810   0.01267  Uiso   1.00
N14    N     0.12340   0.60470   0.70890   0.01267  Uiso   1.00
O40    O     0.03860   0.62360   0.73490   0.01267  Uiso   1.00
O41    O     0.21170   0.57090   0.73830   0.01267  Uiso   1.00
O42    O     0.12500   0.62890   0.65840   0.01267  Uiso   1.00
N15    N     0.21160   0.84870   0.46160   0.01267  Uiso   1.00
O43    O     0.31650   0.89710   0.47760   0.01267  Uiso   1.00
O44    O     0.18970   0.74790   0.43760   0.01267  Uiso   1.00
O45    O     0.12380   0.89870   0.46850   0.01267  Uiso   1.00
N16    N     0.13820   0.96410   0.20060   0.01267  Uiso   1.00
O46    O     0.09790   0.05220   0.20280   0.01267  Uiso   1.00
O47    O     0.09080   0.88320   0.15560   0.01267  Uiso   1.00
O48    O     0.22490   0.95410   0.24190   0.01267  Uiso   1.00
N17    N     0.87660   0.39530   0.29110   0.01267  Uiso   1.00
O49    O     0.96140   0.37640   0.26510   0.01267  Uiso   1.00
O50    O     0.78830   0.42910   0.26170   0.01267  Uiso   1.00
O51    O     0.87500   0.37110   0.34160   0.01267  Uiso   1.00
N18    N     0.78840   0.15130   0.53840   0.01267  Uiso   1.00
O52    O     0.68350   0.10290   0.52240   0.01267  Uiso   1.00
O53    O     0.81030   0.25210   0.56240   0.01267  Uiso   1.00
O54    O     0.87620   0.10130   0.53150   0.01267  Uiso   1.00
