data_TANBIV_charged
_audit_creation_date              2014-07-02
_audit_creation_method            'Materials Studio'
_symmetry_space_group_name_H-M    'P1'
_symmetry_Int_Tables_number       1
_symmetry_cell_setting            triclinic
loop_
_symmetry_equiv_pos_as_xyz
  x,y,z
_cell_length_a                    11.1668
_cell_length_b                    12.4554
_cell_length_c                    22.2593
_cell_angle_alpha                 101.9860
_cell_angle_beta                  103.3190
_cell_angle_gamma                 95.5480
loop_
_atom_site_label
_atom_site_type_symbol
_atom_site_fract_x
_atom_site_fract_y
_atom_site_fract_z
_atom_site_U_iso_or_equiv
_atom_site_adp_type
_atom_site_occupancy
Eu1    Eu    0.30130   0.44646   0.45140   0.01267  Uiso   1.00
Eu2    Eu    0.95955   0.63154   0.94940   0.01267  Uiso   1.00
Eu3    Eu    0.69870   0.55354   0.54860   0.01267  Uiso   1.00
Eu4    Eu    0.04045   0.36846   0.05060   0.01267  Uiso   1.00
Co1    Co    0.32222   0.08606   0.74277   0.01267  Uiso   1.00
Co2    Co    0.67778   0.91394   0.25723   0.01267  Uiso   1.00
H1     H     0.22530   0.12640   0.61160   0.01267  Uiso   1.00
H2     H     0.30220   0.23620   0.54960   0.01267  Uiso   1.00
H3     H     0.59680   0.35980   0.70300   0.01267  Uiso   1.00
H4     H     0.67620   0.36510   0.80740   0.01267  Uiso   1.00
H5     H     0.68460   0.18170   0.93370   0.01267  Uiso   1.00
H6     H     0.50220   0.07470   0.86970   0.01267  Uiso   1.00
H7     H     0.31670   0.84780   0.77350   0.01267  Uiso   1.00
H8     H     0.24030   0.77250   0.84200   0.01267  Uiso   1.00
H9     H     0.14820   0.06200   0.91950   0.01267  Uiso   1.00
H10    H     0.15810   0.24200   0.91790   0.01267  Uiso   1.00
H11    H     0.19860   0.45750   0.81300   0.01267  Uiso   1.00
H12    H     0.27070   0.32560   0.74970   0.01267  Uiso   1.00
H13    H     0.05330   0.13040   0.71960   0.01267  Uiso   1.00
H14    H     0.86230   0.04010   0.65160   0.01267  Uiso   1.00
H15    H     0.04200   0.78530   0.58720   0.01267  Uiso   1.00
H16    H     0.23000   0.74670   0.58200   0.01267  Uiso   1.00
H17    H     0.59830   0.83400   0.66550   0.01267  Uiso   1.00
H18    H     0.56000   0.98430   0.73240   0.01267  Uiso   1.00
H19    H     0.25710   0.32540   0.31800   0.01267  Uiso   1.00
H20    H     0.12600   0.31750   0.33270   0.01267  Uiso   1.00
H21    H     0.16100   0.60160   0.39910   0.01267  Uiso   1.00
H22    H     0.06890   0.48980   0.38230   0.01267  Uiso   1.00
H23    H     0.11790   0.38640   0.51630   0.01267  Uiso   1.00
H24    H     0.22610   0.46760   0.56890   0.01267  Uiso   1.00
H25    H     0.94860   0.64410   0.81940   0.01267  Uiso   1.00
H26    H     0.83390   0.55660   0.81480   0.01267  Uiso   1.00
H27    H     0.74340   0.72380   0.96860   0.01267  Uiso   1.00
H28    H     0.69420   0.61050   0.91780   0.01267  Uiso   1.00
H29    H     0.01800   0.80060   0.06510   0.01267  Uiso   1.00
H30    H     0.01700   0.86190   0.02260   0.01267  Uiso   1.00
H31    H     0.77470   0.87360   0.38840   0.01267  Uiso   1.00
H32    H     0.69780   0.76380   0.45040   0.01267  Uiso   1.00
H33    H     0.40320   0.64020   0.29700   0.01267  Uiso   1.00
H34    H     0.32380   0.63490   0.19260   0.01267  Uiso   1.00
H35    H     0.31540   0.81830   0.06630   0.01267  Uiso   1.00
H36    H     0.49780   0.92530   0.13030   0.01267  Uiso   1.00
H37    H     0.68330   0.15220   0.22650   0.01267  Uiso   1.00
H38    H     0.75970   0.22750   0.15800   0.01267  Uiso   1.00
H39    H     0.85180   0.93800   0.08050   0.01267  Uiso   1.00
H40    H     0.84190   0.75800   0.08210   0.01267  Uiso   1.00
H41    H     0.80140   0.54250   0.18700   0.01267  Uiso   1.00
H42    H     0.72930   0.67440   0.25030   0.01267  Uiso   1.00
H43    H     0.94670   0.86960   0.28040   0.01267  Uiso   1.00
H44    H     0.13770   0.95990   0.34840   0.01267  Uiso   1.00
H45    H     0.95800   0.21470   0.41280   0.01267  Uiso   1.00
H46    H     0.77000   0.25330   0.41800   0.01267  Uiso   1.00
H47    H     0.40170   0.16600   0.33450   0.01267  Uiso   1.00
H48    H     0.44000   0.01570   0.26760   0.01267  Uiso   1.00
H49    H     0.74290   0.67460   0.68200   0.01267  Uiso   1.00
H50    H     0.87400   0.68250   0.66730   0.01267  Uiso   1.00
H51    H     0.83900   0.39840   0.60090   0.01267  Uiso   1.00
H52    H     0.93110   0.51020   0.61770   0.01267  Uiso   1.00
H53    H     0.88210   0.61360   0.48370   0.01267  Uiso   1.00
H54    H     0.77390   0.53240   0.43110   0.01267  Uiso   1.00
H55    H     0.05140   0.35590   0.18060   0.01267  Uiso   1.00
H56    H     0.16610   0.44340   0.18520   0.01267  Uiso   1.00
H57    H     0.25660   0.27620   0.03140   0.01267  Uiso   1.00
H58    H     0.30580   0.38950   0.08220   0.01267  Uiso   1.00
H59    H     0.98200   0.19940   0.93490   0.01267  Uiso   1.00
H60    H     0.98300   0.13810   0.97740   0.01267  Uiso   1.00
C1     C     0.30120   0.17280   0.62880   0.01267  Uiso   1.00
C2     C     0.34590   0.24110   0.59130   0.01267  Uiso   1.00
C3     C     0.45430   0.31300   0.61860   0.01267  Uiso   1.00
C4     C     0.52270   0.31160   0.68320   0.01267  Uiso   1.00
C5     C     0.47780   0.24030   0.71380   0.01267  Uiso   1.00
C6     C     0.53560   0.23160   0.77870   0.01267  Uiso   1.00
C7     C     0.64170   0.30600   0.82060   0.01267  Uiso   1.00
C8     C     0.69500   0.29050   0.88230   0.01267  Uiso   1.00
C9     C     0.64630   0.20020   0.89630   0.01267  Uiso   1.00
C10    C     0.53860   0.13220   0.85590   0.01267  Uiso   1.00
C11    C     0.50630   0.39030   0.58420   0.01267  Uiso   1.00
C12    C     0.80540   0.36880   0.92580   0.01267  Uiso   1.00
C13    C     0.28270   0.89130   0.80260   0.01267  Uiso   1.00
C14    C     0.23830   0.84740   0.84330   0.01267  Uiso   1.00
C15    C     0.18750   0.91070   0.88900   0.01267  Uiso   1.00
C16    C     0.18160   0.01880   0.88990   0.01267  Uiso   1.00
C17    C     0.22640   0.06470   0.84560   0.01267  Uiso   1.00
C18    C     0.22950   0.18220   0.84400   0.01267  Uiso   1.00
C19    C     0.18400   0.26050   0.88410   0.01267  Uiso   1.00
C20    C     0.17750   0.36500   0.87370   0.01267  Uiso   1.00
C21    C     0.20660   0.38890   0.82260   0.01267  Uiso   1.00
C22    C     0.24950   0.30660   0.78460   0.01267  Uiso   1.00
C23    C     0.13420   0.85840   0.93200   0.01267  Uiso   1.00
C24    C     0.12150   0.43980   0.91570   0.01267  Uiso   1.00
C25    C     0.04950   0.06250   0.69170   0.01267  Uiso   1.00
C26    C     0.93370   0.00690   0.65340   0.01267  Uiso   1.00
C27    C     0.92960   0.90230   0.61880   0.01267  Uiso   1.00
C28    C     0.04420   0.85410   0.61390   0.01267  Uiso   1.00
C29    C     0.15260   0.91680   0.65080   0.01267  Uiso   1.00
C30    C     0.27510   0.88520   0.64990   0.01267  Uiso   1.00
C31    C     0.29630   0.79550   0.61110   0.01267  Uiso   1.00
C32    C     0.42220   0.77490   0.61450   0.01267  Uiso   1.00
C33    C     0.51670   0.84770   0.66140   0.01267  Uiso   1.00
C34    C     0.49490   0.93770   0.70120   0.01267  Uiso   1.00
C35    C     0.80650   0.82920   0.58270   0.01267  Uiso   1.00
C36    C     0.45530   0.67770   0.57230   0.01267  Uiso   1.00
C37    C     0.69880   0.82720   0.37120   0.01267  Uiso   1.00
C38    C     0.65410   0.75890   0.40870   0.01267  Uiso   1.00
C39    C     0.54570   0.68700   0.38140   0.01267  Uiso   1.00
C40    C     0.47730   0.68840   0.31680   0.01267  Uiso   1.00
C41    C     0.52220   0.75970   0.28620   0.01267  Uiso   1.00
C42    C     0.46440   0.76840   0.22130   0.01267  Uiso   1.00
C43    C     0.35830   0.69400   0.17940   0.01267  Uiso   1.00
C44    C     0.30500   0.70950   0.11770   0.01267  Uiso   1.00
C45    C     0.35370   0.79980   0.10370   0.01267  Uiso   1.00
C46    C     0.46140   0.86780   0.14410   0.01267  Uiso   1.00
C47    C     0.49370   0.60970   0.41580   0.01267  Uiso   1.00
C48    C     0.19460   0.63120   0.07420   0.01267  Uiso   1.00
C49    C     0.71730   0.10870   0.19740   0.01267  Uiso   1.00
C50    C     0.76170   0.15260   0.15670   0.01267  Uiso   1.00
C51    C     0.81250   0.08930   0.11100   0.01267  Uiso   1.00
C52    C     0.81840   0.98120   0.11010   0.01267  Uiso   1.00
C53    C     0.77360   0.93530   0.15440   0.01267  Uiso   1.00
C54    C     0.77050   0.81780   0.15600   0.01267  Uiso   1.00
C55    C     0.81600   0.73950   0.11590   0.01267  Uiso   1.00
C56    C     0.82250   0.63500   0.12630   0.01267  Uiso   1.00
C57    C     0.79340   0.61110   0.17740   0.01267  Uiso   1.00
C58    C     0.75050   0.69340   0.21540   0.01267  Uiso   1.00
C59    C     0.86580   0.14160   0.06800   0.01267  Uiso   1.00
C60    C     0.87850   0.56020   0.08430   0.01267  Uiso   1.00
C61    C     0.95050   0.93750   0.30830   0.01267  Uiso   1.00
C62    C     0.06630   0.99310   0.34660   0.01267  Uiso   1.00
C63    C     0.07040   0.09770   0.38120   0.01267  Uiso   1.00
C64    C     0.95580   0.14590   0.38610   0.01267  Uiso   1.00
C65    C     0.84740   0.08320   0.34920   0.01267  Uiso   1.00
C66    C     0.72490   0.11480   0.35010   0.01267  Uiso   1.00
C67    C     0.70370   0.20450   0.38890   0.01267  Uiso   1.00
C68    C     0.57780   0.22510   0.38550   0.01267  Uiso   1.00
C69    C     0.48330   0.15230   0.33860   0.01267  Uiso   1.00
C70    C     0.50510   0.06230   0.29880   0.01267  Uiso   1.00
C71    C     0.19350   0.17080   0.41730   0.01267  Uiso   1.00
C72    C     0.54470   0.32230   0.42770   0.01267  Uiso   1.00
N1     N     0.36860   0.17410   0.69070   0.01267  Uiso   1.00
N2     N     0.48530   0.14640   0.79750   0.01267  Uiso   1.00
N3     N     0.27880   0.00650   0.80298   0.01267  Uiso   1.00
N4     N     0.26440   0.20760   0.79038   0.01267  Uiso   1.00
N5     N     0.15550   0.02090   0.68950   0.01267  Uiso   1.00
N6     N     0.37470   0.95840   0.69445   0.01267  Uiso   1.00
N7     N     0.63140   0.82590   0.30930   0.01267  Uiso   1.00
N8     N     0.51470   0.85360   0.20250   0.01267  Uiso   1.00
N9     N     0.72120   0.99350   0.19702   0.01267  Uiso   1.00
N10    N     0.73560   0.79240   0.20962   0.01267  Uiso   1.00
N11    N     0.84450   0.97910   0.31050   0.01267  Uiso   1.00
N12    N     0.62530   0.04160   0.30555   0.01267  Uiso   1.00
O1     O     0.43000   0.40960   0.53765   0.01267  Uiso   1.00
O2     O     0.62100   0.43250   0.60075   0.01267  Uiso   1.00
O3     O     0.84010   0.45110   0.90913   0.01267  Uiso   1.00
O4     O     0.85600   0.34070   0.97199   0.01267  Uiso   1.00
O5     O     0.09160   0.75590   0.91862   0.01267  Uiso   1.00
O6     O     0.12890   0.92360   0.98305   0.01267  Uiso   1.00
O7     O     0.09550   0.41590   0.96286   0.01267  Uiso   1.00
O8     O     0.09150   0.52780   0.89665   0.01267  Uiso   1.00
O9     O     0.71340   0.87430   0.57189   0.01267  Uiso   1.00
O10    O     0.80460   0.72720   0.56161   0.01267  Uiso   1.00
O11    O     0.36350   0.62260   0.52904   0.01267  Uiso   1.00
O12    O     0.55500   0.64640   0.58699   0.01267  Uiso   1.00
O13    O     0.20120   0.36650   0.33717   0.01267  Uiso   1.00
O14    O     0.13190   0.54120   0.41550   0.01267  Uiso   1.00
O15    O     0.17330   0.45540   0.52643   0.01267  Uiso   1.00
O16    O     0.88010   0.62870   0.83721   0.01267  Uiso   1.00
O17    O     0.75370   0.67730   0.93040   0.01267  Uiso   1.00
O18    O     0.97880   0.81010   0.02524   0.01267  Uiso   1.00
O19    O     0.57000   0.59040   0.46235   0.01267  Uiso   1.00
O20    O     0.37900   0.56750   0.39925   0.01267  Uiso   1.00
O21    O     0.15990   0.54890   0.09087   0.01267  Uiso   1.00
O22    O     0.14400   0.65930   0.02801   0.01267  Uiso   1.00
O23    O     0.90840   0.24410   0.08138   0.01267  Uiso   1.00
O24    O     0.87110   0.07640   0.01695   0.01267  Uiso   1.00
O25    O     0.90450   0.58410   0.03714   0.01267  Uiso   1.00
O26    O     0.90850   0.47220   0.10335   0.01267  Uiso   1.00
O27    O     0.28660   0.12570   0.42811   0.01267  Uiso   1.00
O28    O     0.19540   0.27280   0.43839   0.01267  Uiso   1.00
O29    O     0.63650   0.37740   0.47096   0.01267  Uiso   1.00
O30    O     0.44500   0.35360   0.41301   0.01267  Uiso   1.00
O31    O     0.79880   0.63350   0.66283   0.01267  Uiso   1.00
O32    O     0.86810   0.45880   0.58450   0.01267  Uiso   1.00
O33    O     0.82670   0.54460   0.47357   0.01267  Uiso   1.00
O34    O     0.11990   0.37130   0.16279   0.01267  Uiso   1.00
O35    O     0.24630   0.32270   0.06960   0.01267  Uiso   1.00
O36    O     0.02120   0.18990   0.97476   0.01267  Uiso   1.00
N13    N     0.86230   0.03610   0.79970   0.01267  Uiso   1.00
O37    O     0.90170   0.94780   0.79690   0.01267  Uiso   1.00
O38    O     0.90930   0.11700   0.84430   0.01267  Uiso   1.00
O39    O     0.77550   0.04650   0.75853   0.01267  Uiso   1.00
N14    N     0.12430   0.60560   0.70890   0.01267  Uiso   1.00
O40    O     0.03840   0.62350   0.73492   0.01267  Uiso   1.00
O41    O     0.21230   0.57090   0.73857   0.01267  Uiso   1.00
O42    O     0.12510   0.62930   0.65840   0.01267  Uiso   1.00
N15    N     0.21170   0.84860   0.46140   0.01267  Uiso   1.00
O43    O     0.31640   0.89710   0.47750   0.01267  Uiso   1.00
O44    O     0.18960   0.74810   0.43794   0.01267  Uiso   1.00
O45    O     0.12410   0.89890   0.46877   0.01267  Uiso   1.00
N16    N     0.13770   0.96390   0.20030   0.01267  Uiso   1.00
O46    O     0.09830   0.05220   0.20310   0.01267  Uiso   1.00
O47    O     0.09070   0.88300   0.15570   0.01267  Uiso   1.00
O48    O     0.22450   0.95350   0.24147   0.01267  Uiso   1.00
N17    N     0.87570   0.39440   0.29110   0.01267  Uiso   1.00
O49    O     0.96160   0.37650   0.26508   0.01267  Uiso   1.00
O50    O     0.78770   0.42910   0.26143   0.01267  Uiso   1.00
O51    O     0.87490   0.37070   0.34160   0.01267  Uiso   1.00
N18    N     0.78830   0.15140   0.53860   0.01267  Uiso   1.00
O52    O     0.68360   0.10290   0.52250   0.01267  Uiso   1.00
O53    O     0.81040   0.25190   0.56206   0.01267  Uiso   1.00
O54    O     0.87590   0.10110   0.53123   0.01267  Uiso   1.00
