data_TANBAN_charged
_audit_creation_date              2014-07-02
_audit_creation_method            'Materials Studio'
_symmetry_space_group_name_H-M    'P1'
_symmetry_Int_Tables_number       1
_symmetry_cell_setting            triclinic
loop_
_symmetry_equiv_pos_as_xyz
  x,y,z
_cell_length_a                    11.0396
_cell_length_b                    12.5110
_cell_length_c                    22.4980
_cell_angle_alpha                 101.4920
_cell_angle_beta                  102.4160
_cell_angle_gamma                 95.9750
loop_
_atom_site_label
_atom_site_type_symbol
_atom_site_fract_x
_atom_site_fract_y
_atom_site_fract_z
_atom_site_U_iso_or_equiv
_atom_site_adp_type
_atom_site_occupancy
La1    La    0.30098   0.44627   0.45191   0.01267  Uiso   1.00
La2    La    0.95974   0.63288   0.94983   0.01267  Uiso   1.00
La3    La    0.69902   0.55373   0.54809   0.01267  Uiso   1.00
La4    La    0.04026   0.36712   0.05017   0.01267  Uiso   1.00
Co1    Co    0.32200   0.08667   0.74261   0.01267  Uiso   1.00
Co2    Co    0.67800   0.91333   0.25739   0.01267  Uiso   1.00
H1     H     0.22600   0.12610   0.61220   0.01267  Uiso   1.00
H2     H     0.30780   0.23390   0.54910   0.01267  Uiso   1.00
H3     H     0.59640   0.35910   0.70280   0.01267  Uiso   1.00
H4     H     0.67710   0.36760   0.80790   0.01267  Uiso   1.00
H5     H     0.68090   0.18390   0.93330   0.01267  Uiso   1.00
H6     H     0.49820   0.07300   0.86850   0.01267  Uiso   1.00
H7     H     0.31840   0.84960   0.77400   0.01267  Uiso   1.00
H8     H     0.23830   0.77230   0.84140   0.01267  Uiso   1.00
H9     H     0.15010   0.06370   0.92120   0.01267  Uiso   1.00
H10    H     0.16160   0.24620   0.91960   0.01267  Uiso   1.00
H11    H     0.19760   0.45640   0.81300   0.01267  Uiso   1.00
H12    H     0.26520   0.32500   0.74860   0.01267  Uiso   1.00
H13    H     0.05150   0.13010   0.71790   0.01267  Uiso   1.00
H14    H     0.86140   0.04070   0.65180   0.01267  Uiso   1.00
H15    H     0.04210   0.78740   0.58770   0.01267  Uiso   1.00
H16    H     0.23100   0.74600   0.58350   0.01267  Uiso   1.00
H17    H     0.59890   0.83110   0.66830   0.01267  Uiso   1.00
H18    H     0.56040   0.98340   0.72990   0.01267  Uiso   1.00
H19    H     0.25750   0.32490   0.31840   0.01267  Uiso   1.00
H20    H     0.12640   0.31710   0.33310   0.01267  Uiso   1.00
H21    H     0.16120   0.60080   0.39900   0.01267  Uiso   1.00
H22    H     0.06920   0.48900   0.38220   0.01267  Uiso   1.00
H23    H     0.11920   0.38470   0.51630   0.01267  Uiso   1.00
H24    H     0.22740   0.46590   0.56890   0.01267  Uiso   1.00
H25    H     0.94900   0.64460   0.81930   0.01267  Uiso   1.00
H26    H     0.83430   0.55710   0.81470   0.01267  Uiso   1.00
H27    H     0.74410   0.72300   0.96900   0.01267  Uiso   1.00
H28    H     0.69490   0.60970   0.91820   0.01267  Uiso   1.00
H29    H     0.01800   0.80100   0.06580   0.01267  Uiso   1.00
H30    H     0.01710   0.86230   0.02320   0.01267  Uiso   1.00
H31    H     0.77400   0.87390   0.38780   0.01267  Uiso   1.00
H32    H     0.69220   0.76610   0.45090   0.01267  Uiso   1.00
H33    H     0.40360   0.64090   0.29720   0.01267  Uiso   1.00
H34    H     0.32290   0.63240   0.19210   0.01267  Uiso   1.00
H35    H     0.31910   0.81610   0.06670   0.01267  Uiso   1.00
H36    H     0.50180   0.92700   0.13150   0.01267  Uiso   1.00
H37    H     0.68160   0.15040   0.22600   0.01267  Uiso   1.00
H38    H     0.76170   0.22770   0.15860   0.01267  Uiso   1.00
H39    H     0.84990   0.93630   0.07880   0.01267  Uiso   1.00
H40    H     0.83840   0.75380   0.08040   0.01267  Uiso   1.00
H41    H     0.80240   0.54360   0.18700   0.01267  Uiso   1.00
H42    H     0.73480   0.67500   0.25140   0.01267  Uiso   1.00
H43    H     0.94850   0.86990   0.28210   0.01267  Uiso   1.00
H44    H     0.13860   0.95930   0.34820   0.01267  Uiso   1.00
H45    H     0.95790   0.21260   0.41230   0.01267  Uiso   1.00
H46    H     0.76900   0.25400   0.41650   0.01267  Uiso   1.00
H47    H     0.40110   0.16890   0.33170   0.01267  Uiso   1.00
H48    H     0.43960   0.01660   0.27010   0.01267  Uiso   1.00
H49    H     0.74250   0.67510   0.68160   0.01267  Uiso   1.00
H50    H     0.87360   0.68290   0.66690   0.01267  Uiso   1.00
H51    H     0.83880   0.39920   0.60100   0.01267  Uiso   1.00
H52    H     0.93080   0.51100   0.61780   0.01267  Uiso   1.00
H53    H     0.88080   0.61530   0.48370   0.01267  Uiso   1.00
H54    H     0.77260   0.53410   0.43110   0.01267  Uiso   1.00
H55    H     0.05100   0.35540   0.18070   0.01267  Uiso   1.00
H56    H     0.16570   0.44290   0.18530   0.01267  Uiso   1.00
H57    H     0.25590   0.27700   0.03100   0.01267  Uiso   1.00
H58    H     0.30510   0.39030   0.08180   0.01267  Uiso   1.00
H59    H     0.98200   0.19900   0.93420   0.01267  Uiso   1.00
H60    H     0.98290   0.13770   0.97680   0.01267  Uiso   1.00
C1     C     0.30250   0.17240   0.62900   0.01267  Uiso   1.00
C2     C     0.34910   0.24020   0.59060   0.01267  Uiso   1.00
C3     C     0.45510   0.31240   0.61810   0.01267  Uiso   1.00
C4     C     0.52220   0.31080   0.68360   0.01267  Uiso   1.00
C5     C     0.47740   0.24130   0.71500   0.01267  Uiso   1.00
C6     C     0.53470   0.23340   0.77860   0.01267  Uiso   1.00
C7     C     0.64110   0.30780   0.82030   0.01267  Uiso   1.00
C8     C     0.69210   0.28880   0.88200   0.01267  Uiso   1.00
C9     C     0.64400   0.20150   0.89600   0.01267  Uiso   1.00
C10    C     0.53550   0.13140   0.85540   0.01267  Uiso   1.00
C11    C     0.50700   0.39190   0.58470   0.01267  Uiso   1.00
C12    C     0.80470   0.36870   0.92520   0.01267  Uiso   1.00
C13    C     0.28330   0.89220   0.80260   0.01267  Uiso   1.00
C14    C     0.23790   0.84720   0.84300   0.01267  Uiso   1.00
C15    C     0.18840   0.91130   0.88910   0.01267  Uiso   1.00
C16    C     0.18250   0.02090   0.89140   0.01267  Uiso   1.00
C17    C     0.22840   0.06510   0.84600   0.01267  Uiso   1.00
C18    C     0.22990   0.18240   0.84440   0.01267  Uiso   1.00
C19    C     0.18550   0.26360   0.88510   0.01267  Uiso   1.00
C20    C     0.17780   0.36510   0.87430   0.01267  Uiso   1.00
C21    C     0.20580   0.38820   0.82260   0.01267  Uiso   1.00
C22    C     0.24730   0.30650   0.78420   0.01267  Uiso   1.00
C23    C     0.13490   0.85990   0.93270   0.01267  Uiso   1.00
C24    C     0.12000   0.44060   0.91520   0.01267  Uiso   1.00
C25    C     0.04840   0.06270   0.69080   0.01267  Uiso   1.00
C26    C     0.93320   0.00760   0.65300   0.01267  Uiso   1.00
C27    C     0.92760   0.90360   0.61750   0.01267  Uiso   1.00
C28    C     0.04340   0.85540   0.61380   0.01267  Uiso   1.00
C29    C     0.15240   0.91740   0.65140   0.01267  Uiso   1.00
C30    C     0.27520   0.88660   0.65060   0.01267  Uiso   1.00
C31    C     0.29730   0.79490   0.61170   0.01267  Uiso   1.00
C32    C     0.42210   0.77610   0.61520   0.01267  Uiso   1.00
C33    C     0.51720   0.84690   0.66270   0.01267  Uiso   1.00
C34    C     0.49450   0.93670   0.70010   0.01267  Uiso   1.00
C35    C     0.80630   0.82990   0.58190   0.01267  Uiso   1.00
C36    C     0.45810   0.67810   0.57420   0.01267  Uiso   1.00
C37    C     0.69750   0.82760   0.37100   0.01267  Uiso   1.00
C38    C     0.65090   0.75980   0.40940   0.01267  Uiso   1.00
C39    C     0.54490   0.68760   0.38190   0.01267  Uiso   1.00
C40    C     0.47780   0.68920   0.31640   0.01267  Uiso   1.00
C41    C     0.52260   0.75870   0.28500   0.01267  Uiso   1.00
C42    C     0.46530   0.76660   0.22140   0.01267  Uiso   1.00
C43    C     0.35890   0.69220   0.17970   0.01267  Uiso   1.00
C44    C     0.30790   0.71120   0.11800   0.01267  Uiso   1.00
C45    C     0.35600   0.79850   0.10400   0.01267  Uiso   1.00
C46    C     0.46450   0.86860   0.14460   0.01267  Uiso   1.00
C47    C     0.49300   0.60810   0.41530   0.01267  Uiso   1.00
C48    C     0.19530   0.63130   0.07480   0.01267  Uiso   1.00
C49    C     0.71670   0.10780   0.19740   0.01267  Uiso   1.00
C50    C     0.76210   0.15280   0.15700   0.01267  Uiso   1.00
C51    C     0.81160   0.08870   0.11090   0.01267  Uiso   1.00
C52    C     0.81750   0.97910   0.10860   0.01267  Uiso   1.00
C53    C     0.77160   0.93490   0.15400   0.01267  Uiso   1.00
C54    C     0.77010   0.81760   0.15560   0.01267  Uiso   1.00
C55    C     0.81450   0.73640   0.11490   0.01267  Uiso   1.00
C56    C     0.82220   0.63490   0.12570   0.01267  Uiso   1.00
C57    C     0.79420   0.61180   0.17740   0.01267  Uiso   1.00
C58    C     0.75270   0.69350   0.21580   0.01267  Uiso   1.00
C59    C     0.86510   0.14010   0.06730   0.01267  Uiso   1.00
C60    C     0.88000   0.55940   0.08480   0.01267  Uiso   1.00
C61    C     0.95160   0.93730   0.30920   0.01267  Uiso   1.00
C62    C     0.06680   0.99240   0.34700   0.01267  Uiso   1.00
C63    C     0.07240   0.09640   0.38250   0.01267  Uiso   1.00
C64    C     0.95660   0.14460   0.38620   0.01267  Uiso   1.00
C65    C     0.84760   0.08260   0.34860   0.01267  Uiso   1.00
C66    C     0.72480   0.11340   0.34940   0.01267  Uiso   1.00
C67    C     0.70270   0.20510   0.38830   0.01267  Uiso   1.00
C68    C     0.57790   0.22390   0.38480   0.01267  Uiso   1.00
C69    C     0.48280   0.15310   0.33730   0.01267  Uiso   1.00
C70    C     0.50550   0.06330   0.29990   0.01267  Uiso   1.00
C71    C     0.19370   0.17010   0.41810   0.01267  Uiso   1.00
C72    C     0.54190   0.32190   0.42580   0.01267  Uiso   1.00
N1     N     0.36690   0.17350   0.68980   0.01267  Uiso   1.00
N2     N     0.48470   0.14830   0.79690   0.01267  Uiso   1.00
N3     N     0.27910   0.00630   0.80238   0.01267  Uiso   1.00
N4     N     0.26480   0.20830   0.79030   0.01267  Uiso   1.00
N5     N     0.15570   0.02110   0.68910   0.01267  Uiso   1.00
N6     N     0.37520   0.95910   0.69449   0.01267  Uiso   1.00
N7     N     0.63310   0.82650   0.31020   0.01267  Uiso   1.00
N8     N     0.51530   0.85170   0.20310   0.01267  Uiso   1.00
N9     N     0.72090   0.99370   0.19762   0.01267  Uiso   1.00
N10    N     0.73520   0.79170   0.20970   0.01267  Uiso   1.00
N11    N     0.84430   0.97890   0.31090   0.01267  Uiso   1.00
N12    N     0.62480   0.04090   0.30551   0.01267  Uiso   1.00
O1     O     0.43220   0.41030   0.53775   0.01267  Uiso   1.00
O2     O     0.62290   0.43190   0.60090   0.01267  Uiso   1.00
O3     O     0.83860   0.45170   0.90884   0.01267  Uiso   1.00
O4     O     0.85500   0.34120   0.97200   0.01267  Uiso   1.00
O5     O     0.09270   0.75510   0.91825   0.01267  Uiso   1.00
O6     O     0.12920   0.92400   0.98311   0.01267  Uiso   1.00
O7     O     0.09420   0.41650   0.96263   0.01267  Uiso   1.00
O8     O     0.09220   0.52920   0.89667   0.01267  Uiso   1.00
O9     O     0.71280   0.87490   0.57180   0.01267  Uiso   1.00
O10    O     0.80530   0.72770   0.56146   0.01267  Uiso   1.00
O11    O     0.36390   0.62260   0.52992   0.01267  Uiso   1.00
O12    O     0.55600   0.64750   0.58706   0.01267  Uiso   1.00
O13    O     0.20160   0.36600   0.33751   0.01267  Uiso   1.00
O14    O     0.13210   0.54050   0.41540   0.01267  Uiso   1.00
O15    O     0.17460   0.45370   0.52642   0.01267  Uiso   1.00
O16    O     0.88050   0.62910   0.83710   0.01267  Uiso   1.00
O17    O     0.75440   0.67650   0.93070   0.01267  Uiso   1.00
O18    O     0.97890   0.81050   0.02589   0.01267  Uiso   1.00
O19    O     0.56780   0.58970   0.46225   0.01267  Uiso   1.00
O20    O     0.37710   0.56810   0.39910   0.01267  Uiso   1.00
O21    O     0.16140   0.54830   0.09116   0.01267  Uiso   1.00
O22    O     0.14500   0.65880   0.02800   0.01267  Uiso   1.00
O23    O     0.90730   0.24490   0.08175   0.01267  Uiso   1.00
O24    O     0.87080   0.07600   0.01689   0.01267  Uiso   1.00
O25    O     0.90580   0.58350   0.03737   0.01267  Uiso   1.00
O26    O     0.90780   0.47080   0.10333   0.01267  Uiso   1.00
O27    O     0.28720   0.12510   0.42820   0.01267  Uiso   1.00
O28    O     0.19470   0.27230   0.43854   0.01267  Uiso   1.00
O29    O     0.63610   0.37740   0.47008   0.01267  Uiso   1.00
O30    O     0.44400   0.35250   0.41294   0.01267  Uiso   1.00
O31    O     0.79840   0.63400   0.66249   0.01267  Uiso   1.00
O32    O     0.86790   0.45950   0.58460   0.01267  Uiso   1.00
O33    O     0.82540   0.54630   0.47358   0.01267  Uiso   1.00
O34    O     0.11950   0.37090   0.16290   0.01267  Uiso   1.00
O35    O     0.24560   0.32350   0.06930   0.01267  Uiso   1.00
O36    O     0.02110   0.18950   0.97411   0.01267  Uiso   1.00
N13    N     0.86150   0.03460   0.79910   0.01267  Uiso   1.00
O37    O     0.90190   0.94720   0.79700   0.01267  Uiso   1.00
O38    O     0.90880   0.11710   0.84410   0.01267  Uiso   1.00
O39    O     0.77520   0.04540   0.75834   0.01267  Uiso   1.00
N14    N     0.12350   0.60530   0.70880   0.01267  Uiso   1.00
O40    O     0.03850   0.62280   0.73512   0.01267  Uiso   1.00
O41    O     0.21190   0.57130   0.73845   0.01267  Uiso   1.00
O42    O     0.12540   0.62870   0.65860   0.01267  Uiso   1.00
N15    N     0.21220   0.84820   0.46160   0.01267  Uiso   1.00
O43    O     0.31580   0.89610   0.47720   0.01267  Uiso   1.00
O44    O     0.18970   0.74790   0.43747   0.01267  Uiso   1.00
O45    O     0.12330   0.89880   0.46841   0.01267  Uiso   1.00
N16    N     0.13850   0.96540   0.20090   0.01267  Uiso   1.00
O46    O     0.09810   0.05280   0.20300   0.01267  Uiso   1.00
O47    O     0.09120   0.88290   0.15590   0.01267  Uiso   1.00
O48    O     0.22480   0.95460   0.24166   0.01267  Uiso   1.00
N17    N     0.87650   0.39470   0.29120   0.01267  Uiso   1.00
O49    O     0.96150   0.37720   0.26488   0.01267  Uiso   1.00
O50    O     0.78810   0.42870   0.26155   0.01267  Uiso   1.00
O51    O     0.87460   0.37130   0.34140   0.01267  Uiso   1.00
N18    N     0.78780   0.15180   0.53840   0.01267  Uiso   1.00
O52    O     0.68420   0.10390   0.52280   0.01267  Uiso   1.00
O53    O     0.81030   0.25210   0.56253   0.01267  Uiso   1.00
O54    O     0.87670   0.10120   0.53159   0.01267  Uiso   1.00
