data_TANBER_charged
_audit_creation_date              2014-07-02
_audit_creation_method            'Materials Studio'
_symmetry_space_group_name_H-M    'P1'
_symmetry_Int_Tables_number       1
_symmetry_cell_setting            triclinic
loop_
_symmetry_equiv_pos_as_xyz
  x,y,z
_cell_length_a                    11.2397
_cell_length_b                    12.4964
_cell_length_c                    22.3020
_cell_angle_alpha                 102.1140
_cell_angle_beta                  103.4100
_cell_angle_gamma                 95.5970
loop_
_atom_site_label
_atom_site_type_symbol
_atom_site_fract_x
_atom_site_fract_y
_atom_site_fract_z
_atom_site_U_iso_or_equiv
_atom_site_adp_type
_atom_site_occupancy
Sm1    Sm    0.30133   0.44659   0.45122   0.01267  Uiso   1.00
Sm2    Sm    0.95971   0.63153   0.94941   0.01267  Uiso   1.00
Sm3    Sm    0.69867   0.55341   0.54878   0.01267  Uiso   1.00
Sm4    Sm    0.04029   0.36847   0.05059   0.01267  Uiso   1.00
Co1    Co    0.32198   0.08632   0.74286   0.01267  Uiso   1.00
Co2    Co    0.67802   0.91368   0.25714   0.01267  Uiso   1.00
H1     H     0.22440   0.12830   0.61150   0.01267  Uiso   1.00
H2     H     0.30560   0.23410   0.54980   0.01267  Uiso   1.00
H3     H     0.59450   0.35880   0.70230   0.01267  Uiso   1.00
H4     H     0.67320   0.36660   0.80800   0.01267  Uiso   1.00
H5     H     0.68160   0.18140   0.93250   0.01267  Uiso   1.00
H6     H     0.50180   0.07400   0.86970   0.01267  Uiso   1.00
H7     H     0.31880   0.84910   0.77460   0.01267  Uiso   1.00
H8     H     0.23860   0.77260   0.84080   0.01267  Uiso   1.00
H9     H     0.15110   0.06300   0.92050   0.01267  Uiso   1.00
H10    H     0.15740   0.24170   0.91860   0.01267  Uiso   1.00
H11    H     0.19780   0.45800   0.81320   0.01267  Uiso   1.00
H12    H     0.26780   0.32530   0.74960   0.01267  Uiso   1.00
H13    H     0.05110   0.13100   0.71960   0.01267  Uiso   1.00
H14    H     0.86330   0.04010   0.65130   0.01267  Uiso   1.00
H15    H     0.04180   0.78580   0.58720   0.01267  Uiso   1.00
H16    H     0.23240   0.75020   0.58110   0.01267  Uiso   1.00
H17    H     0.59820   0.83230   0.66550   0.01267  Uiso   1.00
H18    H     0.56060   0.98460   0.73140   0.01267  Uiso   1.00
H19    H     0.25770   0.32550   0.31840   0.01267  Uiso   1.00
H20    H     0.12670   0.31760   0.33310   0.01267  Uiso   1.00
H21    H     0.16100   0.60030   0.39820   0.01267  Uiso   1.00
H22    H     0.06890   0.48850   0.38140   0.01267  Uiso   1.00
H23    H     0.11800   0.38510   0.51620   0.01267  Uiso   1.00
H24    H     0.22610   0.46630   0.56880   0.01267  Uiso   1.00
H25    H     0.94900   0.64360   0.81930   0.01267  Uiso   1.00
H26    H     0.83430   0.55600   0.81470   0.01267  Uiso   1.00
H27    H     0.74380   0.72410   0.96880   0.01267  Uiso   1.00
H28    H     0.69470   0.61070   0.91800   0.01267  Uiso   1.00
H29    H     0.01860   0.80070   0.06570   0.01267  Uiso   1.00
H30    H     0.01760   0.86200   0.02310   0.01267  Uiso   1.00
H31    H     0.77560   0.87170   0.38850   0.01267  Uiso   1.00
H32    H     0.69440   0.76590   0.45020   0.01267  Uiso   1.00
H33    H     0.40550   0.64120   0.29770   0.01267  Uiso   1.00
H34    H     0.32680   0.63340   0.19200   0.01267  Uiso   1.00
H35    H     0.31840   0.81860   0.06750   0.01267  Uiso   1.00
H36    H     0.49820   0.92600   0.13030   0.01267  Uiso   1.00
H37    H     0.68120   0.15090   0.22540   0.01267  Uiso   1.00
H38    H     0.76140   0.22740   0.15920   0.01267  Uiso   1.00
H39    H     0.84890   0.93700   0.07950   0.01267  Uiso   1.00
H40    H     0.84260   0.75830   0.08140   0.01267  Uiso   1.00
H41    H     0.80220   0.54200   0.18680   0.01267  Uiso   1.00
H42    H     0.73220   0.67470   0.25040   0.01267  Uiso   1.00
H43    H     0.94890   0.86900   0.28040   0.01267  Uiso   1.00
H44    H     0.13670   0.95990   0.34870   0.01267  Uiso   1.00
H45    H     0.95820   0.21420   0.41280   0.01267  Uiso   1.00
H46    H     0.76760   0.24980   0.41890   0.01267  Uiso   1.00
H47    H     0.40180   0.16770   0.33450   0.01267  Uiso   1.00
H48    H     0.43940   0.01540   0.26860   0.01267  Uiso   1.00
H49    H     0.74230   0.67450   0.68160   0.01267  Uiso   1.00
H50    H     0.87330   0.68240   0.66690   0.01267  Uiso   1.00
H51    H     0.83900   0.39970   0.60180   0.01267  Uiso   1.00
H52    H     0.93110   0.51150   0.61860   0.01267  Uiso   1.00
H53    H     0.88200   0.61490   0.48380   0.01267  Uiso   1.00
H54    H     0.77390   0.53370   0.43120   0.01267  Uiso   1.00
H55    H     0.05100   0.35640   0.18070   0.01267  Uiso   1.00
H56    H     0.16570   0.44400   0.18530   0.01267  Uiso   1.00
H57    H     0.25620   0.27590   0.03120   0.01267  Uiso   1.00
H58    H     0.30530   0.38930   0.08200   0.01267  Uiso   1.00
H59    H     0.98140   0.19930   0.93430   0.01267  Uiso   1.00
H60    H     0.98240   0.13800   0.97690   0.01267  Uiso   1.00
C1     C     0.30100   0.17320   0.62900   0.01267  Uiso   1.00
C2     C     0.34800   0.24050   0.59180   0.01267  Uiso   1.00
C3     C     0.45350   0.31250   0.61812   0.01267  Uiso   1.00
C4     C     0.52070   0.31070   0.68260   0.01267  Uiso   1.00
C5     C     0.47740   0.24070   0.71375   0.01267  Uiso   1.00
C6     C     0.53390   0.23150   0.77861   0.01267  Uiso   1.00
C7     C     0.63970   0.30680   0.82070   0.01267  Uiso   1.00
C8     C     0.69300   0.29000   0.88150   0.01267  Uiso   1.00
C9     C     0.64330   0.19950   0.89510   0.01267  Uiso   1.00
C10    C     0.53760   0.13150   0.85600   0.01267  Uiso   1.00
C11    C     0.50500   0.39230   0.58525   0.01267  Uiso   1.00
C12    C     0.80540   0.36860   0.92490   0.01267  Uiso   1.00
C13    C     0.28320   0.89200   0.80290   0.01267  Uiso   1.00
C14    C     0.23780   0.84760   0.84284   0.01267  Uiso   1.00
C15    C     0.18750   0.91020   0.88890   0.01267  Uiso   1.00
C16    C     0.18270   0.01950   0.89040   0.01267  Uiso   1.00
C17    C     0.22670   0.06510   0.84560   0.01267  Uiso   1.00
C18    C     0.22940   0.18210   0.84380   0.01267  Uiso   1.00
C19    C     0.18360   0.26040   0.88500   0.01267  Uiso   1.00
C20    C     0.17840   0.36470   0.87450   0.01267  Uiso   1.00
C21    C     0.20620   0.38970   0.82280   0.01267  Uiso   1.00
C22    C     0.24810   0.30660   0.78475   0.01267  Uiso   1.00
C23    C     0.13320   0.85710   0.93180   0.01267  Uiso   1.00
C24    C     0.12170   0.43950   0.91560   0.01267  Uiso   1.00
C25    C     0.04780   0.06330   0.69170   0.01267  Uiso   1.00
C26    C     0.93440   0.00720   0.65310   0.01267  Uiso   1.00
C27    C     0.92910   0.90310   0.61810   0.01267  Uiso   1.00
C28    C     0.04380   0.85450   0.61378   0.01267  Uiso   1.00
C29    C     0.15300   0.91800   0.65170   0.01267  Uiso   1.00
C30    C     0.27580   0.88550   0.64977   0.01267  Uiso   1.00
C31    C     0.29830   0.79790   0.61090   0.01267  Uiso   1.00
C32    C     0.42250   0.77520   0.61408   0.01267  Uiso   1.00
C33    C     0.51740   0.84670   0.66100   0.01267  Uiso   1.00
C34    C     0.49550   0.93750   0.70070   0.01267  Uiso   1.00
C35    C     0.80740   0.82900   0.58240   0.01267  Uiso   1.00
C36    C     0.45770   0.67920   0.57200   0.01267  Uiso   1.00
C37    C     0.69900   0.82680   0.37100   0.01267  Uiso   1.00
C38    C     0.65200   0.75950   0.40820   0.01267  Uiso   1.00
C39    C     0.54650   0.68750   0.38188   0.01267  Uiso   1.00
C40    C     0.47930   0.68930   0.31740   0.01267  Uiso   1.00
C41    C     0.52260   0.75930   0.28625   0.01267  Uiso   1.00
C42    C     0.46610   0.76850   0.22139   0.01267  Uiso   1.00
C43    C     0.36030   0.69320   0.17930   0.01267  Uiso   1.00
C44    C     0.30700   0.71000   0.11850   0.01267  Uiso   1.00
C45    C     0.35670   0.80050   0.10490   0.01267  Uiso   1.00
C46    C     0.46240   0.86850   0.14400   0.01267  Uiso   1.00
C47    C     0.49500   0.60770   0.41475   0.01267  Uiso   1.00
C48    C     0.19460   0.63140   0.07510   0.01267  Uiso   1.00
C49    C     0.71680   0.10800   0.19710   0.01267  Uiso   1.00
C50    C     0.76220   0.15240   0.15716   0.01267  Uiso   1.00
C51    C     0.81250   0.08980   0.11110   0.01267  Uiso   1.00
C52    C     0.81730   0.98050   0.10960   0.01267  Uiso   1.00
C53    C     0.77330   0.93490   0.15440   0.01267  Uiso   1.00
C54    C     0.77060   0.81790   0.15620   0.01267  Uiso   1.00
C55    C     0.81640   0.73960   0.11500   0.01267  Uiso   1.00
C56    C     0.82160   0.63530   0.12550   0.01267  Uiso   1.00
C57    C     0.79380   0.61030   0.17720   0.01267  Uiso   1.00
C58    C     0.75190   0.69340   0.21525   0.01267  Uiso   1.00
C59    C     0.86680   0.14290   0.06820   0.01267  Uiso   1.00
C60    C     0.87830   0.56050   0.08440   0.01267  Uiso   1.00
C61    C     0.95220   0.93670   0.30830   0.01267  Uiso   1.00
C62    C     0.06560   0.99280   0.34690   0.01267  Uiso   1.00
C63    C     0.07090   0.09690   0.38190   0.01267  Uiso   1.00
C64    C     0.95620   0.14550   0.38622   0.01267  Uiso   1.00
C65    C     0.84700   0.08200   0.34830   0.01267  Uiso   1.00
C66    C     0.72420   0.11450   0.35023   0.01267  Uiso   1.00
C67    C     0.70170   0.20210   0.38910   0.01267  Uiso   1.00
C68    C     0.57750   0.22480   0.38592   0.01267  Uiso   1.00
C69    C     0.48260   0.15330   0.33900   0.01267  Uiso   1.00
C70    C     0.50450   0.06250   0.29930   0.01267  Uiso   1.00
C71    C     0.19260   0.17100   0.41760   0.01267  Uiso   1.00
C72    C     0.54230   0.32080   0.42800   0.01267  Uiso   1.00
N1     N     0.36710   0.17340   0.69037   0.01267  Uiso   1.00
N2     N     0.48430   0.14720   0.79744   0.01267  Uiso   1.00
N3     N     0.27820   0.00750   0.80280   0.01267  Uiso   1.00
N4     N     0.26430   0.20700   0.79008   0.01267  Uiso   1.00
N5     N     0.15540   0.02090   0.68960   0.01267  Uiso   1.00
N6     N     0.37630   0.95840   0.69469   0.01267  Uiso   1.00
N7     N     0.63290   0.82660   0.30963   0.01267  Uiso   1.00
N8     N     0.51570   0.85280   0.20256   0.01267  Uiso   1.00
N9     N     0.72180   0.99250   0.19720   0.01267  Uiso   1.00
N10    N     0.73570   0.79300   0.20992   0.01267  Uiso   1.00
N11    N     0.84460   0.97910   0.31040   0.01267  Uiso   1.00
N12    N     0.62370   0.04160   0.30531   0.01267  Uiso   1.00
O1     O     0.42970   0.41010   0.53809   0.01267  Uiso   1.00
O2     O     0.61960   0.43210   0.60060   0.01267  Uiso   1.00
O3     O     0.83930   0.45110   0.90862   0.01267  Uiso   1.00
O4     O     0.85560   0.34060   0.97146   0.01267  Uiso   1.00
O5     O     0.09160   0.75510   0.91824   0.01267  Uiso   1.00
O6     O     0.12860   0.92360   0.98359   0.01267  Uiso   1.00
O7     O     0.09530   0.41570   0.96302   0.01267  Uiso   1.00
O8     O     0.09110   0.52710   0.89637   0.01267  Uiso   1.00
O9     O     0.71340   0.87400   0.57127   0.01267  Uiso   1.00
O10    O     0.80490   0.72650   0.56129   0.01267  Uiso   1.00
O11    O     0.36360   0.62330   0.52925   0.01267  Uiso   1.00
O12    O     0.55570   0.64670   0.58681   0.01267  Uiso   1.00
O13    O     0.20180   0.36650   0.33757   0.01267  Uiso   1.00
O14    O     0.13180   0.53990   0.41457   0.01267  Uiso   1.00
O15    O     0.17330   0.45410   0.52637   0.01267  Uiso   1.00
O16    O     0.88050   0.62810   0.83716   0.01267  Uiso   1.00
O17    O     0.75420   0.67760   0.93056   0.01267  Uiso   1.00
O18    O     0.97940   0.81020   0.02577   0.01267  Uiso   1.00
O19    O     0.57030   0.58990   0.46191   0.01267  Uiso   1.00
O20    O     0.38040   0.56790   0.39940   0.01267  Uiso   1.00
O21    O     0.16070   0.54890   0.09138   0.01267  Uiso   1.00
O22    O     0.14440   0.65940   0.02854   0.01267  Uiso   1.00
O23    O     0.90840   0.24490   0.08176   0.01267  Uiso   1.00
O24    O     0.87140   0.07640   0.01641   0.01267  Uiso   1.00
O25    O     0.90470   0.58430   0.03698   0.01267  Uiso   1.00
O26    O     0.90890   0.47290   0.10363   0.01267  Uiso   1.00
O27    O     0.28660   0.12600   0.42873   0.01267  Uiso   1.00
O28    O     0.19510   0.27350   0.43871   0.01267  Uiso   1.00
O29    O     0.63640   0.37670   0.47075   0.01267  Uiso   1.00
O30    O     0.44430   0.35330   0.41319   0.01267  Uiso   1.00
O31    O     0.79820   0.63350   0.66243   0.01267  Uiso   1.00
O32    O     0.86820   0.46010   0.58543   0.01267  Uiso   1.00
O33    O     0.82670   0.54590   0.47363   0.01267  Uiso   1.00
O34    O     0.11950   0.37190   0.16284   0.01267  Uiso   1.00
O35    O     0.24580   0.32240   0.06944   0.01267  Uiso   1.00
O36    O     0.02060   0.18980   0.97423   0.01267  Uiso   1.00
N13    N     0.86150   0.03610   0.79918   0.01267  Uiso   1.00
O37    O     0.90220   0.94830   0.79717   0.01267  Uiso   1.00
O38    O     0.90940   0.11720   0.84420   0.01267  Uiso   1.00
O39    O     0.77520   0.04590   0.75792   0.01267  Uiso   1.00
N14    N     0.12380   0.60470   0.70920   0.01267  Uiso   1.00
O40    O     0.03810   0.62350   0.73497   0.01267  Uiso   1.00
O41    O     0.21200   0.57130   0.73853   0.01267  Uiso   1.00
O42    O     0.12560   0.62880   0.65853   0.01267  Uiso   1.00
N15    N     0.21210   0.84930   0.46143   0.01267  Uiso   1.00
O43    O     0.31720   0.89670   0.47721   0.01267  Uiso   1.00
O44    O     0.18920   0.74810   0.43772   0.01267  Uiso   1.00
O45    O     0.12390   0.89850   0.46839   0.01267  Uiso   1.00
N16    N     0.13850   0.96390   0.20082   0.01267  Uiso   1.00
O46    O     0.09780   0.05170   0.20283   0.01267  Uiso   1.00
O47    O     0.09060   0.88280   0.15580   0.01267  Uiso   1.00
O48    O     0.22480   0.95410   0.24208   0.01267  Uiso   1.00
N17    N     0.87620   0.39530   0.29080   0.01267  Uiso   1.00
O49    O     0.96190   0.37650   0.26503   0.01267  Uiso   1.00
O50    O     0.78800   0.42870   0.26147   0.01267  Uiso   1.00
O51    O     0.87440   0.37120   0.34147   0.01267  Uiso   1.00
N18    N     0.78790   0.15070   0.53857   0.01267  Uiso   1.00
O52    O     0.68280   0.10330   0.52279   0.01267  Uiso   1.00
O53    O     0.81080   0.25190   0.56228   0.01267  Uiso   1.00
O54    O     0.87610   0.10150   0.53161   0.01267  Uiso   1.00
