data_image0
_cell_length_a       17.11
_cell_length_b       17.11
_cell_length_c       10.74
_cell_angle_alpha    90
_cell_angle_beta     90
_cell_angle_gamma    90

_symmetry_space_group_name_H-M    "P 1"
_symmetry_int_tables_number       1

loop_
  _symmetry_equiv_pos_as_xyz
  'x, y, z'

loop_
  _atom_site_label
  _atom_site_occupancy
  _atom_site_fract_x
  _atom_site_fract_y
  _atom_site_fract_z
  _atom_site_thermal_displace_type
  _atom_site_B_iso_or_equiv
  _atom_site_type_symbol
  Mo1      1.0000 0.66072  0.94074  0.19236  Biso   1.000  Mo
  P1       1.0000 0.63582  0.83224  0.44687  Biso   1.000  P
  O1       1.0000 0.57320  0.92990  0.10930  Biso   1.000  O
  O2       1.0000 0.75020  0.96480  0.33460  Biso   1.000  O
  O3       1.0000 0.70660  0.85040  0.16820  Biso   1.000  O
  O4       1.0000 0.60800  0.89420  0.35200  Biso   1.000  O
  O5       1.0000 0.56790  0.81920  0.53440  Biso   1.000  O
  O6       1.0000 0.66110  0.75710  0.38150  Biso   1.000  O
  O7       1.0000 0.70460  0.86670  0.52290  Biso   1.000  O
  Mo2      1.0000 0.16072  0.44074  0.69236  Biso   1.000  Mo
  P2       1.0000 0.13582  0.33224  0.94687  Biso   1.000  P
  O8       1.0000 0.07320  0.42990  0.60930  Biso   1.000  O
  O9       1.0000 0.25020  0.46480  0.83460  Biso   1.000  O
  O10      1.0000 0.20660  0.35040  0.66820  Biso   1.000  O
  O11      1.0000 0.10800  0.39420  0.85200  Biso   1.000  O
  O12      1.0000 0.06790  0.31920  0.03440  Biso   1.000  O
  O13      1.0000 0.16110  0.25710  0.88150  Biso   1.000  O
  O14      1.0000 0.20460  0.36670  0.02290  Biso   1.000  O
  Mo3      1.0000 0.83928  0.05926  0.69236  Biso   1.000  Mo
  P3       1.0000 0.86418  0.16776  0.94687  Biso   1.000  P
  O15      1.0000 0.92680  0.07010  0.60930  Biso   1.000  O
  O16      1.0000 0.74980  0.03520  0.83460  Biso   1.000  O
  O17      1.0000 0.79340  0.14960  0.66820  Biso   1.000  O
  O18      1.0000 0.89200  0.10580  0.85200  Biso   1.000  O
  O19      1.0000 0.93210  0.18080  0.03440  Biso   1.000  O
  O20      1.0000 0.83890  0.24290  0.88150  Biso   1.000  O
  O21      1.0000 0.79540  0.13330  0.02290  Biso   1.000  O
  Mo4      1.0000 0.33928  0.55926  0.19236  Biso   1.000  Mo
  P4       1.0000 0.36418  0.66776  0.44687  Biso   1.000  P
  O22      1.0000 0.42680  0.57010  0.10930  Biso   1.000  O
  O23      1.0000 0.24980  0.53520  0.33460  Biso   1.000  O
  O24      1.0000 0.29340  0.64960  0.16820  Biso   1.000  O
  O25      1.0000 0.39200  0.60580  0.35200  Biso   1.000  O
  O26      1.0000 0.43210  0.68080  0.53440  Biso   1.000  O
  O27      1.0000 0.33890  0.74290  0.38150  Biso   1.000  O
  O28      1.0000 0.29540  0.63330  0.52290  Biso   1.000  O
  Mo5      1.0000 0.80926  0.91072  0.44236  Biso   1.000  Mo
  P5       1.0000 0.91776  0.88582  0.69687  Biso   1.000  P
  O29      1.0000 0.82010  0.82320  0.35930  Biso   1.000  O
  O30      1.0000 0.78520  0.00020  0.58460  Biso   1.000  O
  O31      1.0000 0.89960  0.95660  0.41820  Biso   1.000  O
  O32      1.0000 0.85580  0.85800  0.60200  Biso   1.000  O
  O33      1.0000 0.93080  0.81790  0.78440  Biso   1.000  O
  O34      1.0000 0.99290  0.91110  0.63150  Biso   1.000  O
  O35      1.0000 0.88330  0.95460  0.77290  Biso   1.000  O
  Mo6      1.0000 0.30926  0.41072  0.94236  Biso   1.000  Mo
  P6       1.0000 0.41776  0.38582  0.19687  Biso   1.000  P
  O36      1.0000 0.32010  0.32320  0.85930  Biso   1.000  O
  O37      1.0000 0.28520  0.50020  0.08460  Biso   1.000  O
  O38      1.0000 0.39960  0.45660  0.91820  Biso   1.000  O
  O39      1.0000 0.35580  0.35800  0.10200  Biso   1.000  O
  O40      1.0000 0.43080  0.31790  0.28440  Biso   1.000  O
  O41      1.0000 0.49290  0.41110  0.13150  Biso   1.000  O
  O42      1.0000 0.38330  0.45460  0.27290  Biso   1.000  O
  Mo7      1.0000 0.69074  0.08928  0.94236  Biso   1.000  Mo
  P7       1.0000 0.58224  0.11418  0.19687  Biso   1.000  P
  O43      1.0000 0.67990  0.17680  0.85930  Biso   1.000  O
  O44      1.0000 0.71480  0.99980  0.08460  Biso   1.000  O
  O45      1.0000 0.60040  0.04340  0.91820  Biso   1.000  O
  O46      1.0000 0.64420  0.14200  0.10200  Biso   1.000  O
  O47      1.0000 0.56920  0.18210  0.28440  Biso   1.000  O
  O48      1.0000 0.50710  0.08890  0.13150  Biso   1.000  O
  O49      1.0000 0.61670  0.04540  0.27290  Biso   1.000  O
  Mo8      1.0000 0.19074  0.58928  0.44236  Biso   1.000  Mo
  P8       1.0000 0.08224  0.61418  0.69687  Biso   1.000  P
  O50      1.0000 0.17990  0.67680  0.35930  Biso   1.000  O
  O51      1.0000 0.21480  0.49980  0.58460  Biso   1.000  O
  O52      1.0000 0.10040  0.54340  0.41820  Biso   1.000  O
  O53      1.0000 0.14420  0.64200  0.60200  Biso   1.000  O
  O54      1.0000 0.06920  0.68210  0.78440  Biso   1.000  O
  O55      1.0000 0.00710  0.58890  0.63150  Biso   1.000  O
  O56      1.0000 0.11670  0.54540  0.77290  Biso   1.000  O
  Mo9      1.0000 0.33928  0.05926  0.80764  Biso   1.000  Mo
  P9       1.0000 0.36418  0.16776  0.55313  Biso   1.000  P
  O57      1.0000 0.42680  0.07010  0.89070  Biso   1.000  O
  O58      1.0000 0.24980  0.03520  0.66540  Biso   1.000  O
  O59      1.0000 0.29340  0.14960  0.83180  Biso   1.000  O
  O60      1.0000 0.39200  0.10580  0.64800  Biso   1.000  O
  O61      1.0000 0.43210  0.18080  0.46560  Biso   1.000  O
  O62      1.0000 0.33890  0.24290  0.61850  Biso   1.000  O
  O63      1.0000 0.29540  0.13330  0.47710  Biso   1.000  O
  Mo10     1.0000 0.83928  0.55926  0.30764  Biso   1.000  Mo
  P10      1.0000 0.86418  0.66776  0.05313  Biso   1.000  P
  O64      1.0000 0.92680  0.57010  0.39070  Biso   1.000  O
  O65      1.0000 0.74980  0.53520  0.16540  Biso   1.000  O
  O66      1.0000 0.79340  0.64960  0.33180  Biso   1.000  O
  O67      1.0000 0.89200  0.60580  0.14800  Biso   1.000  O
  O68      1.0000 0.93210  0.68080  0.96560  Biso   1.000  O
  O69      1.0000 0.83890  0.74290  0.11850  Biso   1.000  O
  O70      1.0000 0.79540  0.63330  0.97710  Biso   1.000  O
  Mo11     1.0000 0.16072  0.94074  0.30764  Biso   1.000  Mo
  P11      1.0000 0.13582  0.83224  0.05313  Biso   1.000  P
  O71      1.0000 0.07320  0.92990  0.39070  Biso   1.000  O
  O72      1.0000 0.25020  0.96480  0.16540  Biso   1.000  O
  O73      1.0000 0.20660  0.85040  0.33180  Biso   1.000  O
  O74      1.0000 0.10800  0.89420  0.14800  Biso   1.000  O
  O75      1.0000 0.06790  0.81920  0.96560  Biso   1.000  O
  O76      1.0000 0.16110  0.75710  0.11850  Biso   1.000  O
  O77      1.0000 0.20460  0.86670  0.97710  Biso   1.000  O
  Mo12     1.0000 0.66072  0.44074  0.80764  Biso   1.000  Mo
  P12      1.0000 0.63582  0.33224  0.55313  Biso   1.000  P
  O78      1.0000 0.57320  0.42990  0.89070  Biso   1.000  O
  O79      1.0000 0.75020  0.46480  0.66540  Biso   1.000  O
  O80      1.0000 0.70660  0.35040  0.83180  Biso   1.000  O
  O81      1.0000 0.60800  0.39420  0.64800  Biso   1.000  O
  O82      1.0000 0.56790  0.31920  0.46560  Biso   1.000  O
  O83      1.0000 0.66110  0.25710  0.61850  Biso   1.000  O
  O84      1.0000 0.70460  0.36670  0.47710  Biso   1.000  O
  Mo13     1.0000 0.19074  0.08928  0.55764  Biso   1.000  Mo
  P13      1.0000 0.08224  0.11418  0.30313  Biso   1.000  P
  O85      1.0000 0.17990  0.17680  0.64070  Biso   1.000  O
  O86      1.0000 0.21480  0.99980  0.41540  Biso   1.000  O
  O87      1.0000 0.10040  0.04340  0.58180  Biso   1.000  O
  O88      1.0000 0.14420  0.14200  0.39800  Biso   1.000  O
  O89      1.0000 0.06920  0.18210  0.21560  Biso   1.000  O
  O90      1.0000 0.00710  0.08890  0.36850  Biso   1.000  O
  O91      1.0000 0.11670  0.04540  0.22710  Biso   1.000  O
  Mo14     1.0000 0.69074  0.58928  0.05764  Biso   1.000  Mo
  P14      1.0000 0.58224  0.61418  0.80313  Biso   1.000  P
  O92      1.0000 0.67990  0.67680  0.14070  Biso   1.000  O
  O93      1.0000 0.71480  0.49980  0.91540  Biso   1.000  O
  O94      1.0000 0.60040  0.54340  0.08180  Biso   1.000  O
  O95      1.0000 0.64420  0.64200  0.89800  Biso   1.000  O
  O96      1.0000 0.56920  0.68210  0.71560  Biso   1.000  O
  O97      1.0000 0.50710  0.58890  0.86850  Biso   1.000  O
  O98      1.0000 0.61670  0.54540  0.72710  Biso   1.000  O
  Mo15     1.0000 0.30926  0.91072  0.05764  Biso   1.000  Mo
  P15      1.0000 0.41776  0.88582  0.80313  Biso   1.000  P
  O99      1.0000 0.32010  0.82320  0.14070  Biso   1.000  O
  O100     1.0000 0.28520  0.00020  0.91540  Biso   1.000  O
  O101     1.0000 0.39960  0.95660  0.08180  Biso   1.000  O
  O102     1.0000 0.35580  0.85800  0.89800  Biso   1.000  O
  O103     1.0000 0.43080  0.81790  0.71560  Biso   1.000  O
  O104     1.0000 0.49290  0.91110  0.86850  Biso   1.000  O
  O105     1.0000 0.38330  0.95460  0.72710  Biso   1.000  O
  Mo16     1.0000 0.80926  0.41072  0.55764  Biso   1.000  Mo
  P16      1.0000 0.91776  0.38582  0.30313  Biso   1.000  P
  O106     1.0000 0.82010  0.32320  0.64070  Biso   1.000  O
  O107     1.0000 0.78520  0.50020  0.41540  Biso   1.000  O
  O108     1.0000 0.89960  0.45660  0.58180  Biso   1.000  O
  O109     1.0000 0.85580  0.35800  0.39800  Biso   1.000  O
  O110     1.0000 0.93080  0.31790  0.21560  Biso   1.000  O
  O111     1.0000 0.99290  0.41110  0.36850  Biso   1.000  O
  O112     1.0000 0.88330  0.45460  0.22710  Biso   1.000  O
  Co1      1.0000 0.75000  0.75000  0.25000  Biso   1.000  Co
  Co2      1.0000 0.75000  0.25000  0.75000  Biso   1.000  Co
  Co3      1.0000 0.00000  0.00000  0.50000  Biso   1.000  Co
  Co4      1.0000 0.50000  0.50000  0.00000  Biso   1.000  Co
  Co5      1.0000 0.50000  0.00000  0.00000  Biso   1.000  Co
  Co6      1.0000 0.00000  0.50000  0.50000  Biso   1.000  Co
  Co7      1.0000 0.25000  0.25000  0.75000  Biso   1.000  Co
  Co8      1.0000 0.25000  0.75000  0.25000  Biso   1.000  Co
  Co9      1.0000 0.50000  0.75000  0.62500  Biso   1.000  Co
  Co10     1.0000 0.00000  0.25000  0.12500  Biso   1.000  Co
  Co11     1.0000 0.00000  0.75000  0.87500  Biso   1.000  Co
  Co12     1.0000 0.50000  0.25000  0.37500  Biso   1.000  Co
