data_TANLAX_charged
_audit_creation_date              2014-07-02
_audit_creation_method            'Materials Studio'
_symmetry_space_group_name_H-M    'P1'
_symmetry_Int_Tables_number       1
_symmetry_cell_setting            triclinic
loop_
_symmetry_equiv_pos_as_xyz
  x,y,z
_cell_length_a                    10.1514
_cell_length_b                    18.9094
_cell_length_c                    21.1020
_cell_angle_alpha                 115.3240
_cell_angle_beta                  101.6940
_cell_angle_gamma                 94.8454
loop_
_atom_site_label
_atom_site_type_symbol
_atom_site_fract_x
_atom_site_fract_y
_atom_site_fract_z
_atom_site_U_iso_or_equiv
_atom_site_adp_type
_atom_site_occupancy
Tb1    Tb    0.05676   0.06323   0.61436   0.01267  Uiso   1.00
Tb2    Tb    0.12645   0.10949   0.93874   0.01267  Uiso   1.00
Tb3    Tb    0.05760   0.55113   0.61436   0.01267  Uiso   1.00
Tb4    Tb    0.31229   0.82925   0.93874   0.01267  Uiso   1.00
Tb5    Tb    0.94324   0.93677   0.38564   0.01267  Uiso   1.00
Tb6    Tb    0.87355   0.89051   0.06126   0.01267  Uiso   1.00
Tb7    Tb    0.94240   0.44887   0.38564   0.01267  Uiso   1.00
Tb8    Tb    0.68771   0.17075   0.06126   0.01267  Uiso   1.00
Tb9    Tb    0.03099   0.28099   0.56198   0.01267  Uiso   1.00
Tb10   Tb    0.96901   0.71901   0.43802   0.01267  Uiso   1.00
S1     S     0.16184   0.10195   0.46620   0.01267  Uiso   1.00
S2     S     0.38655   0.02383   0.92918   0.01267  Uiso   1.00
S3     S     0.76603   0.09156   0.49648   0.01267  Uiso   1.00
S4     S     0.07617   0.09062   0.77618   0.01267  Uiso   1.00
S5     S     0.21250   0.24699   0.68658   0.01267  Uiso   1.00
S6     S     0.40711   0.27352   0.04672   0.01267  Uiso   1.00
S7     S     0.80436   0.36425   0.46620   0.01267  Uiso   1.00
S8     S     0.04263   0.90535   0.92918   0.01267  Uiso   1.00
S9     S     0.23045   0.40492   0.49648   0.01267  Uiso   1.00
S10    S     0.20001   0.68556   0.77618   0.01267  Uiso   1.00
S11    S     0.97408   0.43959   0.68658   0.01267  Uiso   1.00
S12    S     0.13961   0.77320   0.04672   0.01267  Uiso   1.00
S13    S     0.83816   0.89805   0.53380   0.01267  Uiso   1.00
S14    S     0.61345   0.97617   0.07082   0.01267  Uiso   1.00
S15    S     0.23397   0.90844   0.50352   0.01267  Uiso   1.00
S16    S     0.92383   0.90938   0.22382   0.01267  Uiso   1.00
S17    S     0.78750   0.75301   0.31342   0.01267  Uiso   1.00
S18    S     0.59289   0.72648   0.95328   0.01267  Uiso   1.00
S19    S     0.19564   0.63575   0.53380   0.01267  Uiso   1.00
S20    S     0.95737   0.09465   0.07082   0.01267  Uiso   1.00
S21    S     0.76955   0.59508   0.50352   0.01267  Uiso   1.00
S22    S     0.79999   0.31444   0.22382   0.01267  Uiso   1.00
S23    S     0.02592   0.56041   0.31342   0.01267  Uiso   1.00
S24    S     0.86039   0.22680   0.95328   0.01267  Uiso   1.00
O1     O     0.82323   0.07823   0.55998   0.01267  Uiso   1.00
O2     O     0.08230   0.07030   0.50432   0.01267  Uiso   1.00
O3     O     0.78570   0.02790   0.43000   0.01267  Uiso   1.00
O4     O     0.29615   0.03355   0.87030   0.01267  Uiso   1.00
O5     O     0.13440   0.18190   0.47972   0.01267  Uiso   1.00
O6     O     0.06096   0.21676   0.65022   0.01267  Uiso   1.00
O7     O     0.83615   0.16995   0.50890   0.01267  Uiso   1.00
O8     O     0.61836   0.09166   0.48892   0.01267  Uiso   1.00
O9     O     0.15737   0.16017   0.84534   0.01267  Uiso   1.00
O10    O     0.53072   0.06102   0.94324   0.01267  Uiso   1.00
O11    O     0.10571   0.04651   0.38804   0.01267  Uiso   1.00
O12    O     0.27279   0.17509   0.67378   0.01267  Uiso   1.00
O13    O     0.97674   0.11824   0.73468   0.01267  Uiso   1.00
O14    O     0.00811   0.03531   0.79742   0.01267  Uiso   1.00
O15    O     0.30745   0.10565   0.49070   0.01267  Uiso   1.00
O16    O     0.33702   0.06472   0.99504   0.01267  Uiso   1.00
O17    O     0.37940   0.93820   0.90770   0.01267  Uiso   1.00
O18    O     0.16621   0.05291   0.72962   0.01267  Uiso   1.00
O19    O     0.25962   0.29022   0.64904   0.01267  Uiso   1.00
O20    O     0.23532   0.29792   0.76364   0.01267  Uiso   1.00
O21    O     0.35900   0.21660   0.96920   0.01267  Uiso   1.00
O22    O     0.40350   0.33270   0.01260   0.01267  Uiso   1.00
O23    O     0.27520   0.23520   0.05100   0.01267  Uiso   1.00
O24    O     0.43350   0.34100   0.11760   0.01267  Uiso   1.00
O25    O     0.23675   0.48175   0.55998   0.01267  Uiso   1.00
O26    O     0.92202   0.43402   0.50432   0.01267  Uiso   1.00
O27    O     0.14430   0.40210   0.43000   0.01267  Uiso   1.00
O28    O     0.07415   0.83675   0.87030   0.01267  Uiso   1.00
O29    O     0.84532   0.29782   0.47972   0.01267  Uiso   1.00
O30    O     0.08926   0.43346   0.65022   0.01267  Uiso   1.00
O31    O     0.17275   0.33895   0.50890   0.01267  Uiso   1.00
O32    O     0.37056   0.39726   0.48892   0.01267  Uiso   1.00
O33    O     0.18797   0.68517   0.84534   0.01267  Uiso   1.00
O34    O     0.91252   0.88222   0.94324   0.01267  Uiso   1.00
O35    O     0.78233   0.34153   0.38804   0.01267  Uiso   1.00
O36    O     0.90099   0.49869   0.67378   0.01267  Uiso   1.00
O37    O     0.25794   0.61644   0.73468   0.01267  Uiso   1.00
O38    O     0.28931   0.76211   0.79742   0.01267  Uiso   1.00
O39    O     0.68325   0.38505   0.49070   0.01267  Uiso   1.00
O40    O     0.15802   0.93032   0.99504   0.01267  Uiso   1.00
O41    O     0.02830   0.96950   0.90770   0.01267  Uiso   1.00
O42    O     0.06341   0.67671   0.72962   0.01267  Uiso   1.00
O43    O     0.88942   0.35882   0.64904   0.01267  Uiso   1.00
O44    O     0.02832   0.46572   0.76364   0.01267  Uiso   1.00
O45    O     0.11020   0.75260   0.96920   0.01267  Uiso   1.00
O46    O     0.10910   0.67990   0.01260   0.01267  Uiso   1.00
O47    O     0.27580   0.81580   0.05100   0.01267  Uiso   1.00
O48    O     0.18410   0.77660   0.11760   0.01267  Uiso   1.00
O49    O     0.17677   0.92177   0.44002   0.01267  Uiso   1.00
O50    O     0.91770   0.92970   0.49568   0.01267  Uiso   1.00
O51    O     0.21430   0.97210   0.57000   0.01267  Uiso   1.00
O52    O     0.70385   0.96645   0.12970   0.01267  Uiso   1.00
O53    O     0.86560   0.81810   0.52028   0.01267  Uiso   1.00
O54    O     0.93904   0.78324   0.34978   0.01267  Uiso   1.00
O55    O     0.16385   0.83005   0.49110   0.01267  Uiso   1.00
O56    O     0.38164   0.90834   0.51108   0.01267  Uiso   1.00
O57    O     0.84263   0.83983   0.15466   0.01267  Uiso   1.00
O58    O     0.46928   0.93898   0.05676   0.01267  Uiso   1.00
O59    O     0.89429   0.95349   0.61196   0.01267  Uiso   1.00
O60    O     0.72721   0.82491   0.32622   0.01267  Uiso   1.00
O61    O     0.02326   0.88176   0.26532   0.01267  Uiso   1.00
O62    O     0.99189   0.96469   0.20258   0.01267  Uiso   1.00
O63    O     0.69255   0.89435   0.50930   0.01267  Uiso   1.00
O64    O     0.66298   0.93528   0.00496   0.01267  Uiso   1.00
O65    O     0.62060   0.06180   0.09230   0.01267  Uiso   1.00
O66    O     0.83379   0.94709   0.27038   0.01267  Uiso   1.00
O67    O     0.74038   0.70978   0.35096   0.01267  Uiso   1.00
O68    O     0.76468   0.70208   0.23636   0.01267  Uiso   1.00
O69    O     0.64100   0.78340   0.03080   0.01267  Uiso   1.00
O70    O     0.59650   0.66730   0.98740   0.01267  Uiso   1.00
O71    O     0.72480   0.76480   0.94900   0.01267  Uiso   1.00
O72    O     0.56650   0.65900   0.88240   0.01267  Uiso   1.00
O73    O     0.76325   0.51825   0.44002   0.01267  Uiso   1.00
O74    O     0.07798   0.56598   0.49568   0.01267  Uiso   1.00
O75    O     0.85570   0.59790   0.57000   0.01267  Uiso   1.00
O76    O     0.92585   0.16325   0.12970   0.01267  Uiso   1.00
O77    O     0.15468   0.70218   0.52028   0.01267  Uiso   1.00
O78    O     0.91074   0.56654   0.34978   0.01267  Uiso   1.00
O79    O     0.82725   0.66105   0.49110   0.01267  Uiso   1.00
O80    O     0.62944   0.60274   0.51108   0.01267  Uiso   1.00
O81    O     0.81203   0.31483   0.15466   0.01267  Uiso   1.00
O82    O     0.08748   0.11778   0.05676   0.01267  Uiso   1.00
O83    O     0.21767   0.65847   0.61196   0.01267  Uiso   1.00
O84    O     0.09901   0.50131   0.32622   0.01267  Uiso   1.00
O85    O     0.74206   0.38356   0.26532   0.01267  Uiso   1.00
O86    O     0.71069   0.23789   0.20258   0.01267  Uiso   1.00
O87    O     0.31675   0.61495   0.50930   0.01267  Uiso   1.00
O88    O     0.84198   0.06968   0.00496   0.01267  Uiso   1.00
O89    O     0.97170   0.03050   0.09230   0.01267  Uiso   1.00
O90    O     0.93659   0.32329   0.27038   0.01267  Uiso   1.00
O91    O     0.11058   0.64118   0.35096   0.01267  Uiso   1.00
O92    O     0.97168   0.53428   0.23636   0.01267  Uiso   1.00
O93    O     0.88980   0.24740   0.03080   0.01267  Uiso   1.00
O94    O     0.89090   0.32010   0.98740   0.01267  Uiso   1.00
O95    O     0.72420   0.18420   0.94900   0.01267  Uiso   1.00
O96    O     0.81590   0.22340   0.88240   0.01267  Uiso   1.00
H1     H     0.02790   0.39490   0.17720   0.01267  Uiso   1.00
H2     H     0.02380   0.32930   0.10800   0.01267  Uiso   1.00
H3     H     0.06380   0.44110   0.10560   0.01267  Uiso   1.00
H4     H     0.19680   0.46650   0.16920   0.01267  Uiso   1.00
H5     H     0.18590   0.39590   0.09280   0.01267  Uiso   1.00
H6     H     0.10990   0.30270   0.19660   0.01267  Uiso   1.00
H7     H     0.21700   0.30450   0.15300   0.01267  Uiso   1.00
H8     H     0.22720   0.37770   0.22780   0.01267  Uiso   1.00
C1     C     0.13580   0.42220   0.12740   0.01267  Uiso   1.00
C2     C     0.16540   0.33600   0.18420   0.01267  Uiso   1.00
N1     N     0.08050   0.36980   0.14820   0.01267  Uiso   1.00
H9     H     0.57620   0.44390   0.40360   0.01267  Uiso   1.00
H10    H     0.46370   0.41580   0.42520   0.01267  Uiso   1.00
H11    H     0.52310   0.30920   0.34180   0.01267  Uiso   1.00
H12    H     0.37310   0.31520   0.31060   0.01267  Uiso   1.00
H13    H     0.49440   0.34550   0.28720   0.01267  Uiso   1.00
H14    H     0.42230   0.52400   0.41220   0.01267  Uiso   1.00
H15    H     0.43270   0.48080   0.33180   0.01267  Uiso   1.00
H16    H     0.31060   0.44970   0.35420   0.01267  Uiso   1.00
C3     C     0.46770   0.34070   0.32660   0.01267  Uiso   1.00
C4     C     0.40620   0.47330   0.37000   0.01267  Uiso   1.00
N2     N     0.48691   0.42091   0.38822   0.01267  Uiso   1.00
H17    H     0.76940   0.94300   0.90040   0.01267  Uiso   1.00
H18    H     0.73440   0.03430   0.86000   0.01267  Uiso   1.00
H19    H     0.75900   0.95710   0.79840   0.01267  Uiso   1.00
H20    H     0.60960   0.97270   0.79760   0.01267  Uiso   1.00
H21    H     0.63100   0.95740   0.90040   0.01267  Uiso   1.00
H22    H     0.62560   0.82570   0.86000   0.01267  Uiso   1.00
H23    H     0.53940   0.84130   0.79840   0.01267  Uiso   1.00
H24    H     0.68800   0.82490   0.79760   0.01267  Uiso   1.00
C5     C     0.69830   0.97870   0.82800   0.01267  Uiso   1.00
C6     C     0.62970   0.84930   0.82800   0.01267  Uiso   1.00
N3     N     0.68583   0.93583   0.87166   0.01267  Uiso   1.00
H25    H     0.87340   0.07480   0.22480   0.01267  Uiso   1.00
H26    H     0.69280   0.10720   0.26420   0.01267  Uiso   1.00
H27    H     0.80880   0.10660   0.32540   0.01267  Uiso   1.00
H28    H     0.78470   0.18770   0.32600   0.01267  Uiso   1.00
H29    H     0.85140   0.15000   0.22480   0.01267  Uiso   1.00
H30    H     0.07140   0.15700   0.26420   0.01267  Uiso   1.00
H31    H     0.01660   0.21880   0.32540   0.01267  Uiso   1.00
H32    H     0.04130   0.13830   0.32600   0.01267  Uiso   1.00
C7     C     0.78330   0.13250   0.29560   0.01267  Uiso   1.00
C8     C     0.01230   0.16310   0.29560   0.01267  Uiso   1.00
N4     N     0.87670   0.12670   0.25340   0.01267  Uiso   1.00
H33    H     0.95190   0.25350   0.83940   0.01267  Uiso   1.00
H34    H     0.04370   0.25720   0.79640   0.01267  Uiso   1.00
H35    H     0.83700   0.25690   0.74480   0.01267  Uiso   1.00
H36    H     0.83960   0.33580   0.81340   0.01267  Uiso   1.00
H37    H     0.93670   0.33560   0.76440   0.01267  Uiso   1.00
H38    H     0.15430   0.32410   0.91440   0.01267  Uiso   1.00
H39    H     0.14830   0.38230   0.87920   0.01267  Uiso   1.00
H40    H     0.04660   0.38010   0.92540   0.01267  Uiso   1.00
C9     C     0.89420   0.30500   0.78380   0.01267  Uiso   1.00
C10    C     0.09480   0.34860   0.89200   0.01267  Uiso   1.00
N5     N     0.99490   0.28600   0.82580   0.01267  Uiso   1.00
H41    H     0.64930   0.78230   0.17720   0.01267  Uiso   1.00
H42    H     0.58420   0.77870   0.10800   0.01267  Uiso   1.00
H43    H     0.54180   0.66450   0.10560   0.01267  Uiso   1.00
H44    H     0.47240   0.70270   0.16920   0.01267  Uiso   1.00
H45    H     0.40690   0.69690   0.09280   0.01267  Uiso   1.00
H46    H     0.58670   0.89390   0.19660   0.01267  Uiso   1.00
H47    H     0.43600   0.84850   0.15300   0.01267  Uiso   1.00
H48    H     0.50060   0.85010   0.22780   0.01267  Uiso   1.00
C11    C     0.49160   0.70520   0.12740   0.01267  Uiso   1.00
C12    C     0.51880   0.84820   0.18420   0.01267  Uiso   1.00
N6     N     0.56770   0.77840   0.14820   0.01267  Uiso   1.00
H49    H     0.32740   0.95970   0.40360   0.01267  Uiso   1.00
H50    H     0.46150   0.00940   0.42520   0.01267  Uiso   1.00
H51    H     0.31870   0.03260   0.34180   0.01267  Uiso   1.00
H52    H     0.43750   0.99540   0.31060   0.01267  Uiso   1.00
H53    H     0.29280   0.94170   0.28720   0.01267  Uiso   1.00
H54    H     0.48990   0.88820   0.41220   0.01267  Uiso   1.00
H55    H     0.39910   0.85100   0.33180   0.01267  Uiso   1.00
H56    H     0.54360   0.90450   0.35420   0.01267  Uiso   1.00
C13    C     0.35890   0.98590   0.32660   0.01267  Uiso   1.00
C14    C     0.46380   0.89670   0.37000   0.01267  Uiso   1.00
N7     N     0.40131   0.96731   0.38822   0.01267  Uiso   1.00
H57    H     0.38750   0.58590   0.83940   0.01267  Uiso   1.00
H58    H     0.25270   0.53920   0.79640   0.01267  Uiso   1.00
H59    H     0.40780   0.48790   0.74480   0.01267  Uiso   1.00
H60    H     0.47380   0.47760   0.81340   0.01267  Uiso   1.00
H61    H     0.32770   0.42880   0.76440   0.01267  Uiso   1.00
H62    H     0.26010   0.59030   0.91440   0.01267  Uiso   1.00
H63    H     0.23090   0.49690   0.87920   0.01267  Uiso   1.00
H64    H     0.37880   0.54530   0.92540   0.01267  Uiso   1.00
C15    C     0.38960   0.47880   0.78380   0.01267  Uiso   1.00
C16    C     0.29720   0.54340   0.89200   0.01267  Uiso   1.00
N8     N     0.33090   0.53980   0.82580   0.01267  Uiso   1.00
H65    H     0.97210   0.60510   0.82280   0.01267  Uiso   1.00
H66    H     0.97620   0.67070   0.89200   0.01267  Uiso   1.00
H67    H     0.93620   0.55890   0.89440   0.01267  Uiso   1.00
H68    H     0.80320   0.53350   0.83080   0.01267  Uiso   1.00
H69    H     0.81410   0.60410   0.90720   0.01267  Uiso   1.00
H70    H     0.89010   0.69730   0.80340   0.01267  Uiso   1.00
H71    H     0.78300   0.69550   0.84700   0.01267  Uiso   1.00
H72    H     0.77280   0.62230   0.77220   0.01267  Uiso   1.00
C17    C     0.86420   0.57780   0.87260   0.01267  Uiso   1.00
C18    C     0.83460   0.66400   0.81580   0.01267  Uiso   1.00
N9     N     0.91950   0.63020   0.85180   0.01267  Uiso   1.00
H73    H     0.42380   0.55610   0.59640   0.01267  Uiso   1.00
H74    H     0.53630   0.58420   0.57480   0.01267  Uiso   1.00
H75    H     0.47690   0.69080   0.65820   0.01267  Uiso   1.00
H76    H     0.62690   0.68480   0.68940   0.01267  Uiso   1.00
H77    H     0.50560   0.65450   0.71280   0.01267  Uiso   1.00
H78    H     0.57770   0.47600   0.58780   0.01267  Uiso   1.00
H79    H     0.56730   0.51920   0.66820   0.01267  Uiso   1.00
H80    H     0.68940   0.55030   0.64580   0.01267  Uiso   1.00
C19    C     0.53230   0.65930   0.67340   0.01267  Uiso   1.00
C20    C     0.59380   0.52670   0.63000   0.01267  Uiso   1.00
N10    N     0.51309   0.57909   0.61178   0.01267  Uiso   1.00
H81    H     0.23060   0.05700   0.09960   0.01267  Uiso   1.00
H82    H     0.26560   0.96570   0.14000   0.01267  Uiso   1.00
H83    H     0.24100   0.04290   0.20160   0.01267  Uiso   1.00
H84    H     0.39040   0.02730   0.20240   0.01267  Uiso   1.00
H85    H     0.36900   0.04260   0.09960   0.01267  Uiso   1.00
H86    H     0.37440   0.17430   0.14000   0.01267  Uiso   1.00
H87    H     0.46060   0.15870   0.20160   0.01267  Uiso   1.00
H88    H     0.31200   0.17510   0.20240   0.01267  Uiso   1.00
C21    C     0.30170   0.02130   0.17200   0.01267  Uiso   1.00
C22    C     0.37030   0.15070   0.17200   0.01267  Uiso   1.00
N11    N     0.31417   0.06417   0.12834   0.01267  Uiso   1.00
H89    H     0.12660   0.92520   0.77520   0.01267  Uiso   1.00
H90    H     0.30720   0.89280   0.73580   0.01267  Uiso   1.00
H91    H     0.19120   0.89340   0.67460   0.01267  Uiso   1.00
H92    H     0.21530   0.81230   0.67400   0.01267  Uiso   1.00
H93    H     0.14860   0.85000   0.77520   0.01267  Uiso   1.00
H94    H     0.92860   0.84300   0.73580   0.01267  Uiso   1.00
H95    H     0.98340   0.78120   0.67460   0.01267  Uiso   1.00
H96    H     0.95870   0.86170   0.67400   0.01267  Uiso   1.00
C23    C     0.21670   0.86750   0.70440   0.01267  Uiso   1.00
C24    C     0.98770   0.83690   0.70440   0.01267  Uiso   1.00
N12    N     0.12330   0.87330   0.74660   0.01267  Uiso   1.00
H97    H     0.04810   0.74650   0.16060   0.01267  Uiso   1.00
H98    H     0.95630   0.74280   0.20360   0.01267  Uiso   1.00
H99    H     0.16300   0.74310   0.25520   0.01267  Uiso   1.00
H100   H     0.16040   0.66420   0.18660   0.01267  Uiso   1.00
H101   H     0.06330   0.66440   0.23560   0.01267  Uiso   1.00
H102   H     0.84570   0.67590   0.08560   0.01267  Uiso   1.00
H103   H     0.85170   0.61770   0.12080   0.01267  Uiso   1.00
H104   H     0.95340   0.61990   0.07460   0.01267  Uiso   1.00
C25    C     0.10580   0.69500   0.21620   0.01267  Uiso   1.00
C26    C     0.90520   0.65140   0.10800   0.01267  Uiso   1.00
N13    N     0.00510   0.71400   0.17420   0.01267  Uiso   1.00
H105   H     0.35070   0.21770   0.82280   0.01267  Uiso   1.00
H106   H     0.41580   0.22130   0.89200   0.01267  Uiso   1.00
H107   H     0.45820   0.33550   0.89440   0.01267  Uiso   1.00
H108   H     0.52760   0.29730   0.83080   0.01267  Uiso   1.00
H109   H     0.59310   0.30310   0.90720   0.01267  Uiso   1.00
H110   H     0.41330   0.10610   0.80340   0.01267  Uiso   1.00
H111   H     0.56400   0.15150   0.84700   0.01267  Uiso   1.00
H112   H     0.49940   0.14990   0.77220   0.01267  Uiso   1.00
C27    C     0.50840   0.29480   0.87260   0.01267  Uiso   1.00
C28    C     0.48120   0.15180   0.81580   0.01267  Uiso   1.00
N14    N     0.43230   0.22160   0.85180   0.01267  Uiso   1.00
H113   H     0.67260   0.04030   0.59640   0.01267  Uiso   1.00
H114   H     0.53850   0.99060   0.57480   0.01267  Uiso   1.00
H115   H     0.68130   0.96740   0.65820   0.01267  Uiso   1.00
H116   H     0.56250   0.00460   0.68940   0.01267  Uiso   1.00
H117   H     0.70720   0.05830   0.71280   0.01267  Uiso   1.00
H118   H     0.51010   0.11180   0.58780   0.01267  Uiso   1.00
H119   H     0.60090   0.14900   0.66820   0.01267  Uiso   1.00
H120   H     0.45640   0.09550   0.64580   0.01267  Uiso   1.00
C29    C     0.64110   0.01410   0.67340   0.01267  Uiso   1.00
C30    C     0.53620   0.10330   0.63000   0.01267  Uiso   1.00
N15    N     0.59869   0.03269   0.61178   0.01267  Uiso   1.00
H121   H     0.61250   0.41410   0.16060   0.01267  Uiso   1.00
H122   H     0.74730   0.46080   0.20360   0.01267  Uiso   1.00
H123   H     0.59220   0.51210   0.25520   0.01267  Uiso   1.00
H124   H     0.52620   0.52240   0.18660   0.01267  Uiso   1.00
H125   H     0.67230   0.57120   0.23560   0.01267  Uiso   1.00
H126   H     0.73990   0.40970   0.08560   0.01267  Uiso   1.00
H127   H     0.76910   0.50310   0.12080   0.01267  Uiso   1.00
H128   H     0.62120   0.45470   0.07460   0.01267  Uiso   1.00
C31    C     0.61040   0.52120   0.21620   0.01267  Uiso   1.00
C32    C     0.70280   0.45660   0.10800   0.01267  Uiso   1.00
N16    N     0.66910   0.46020   0.17420   0.01267  Uiso   1.00
