data_image0
_cell_length_a       21.35
_cell_length_b       8.581
_cell_length_c       20.54
_cell_angle_alpha    90
_cell_angle_beta     118.107
_cell_angle_gamma    90

_symmetry_space_group_name_H-M    "P 1"
_symmetry_int_tables_number       1

loop_
  _symmetry_equiv_pos_as_xyz
  'x, y, z'

loop_
  _atom_site_label
  _atom_site_occupancy
  _atom_site_fract_x
  _atom_site_fract_y
  _atom_site_fract_z
  _atom_site_thermal_displace_type
  _atom_site_B_iso_or_equiv
  _atom_site_type_symbol
  O1       1.0000 0.16500  0.07770  0.95030  Biso   1.000  O
  O2       1.0000 0.43420  0.02900  0.39100  Biso   1.000  O
  O3       1.0000 0.06390  0.03970  0.95450  Biso   1.000  O
  O4       1.0000 0.37120  0.94880  0.27770  Biso   1.000  O
  O5       1.0000 0.41400  0.02070  0.51670  Biso   1.000  O
  O6       1.0000 0.33190  0.91530  0.53780  Biso   1.000  O
  N1       1.0000 0.28980  0.75260  0.31560  Biso   1.000  N
  N2       1.0000 0.26890  0.76870  0.41020  Biso   1.000  N
  C1       1.0000 0.24380  0.76520  0.17880  Biso   1.000  C
  C2       1.0000 0.32460  0.86440  0.42310  Biso   1.000  C
  C3       1.0000 0.36050  0.93790  0.49780  Biso   1.000  C
  C4       1.0000 0.23140  0.85600  0.06330  Biso   1.000  C
  H1       1.0000 0.24910  0.86430  0.02990  Biso   1.000  H
  C5       1.0000 0.33770  0.85610  0.36290  Biso   1.000  C
  C6       1.0000 0.17940  0.82630  0.16180  Biso   1.000  C
  H2       1.0000 0.16090  0.81390  0.19450  Biso   1.000  H
  C7       1.0000 0.12940  0.02090  0.97950  Biso   1.000  C
  C8       1.0000 0.25080  0.70220  0.34650  Biso   1.000  C
  H3       1.0000 0.21490  0.62830  0.32510  Biso   1.000  H
  C9       1.0000 0.16700  0.92390  0.04720  Biso   1.000  C
  C10      1.0000 0.38580  0.94710  0.34330  Biso   1.000  C
  C11      1.0000 0.26920  0.77740  0.12770  Biso   1.000  C
  H4       1.0000 0.31220  0.73140  0.13770  Biso   1.000  H
  C12      1.0000 0.14030  0.90750  0.09590  Biso   1.000  C
  H5       1.0000 0.09640  0.95020  0.08520  Biso   1.000  H
  C13      1.0000 0.28760  0.67920  0.25000  Biso   1.000  C
  H6       1.0000 0.26870  0.57460  0.24540  Biso   1.000  H
  H7       1.0000 0.33580  0.67000  0.25740  Biso   1.000  H
  O7       1.0000 0.66500  0.57770  0.95030  Biso   1.000  O
  O8       1.0000 0.93420  0.52900  0.39100  Biso   1.000  O
  O9       1.0000 0.56390  0.53970  0.95450  Biso   1.000  O
  O10      1.0000 0.87120  0.44880  0.27770  Biso   1.000  O
  O11      1.0000 0.91400  0.52070  0.51670  Biso   1.000  O
  O12      1.0000 0.83190  0.41530  0.53780  Biso   1.000  O
  N3       1.0000 0.78980  0.25260  0.31560  Biso   1.000  N
  N4       1.0000 0.76890  0.26870  0.41020  Biso   1.000  N
  C14      1.0000 0.74380  0.26520  0.17880  Biso   1.000  C
  C15      1.0000 0.82460  0.36440  0.42310  Biso   1.000  C
  C16      1.0000 0.86050  0.43790  0.49780  Biso   1.000  C
  C17      1.0000 0.73140  0.35600  0.06330  Biso   1.000  C
  H8       1.0000 0.74910  0.36430  0.02990  Biso   1.000  H
  C18      1.0000 0.83770  0.35610  0.36290  Biso   1.000  C
  C19      1.0000 0.67940  0.32630  0.16180  Biso   1.000  C
  H9       1.0000 0.66090  0.31390  0.19450  Biso   1.000  H
  C20      1.0000 0.62940  0.52090  0.97950  Biso   1.000  C
  C21      1.0000 0.75080  0.20220  0.34650  Biso   1.000  C
  H10      1.0000 0.71490  0.12830  0.32510  Biso   1.000  H
  C22      1.0000 0.66700  0.42390  0.04720  Biso   1.000  C
  C23      1.0000 0.88580  0.44710  0.34330  Biso   1.000  C
  C24      1.0000 0.76920  0.27740  0.12770  Biso   1.000  C
  H11      1.0000 0.81220  0.23140  0.13770  Biso   1.000  H
  C25      1.0000 0.64030  0.40750  0.09590  Biso   1.000  C
  H12      1.0000 0.59640  0.45020  0.08520  Biso   1.000  H
  C26      1.0000 0.78760  0.17920  0.25000  Biso   1.000  C
  H13      1.0000 0.76870  0.07460  0.24540  Biso   1.000  H
  H14      1.0000 0.83580  0.17000  0.25740  Biso   1.000  H
  O13      1.0000 0.83500  0.07770  0.54970  Biso   1.000  O
  O14      1.0000 0.56580  0.02900  0.10900  Biso   1.000  O
  O15      1.0000 0.93610  0.03970  0.54550  Biso   1.000  O
  O16      1.0000 0.62880  0.94880  0.22230  Biso   1.000  O
  O17      1.0000 0.58600  0.02070  0.98330  Biso   1.000  O
  O18      1.0000 0.66810  0.91530  0.96220  Biso   1.000  O
  N5       1.0000 0.71020  0.75260  0.18440  Biso   1.000  N
  N6       1.0000 0.73110  0.76870  0.08980  Biso   1.000  N
  C27      1.0000 0.75620  0.76520  0.32120  Biso   1.000  C
  C28      1.0000 0.67540  0.86440  0.07690  Biso   1.000  C
  C29      1.0000 0.63950  0.93790  0.00220  Biso   1.000  C
  C30      1.0000 0.76860  0.85600  0.43670  Biso   1.000  C
  H15      1.0000 0.75090  0.86430  0.47010  Biso   1.000  H
  C31      1.0000 0.66230  0.85610  0.13710  Biso   1.000  C
  C32      1.0000 0.82060  0.82630  0.33820  Biso   1.000  C
  H16      1.0000 0.83910  0.81390  0.30550  Biso   1.000  H
  C33      1.0000 0.87060  0.02090  0.52050  Biso   1.000  C
  C34      1.0000 0.74920  0.70220  0.15350  Biso   1.000  C
  H17      1.0000 0.78510  0.62830  0.17490  Biso   1.000  H
  C35      1.0000 0.83300  0.92390  0.45280  Biso   1.000  C
  C36      1.0000 0.61420  0.94710  0.15670  Biso   1.000  C
  C37      1.0000 0.73080  0.77740  0.37230  Biso   1.000  C
  H18      1.0000 0.68780  0.73140  0.36230  Biso   1.000  H
  C38      1.0000 0.85970  0.90750  0.40410  Biso   1.000  C
  H19      1.0000 0.90360  0.95020  0.41480  Biso   1.000  H
  C39      1.0000 0.71240  0.67920  0.25000  Biso   1.000  C
  H20      1.0000 0.73130  0.57460  0.25460  Biso   1.000  H
  H21      1.0000 0.66420  0.67000  0.24260  Biso   1.000  H
  O19      1.0000 0.33500  0.57770  0.54970  Biso   1.000  O
  O20      1.0000 0.06580  0.52900  0.10900  Biso   1.000  O
  O21      1.0000 0.43610  0.53970  0.54550  Biso   1.000  O
  O22      1.0000 0.12880  0.44880  0.22230  Biso   1.000  O
  O23      1.0000 0.08600  0.52070  0.98330  Biso   1.000  O
  O24      1.0000 0.16810  0.41530  0.96220  Biso   1.000  O
  N7       1.0000 0.21020  0.25260  0.18440  Biso   1.000  N
  N8       1.0000 0.23110  0.26870  0.08980  Biso   1.000  N
  C40      1.0000 0.25620  0.26520  0.32120  Biso   1.000  C
  C41      1.0000 0.17540  0.36440  0.07690  Biso   1.000  C
  C42      1.0000 0.13950  0.43790  0.00220  Biso   1.000  C
  C43      1.0000 0.26860  0.35600  0.43670  Biso   1.000  C
  H22      1.0000 0.25090  0.36430  0.47010  Biso   1.000  H
  C44      1.0000 0.16230  0.35610  0.13710  Biso   1.000  C
  C45      1.0000 0.32060  0.32630  0.33820  Biso   1.000  C
  H23      1.0000 0.33910  0.31390  0.30550  Biso   1.000  H
  C46      1.0000 0.37060  0.52090  0.52050  Biso   1.000  C
  C47      1.0000 0.24920  0.20220  0.15350  Biso   1.000  C
  H24      1.0000 0.28510  0.12830  0.17490  Biso   1.000  H
  C48      1.0000 0.33300  0.42390  0.45280  Biso   1.000  C
  C49      1.0000 0.11420  0.44710  0.15670  Biso   1.000  C
  C50      1.0000 0.23080  0.27740  0.37230  Biso   1.000  C
  H25      1.0000 0.18780  0.23140  0.36230  Biso   1.000  H
  C51      1.0000 0.35970  0.40750  0.40410  Biso   1.000  C
  H26      1.0000 0.40360  0.45020  0.41480  Biso   1.000  H
  C52      1.0000 0.21240  0.17920  0.25000  Biso   1.000  C
  H27      1.0000 0.23130  0.07460  0.25460  Biso   1.000  H
  H28      1.0000 0.16420  0.17000  0.24260  Biso   1.000  H
  O25      1.0000 0.83500  0.92230  0.04970  Biso   1.000  O
  O26      1.0000 0.56580  0.97100  0.60900  Biso   1.000  O
  O27      1.0000 0.93610  0.96030  0.04550  Biso   1.000  O
  O28      1.0000 0.62880  0.05120  0.72230  Biso   1.000  O
  O29      1.0000 0.58600  0.97930  0.48330  Biso   1.000  O
  O30      1.0000 0.66810  0.08470  0.46220  Biso   1.000  O
  N9       1.0000 0.71020  0.24740  0.68440  Biso   1.000  N
  N10      1.0000 0.73110  0.23130  0.58980  Biso   1.000  N
  C53      1.0000 0.75620  0.23480  0.82120  Biso   1.000  C
  C54      1.0000 0.67540  0.13560  0.57690  Biso   1.000  C
  C55      1.0000 0.63950  0.06210  0.50220  Biso   1.000  C
  C56      1.0000 0.76860  0.14400  0.93670  Biso   1.000  C
  H29      1.0000 0.75090  0.13570  0.97010  Biso   1.000  H
  C57      1.0000 0.66230  0.14390  0.63710  Biso   1.000  C
  C58      1.0000 0.82060  0.17370  0.83820  Biso   1.000  C
  H30      1.0000 0.83910  0.18610  0.80550  Biso   1.000  H
  C59      1.0000 0.87060  0.97910  0.02050  Biso   1.000  C
  C60      1.0000 0.74920  0.29780  0.65350  Biso   1.000  C
  H31      1.0000 0.78510  0.37170  0.67490  Biso   1.000  H
  C61      1.0000 0.83300  0.07610  0.95280  Biso   1.000  C
  C62      1.0000 0.61420  0.05290  0.65670  Biso   1.000  C
  C63      1.0000 0.73080  0.22260  0.87230  Biso   1.000  C
  H32      1.0000 0.68780  0.26860  0.86230  Biso   1.000  H
  C64      1.0000 0.85970  0.09250  0.90410  Biso   1.000  C
  H33      1.0000 0.90360  0.04980  0.91480  Biso   1.000  H
  C65      1.0000 0.71240  0.32080  0.75000  Biso   1.000  C
  H34      1.0000 0.73130  0.42540  0.75460  Biso   1.000  H
  H35      1.0000 0.66420  0.33000  0.74260  Biso   1.000  H
  O31      1.0000 0.33500  0.42230  0.04970  Biso   1.000  O
  O32      1.0000 0.06580  0.47100  0.60900  Biso   1.000  O
  O33      1.0000 0.43610  0.46030  0.04550  Biso   1.000  O
  O34      1.0000 0.12880  0.55120  0.72230  Biso   1.000  O
  O35      1.0000 0.08600  0.47930  0.48330  Biso   1.000  O
  O36      1.0000 0.16810  0.58470  0.46220  Biso   1.000  O
  N11      1.0000 0.21020  0.74740  0.68440  Biso   1.000  N
  N12      1.0000 0.23110  0.73130  0.58980  Biso   1.000  N
  C66      1.0000 0.25620  0.73480  0.82120  Biso   1.000  C
  C67      1.0000 0.17540  0.63560  0.57690  Biso   1.000  C
  C68      1.0000 0.13950  0.56210  0.50220  Biso   1.000  C
  C69      1.0000 0.26860  0.64400  0.93670  Biso   1.000  C
  H36      1.0000 0.25090  0.63570  0.97010  Biso   1.000  H
  C70      1.0000 0.16230  0.64390  0.63710  Biso   1.000  C
  C71      1.0000 0.32060  0.67370  0.83820  Biso   1.000  C
  H37      1.0000 0.33910  0.68610  0.80550  Biso   1.000  H
  C72      1.0000 0.37060  0.47910  0.02050  Biso   1.000  C
  C73      1.0000 0.24920  0.79780  0.65350  Biso   1.000  C
  H38      1.0000 0.28510  0.87170  0.67490  Biso   1.000  H
  C74      1.0000 0.33300  0.57610  0.95280  Biso   1.000  C
  C75      1.0000 0.11420  0.55290  0.65670  Biso   1.000  C
  C76      1.0000 0.23080  0.72260  0.87230  Biso   1.000  C
  H39      1.0000 0.18780  0.76860  0.86230  Biso   1.000  H
  C77      1.0000 0.35970  0.59250  0.90410  Biso   1.000  C
  H40      1.0000 0.40360  0.54980  0.91480  Biso   1.000  H
  C78      1.0000 0.21240  0.82080  0.75000  Biso   1.000  C
  H41      1.0000 0.23130  0.92540  0.75460  Biso   1.000  H
  H42      1.0000 0.16420  0.83000  0.74260  Biso   1.000  H
  O37      1.0000 0.16500  0.92230  0.45030  Biso   1.000  O
  O38      1.0000 0.43420  0.97100  0.89100  Biso   1.000  O
  O39      1.0000 0.06390  0.96030  0.45450  Biso   1.000  O
  O40      1.0000 0.37120  0.05120  0.77770  Biso   1.000  O
  O41      1.0000 0.41400  0.97930  0.01670  Biso   1.000  O
  O42      1.0000 0.33190  0.08470  0.03780  Biso   1.000  O
  N13      1.0000 0.28980  0.24740  0.81560  Biso   1.000  N
  N14      1.0000 0.26890  0.23130  0.91020  Biso   1.000  N
  C79      1.0000 0.24380  0.23480  0.67880  Biso   1.000  C
  C80      1.0000 0.32460  0.13560  0.92310  Biso   1.000  C
  C81      1.0000 0.36050  0.06210  0.99780  Biso   1.000  C
  C82      1.0000 0.23140  0.14400  0.56330  Biso   1.000  C
  H43      1.0000 0.24910  0.13570  0.52990  Biso   1.000  H
  C83      1.0000 0.33770  0.14390  0.86290  Biso   1.000  C
  C84      1.0000 0.17940  0.17370  0.66180  Biso   1.000  C
  H44      1.0000 0.16090  0.18610  0.69450  Biso   1.000  H
  C85      1.0000 0.12940  0.97910  0.47950  Biso   1.000  C
  C86      1.0000 0.25080  0.29780  0.84650  Biso   1.000  C
  H45      1.0000 0.21490  0.37170  0.82510  Biso   1.000  H
  C87      1.0000 0.16700  0.07610  0.54720  Biso   1.000  C
  C88      1.0000 0.38580  0.05290  0.84330  Biso   1.000  C
  C89      1.0000 0.26920  0.22260  0.62770  Biso   1.000  C
  H46      1.0000 0.31220  0.26860  0.63770  Biso   1.000  H
  C90      1.0000 0.14030  0.09250  0.59590  Biso   1.000  C
  H47      1.0000 0.09640  0.04980  0.58520  Biso   1.000  H
  C91      1.0000 0.28760  0.32080  0.75000  Biso   1.000  C
  H48      1.0000 0.26870  0.42540  0.74540  Biso   1.000  H
  H49      1.0000 0.33580  0.33000  0.75740  Biso   1.000  H
  O43      1.0000 0.66500  0.42230  0.45030  Biso   1.000  O
  O44      1.0000 0.93420  0.47100  0.89100  Biso   1.000  O
  O45      1.0000 0.56390  0.46030  0.45450  Biso   1.000  O
  O46      1.0000 0.87120  0.55120  0.77770  Biso   1.000  O
  O47      1.0000 0.91400  0.47930  0.01670  Biso   1.000  O
  O48      1.0000 0.83190  0.58470  0.03780  Biso   1.000  O
  N15      1.0000 0.78980  0.74740  0.81560  Biso   1.000  N
  N16      1.0000 0.76890  0.73130  0.91020  Biso   1.000  N
  C92      1.0000 0.74380  0.73480  0.67880  Biso   1.000  C
  C93      1.0000 0.82460  0.63560  0.92310  Biso   1.000  C
  C94      1.0000 0.86050  0.56210  0.99780  Biso   1.000  C
  C95      1.0000 0.73140  0.64400  0.56330  Biso   1.000  C
  H50      1.0000 0.74910  0.63570  0.52990  Biso   1.000  H
  C96      1.0000 0.83770  0.64390  0.86290  Biso   1.000  C
  C97      1.0000 0.67940  0.67370  0.66180  Biso   1.000  C
  H51      1.0000 0.66090  0.68610  0.69450  Biso   1.000  H
  C98      1.0000 0.62940  0.47910  0.47950  Biso   1.000  C
  C99      1.0000 0.75080  0.79780  0.84650  Biso   1.000  C
  H52      1.0000 0.71490  0.87170  0.82510  Biso   1.000  H
  C100     1.0000 0.66700  0.57610  0.54720  Biso   1.000  C
  C101     1.0000 0.88580  0.55290  0.84330  Biso   1.000  C
  C102     1.0000 0.76920  0.72260  0.62770  Biso   1.000  C
  H53      1.0000 0.81220  0.76860  0.63770  Biso   1.000  H
  C103     1.0000 0.64030  0.59250  0.59590  Biso   1.000  C
  H54      1.0000 0.59640  0.54980  0.58520  Biso   1.000  H
  C104     1.0000 0.78760  0.82080  0.75000  Biso   1.000  C
  H55      1.0000 0.76870  0.92540  0.74540  Biso   1.000  H
  H56      1.0000 0.83580  0.83000  0.75740  Biso   1.000  H
  Co1      1.0000 0.50000  0.00000  0.50000  Biso   1.000  Co
  Co2      1.0000 0.00000  0.50000  0.50000  Biso   1.000  Co
  Co3      1.0000 0.50000  0.00000  0.00000  Biso   1.000  Co
  Co4      1.0000 0.00000  0.50000  0.00000  Biso   1.000  Co
  Co5      1.0000 0.25000  0.75000  0.50000  Biso   1.000  Co
  Co6      1.0000 0.75000  0.75000  0.00000  Biso   1.000  Co
  Co7      1.0000 0.75000  0.25000  0.50000  Biso   1.000  Co
  Co8      1.0000 0.25000  0.25000  0.00000  Biso   1.000  Co
