data_TAPKAY_clean
_audit_creation_date              2014-07-02
_audit_creation_method            'Materials Studio'
_symmetry_space_group_name_H-M    'P1'
_symmetry_Int_Tables_number       1
_symmetry_cell_setting            triclinic
loop_
_symmetry_equiv_pos_as_xyz
  x,y,z
_cell_length_a                    10.7410
_cell_length_b                    11.1090
_cell_length_c                    11.9330
_cell_angle_alpha                 77.6780
_cell_angle_beta                  84.6500
_cell_angle_gamma                 75.9900
loop_
_atom_site_label
_atom_site_type_symbol
_atom_site_fract_x
_atom_site_fract_y
_atom_site_fract_z
_atom_site_U_iso_or_equiv
_atom_site_adp_type
_atom_site_occupancy
Cu1    Cu    0.54615   0.00692   0.80234   0.01267  Uiso   1.00
Cu2    Cu    0.47807   0.75665   0.93413   0.01267  Uiso   1.00
Cu3    Cu    0.49041   0.58251   0.66854   0.01267  Uiso   1.00
Cu4    Cu    0.03020   0.21568   0.06598   0.01267  Uiso   1.00
Cu5    Cu    0.45385   0.99308   0.19766   0.01267  Uiso   1.00
Cu6    Cu    0.52193   0.24335   0.06587   0.01267  Uiso   1.00
Cu7    Cu    0.50959   0.41749   0.33146   0.01267  Uiso   1.00
Cu8    Cu    0.96980   0.78432   0.93402   0.01267  Uiso   1.00
P1     P     0.42400   0.87020   0.66390   0.01267  Uiso   1.00
P2     P     0.24690   0.72510   0.80850   0.01267  Uiso   1.00
P3     P     0.48760   0.30300   0.80380   0.01267  Uiso   1.00
P4     P     0.31280   0.15180   0.94390   0.01267  Uiso   1.00
P5     P     0.57600   0.12980   0.33610   0.01267  Uiso   1.00
P6     P     0.75310   0.27490   0.19150   0.01267  Uiso   1.00
P7     P     0.51240   0.69700   0.19620   0.01267  Uiso   1.00
P8     P     0.68720   0.84820   0.05610   0.01267  Uiso   1.00
H1     H     0.13250   0.97030   0.79270   0.01267  Uiso   1.00
H2     H     0.19770   0.38070   0.92370   0.01267  Uiso   1.00
H3     H     0.08640   0.89610   0.62100   0.01267  Uiso   1.00
H4     H     0.20060   0.79960   0.57490   0.01267  Uiso   1.00
H5     H     0.31620   0.86720   0.40450   0.01267  Uiso   1.00
H6     H     0.25310   0.21690   0.24040   0.01267  Uiso   1.00
H7     H     0.11570   0.28130   0.38210   0.01267  Uiso   1.00
H8     H     0.07890   0.13290   0.54750   0.01267  Uiso   1.00
H9     H     0.16380   0.26710   0.74890   0.01267  Uiso   1.00
H10    H     0.29550   0.19380   0.70310   0.01267  Uiso   1.00
H11    H     0.08250   0.49960   0.65530   0.01267  Uiso   1.00
H12    H     0.08800   0.64500   0.48500   0.01267  Uiso   1.00
H13    H     0.25940   0.61690   0.35570   0.01267  Uiso   1.00
H14    H     0.40840   0.28870   0.54520   0.01267  Uiso   1.00
H15    H     0.86750   0.02970   0.20730   0.01267  Uiso   1.00
H16    H     0.80230   0.61930   0.07630   0.01267  Uiso   1.00
H17    H     0.91360   0.10390   0.37900   0.01267  Uiso   1.00
H18    H     0.79940   0.20040   0.42510   0.01267  Uiso   1.00
H19    H     0.68380   0.13280   0.59550   0.01267  Uiso   1.00
H20    H     0.74690   0.78310   0.75960   0.01267  Uiso   1.00
H21    H     0.88430   0.71870   0.61790   0.01267  Uiso   1.00
H22    H     0.92110   0.86710   0.45250   0.01267  Uiso   1.00
H23    H     0.83620   0.73290   0.25110   0.01267  Uiso   1.00
H24    H     0.70450   0.80620   0.29690   0.01267  Uiso   1.00
H25    H     0.91750   0.50040   0.34470   0.01267  Uiso   1.00
H26    H     0.91200   0.35500   0.51500   0.01267  Uiso   1.00
H27    H     0.74060   0.38310   0.64430   0.01267  Uiso   1.00
H28    H     0.59160   0.71130   0.45480   0.01267  Uiso   1.00
C1     C     0.25480   0.87370   0.70370   0.01267  Uiso   1.00
C2     C     0.17690   0.88130   0.59760   0.01267  Uiso   1.00
C3     C     0.19450   0.98220   0.49300   0.01267  Uiso   1.00
C4     C     0.27510   0.95180   0.40130   0.01267  Uiso   1.00
C5     C     0.23800   0.15680   0.30430   0.01267  Uiso   1.00
C6     C     0.15650   0.19620   0.38880   0.01267  Uiso   1.00
C7     C     0.13370   0.10750   0.48750   0.01267  Uiso   1.00
C8     C     0.31820   0.29110   0.82740   0.01267  Uiso   1.00
C9     C     0.25110   0.27330   0.72440   0.01267  Uiso   1.00
C10    C     0.24700   0.37770   0.61960   0.01267  Uiso   1.00
C11    C     0.14970   0.48580   0.60100   0.01267  Uiso   1.00
C12    C     0.15440   0.57320   0.50010   0.01267  Uiso   1.00
C13    C     0.25620   0.55540   0.42170   0.01267  Uiso   1.00
C14    C     0.34460   0.36300   0.53470   0.01267  Uiso   1.00
C15    C     0.74520   0.12630   0.29630   0.01267  Uiso   1.00
C16    C     0.82310   0.11870   0.40240   0.01267  Uiso   1.00
C17    C     0.80550   0.01780   0.50700   0.01267  Uiso   1.00
C18    C     0.72490   0.04820   0.59870   0.01267  Uiso   1.00
C19    C     0.76200   0.84320   0.69570   0.01267  Uiso   1.00
C20    C     0.84350   0.80380   0.61120   0.01267  Uiso   1.00
C21    C     0.86630   0.89250   0.51250   0.01267  Uiso   1.00
C22    C     0.68180   0.70890   0.17260   0.01267  Uiso   1.00
C23    C     0.74890   0.72670   0.27560   0.01267  Uiso   1.00
C24    C     0.75300   0.62230   0.38040   0.01267  Uiso   1.00
C25    C     0.85030   0.51420   0.39900   0.01267  Uiso   1.00
C26    C     0.84560   0.42680   0.49990   0.01267  Uiso   1.00
C27    C     0.74380   0.44460   0.57830   0.01267  Uiso   1.00
C28    C     0.65540   0.63700   0.46530   0.01267  Uiso   1.00
N1     N     0.29820   0.03620   0.30750   0.01267  Uiso   1.00
N2     N     0.35190   0.44930   0.43920   0.01267  Uiso   1.00
N3     N     0.70180   0.96380   0.69250   0.01267  Uiso   1.00
N4     N     0.64810   0.55070   0.56080   0.01267  Uiso   1.00
O1     O     0.48910   0.85460   0.77770   0.01267  Uiso   1.00
O2     O     0.47270   0.76010   0.60590   0.01267  Uiso   1.00
O3     O     0.43700   0.99700   0.59070   0.01267  Uiso   1.00
O4     O     0.31940   0.61540   0.75250   0.01267  Uiso   1.00
O5     O     0.30650   0.73400   0.91680   0.01267  Uiso   1.00
O6     O     0.10700   0.72110   0.82970   0.01267  Uiso   1.00
O7     O     0.19870   0.98140   0.75620   0.01267  Uiso   1.00
O8     O     0.49920   0.40500   0.70020   0.01267  Uiso   1.00
O9     O     0.56880   0.17450   0.78590   0.01267  Uiso   1.00
O10    O     0.52210   0.33790   0.91230   0.01267  Uiso   1.00
O11    O     0.38000   0.03730   0.89190   0.01267  Uiso   1.00
O12    O     0.17320   0.14920   0.97330   0.01267  Uiso   1.00
O13    O     0.38010   0.16510   0.04630   0.01267  Uiso   1.00
O14    O     0.24490   0.40230   0.86890   0.01267  Uiso   1.00
O15    O     0.51090   0.14540   0.22230   0.01267  Uiso   1.00
O16    O     0.52730   0.23990   0.39410   0.01267  Uiso   1.00
O17    O     0.56300   0.00300   0.40930   0.01267  Uiso   1.00
O18    O     0.68060   0.38460   0.24750   0.01267  Uiso   1.00
O19    O     0.69350   0.26600   0.08320   0.01267  Uiso   1.00
O20    O     0.89300   0.27890   0.17030   0.01267  Uiso   1.00
O21    O     0.80130   0.01860   0.24380   0.01267  Uiso   1.00
O22    O     0.50080   0.59500   0.29980   0.01267  Uiso   1.00
O23    O     0.43120   0.82550   0.21410   0.01267  Uiso   1.00
O24    O     0.47790   0.66210   0.08770   0.01267  Uiso   1.00
O25    O     0.62000   0.96270   0.10810   0.01267  Uiso   1.00
O26    O     0.82680   0.85080   0.02670   0.01267  Uiso   1.00
O27    O     0.61990   0.83490   0.95370   0.01267  Uiso   1.00
O28    O     0.75510   0.59770   0.13110   0.01267  Uiso   1.00
