data_TAPXIT01_clean
_audit_creation_date              2014-07-02
_audit_creation_method            'Materials Studio'
_symmetry_space_group_name_H-M    'P1'
_symmetry_Int_Tables_number       1
_symmetry_cell_setting            triclinic
loop_
_symmetry_equiv_pos_as_xyz
  x,y,z
_cell_length_a                    7.1782
_cell_length_b                    15.4441
_cell_length_c                    15.4441
_cell_angle_alpha                 119.4480
_cell_angle_beta                  90.0000
_cell_angle_gamma                 90.0000
loop_
_atom_site_label
_atom_site_type_symbol
_atom_site_fract_x
_atom_site_fract_y
_atom_site_fract_z
_atom_site_U_iso_or_equiv
_atom_site_adp_type
_atom_site_occupancy
Yb1    Yb    0.76860   0.36640   0.36640   0.01267  Uiso   1.00
Yb2    Yb    0.26860   0.63360   0.63360   0.01267  Uiso   1.00
Na1    Na    0.77480   0.67950   0.67950   0.01267  Uiso   1.00
Na2    Na    0.27480   0.32050   0.32050   0.01267  Uiso   1.00
H1     H     0.81380   0.31070   0.02430   0.01267  Uiso   1.00
H2     H     0.29170   0.30530   0.11070   0.01267  Uiso   1.00
H3     H     0.70410   0.30130   0.88030   0.01267  Uiso   1.00
H4     H     0.16880   0.29920   0.96640   0.01267  Uiso   1.00
H5     H     0.45730   0.19430   0.63510   0.01267  Uiso   1.00
H6     H     0.42450   0.47270   0.89090   0.01267  Uiso   1.00
H7     H     0.53820   0.27630   0.54930   0.01267  Uiso   1.00
H8     H     0.51760   0.54230   0.79170   0.01267  Uiso   1.00
H9     H     0.31380   0.68930   0.97570   0.01267  Uiso   1.00
H10    H     0.79170   0.69470   0.88930   0.01267  Uiso   1.00
H11    H     0.20410   0.69870   0.11970   0.01267  Uiso   1.00
H12    H     0.66880   0.70080   0.03360   0.01267  Uiso   1.00
H13    H     0.95730   0.80570   0.36490   0.01267  Uiso   1.00
H14    H     0.92450   0.52730   0.10910   0.01267  Uiso   1.00
H15    H     0.03820   0.72370   0.45070   0.01267  Uiso   1.00
H16    H     0.01760   0.45770   0.20830   0.01267  Uiso   1.00
H17    H     0.31380   0.97570   0.68930   0.01267  Uiso   1.00
H18    H     0.79170   0.88930   0.69470   0.01267  Uiso   1.00
H19    H     0.20410   0.11970   0.69870   0.01267  Uiso   1.00
H20    H     0.66880   0.03360   0.70080   0.01267  Uiso   1.00
H21    H     0.95730   0.36490   0.80570   0.01267  Uiso   1.00
H22    H     0.92450   0.10910   0.52730   0.01267  Uiso   1.00
H23    H     0.03820   0.45070   0.72370   0.01267  Uiso   1.00
H24    H     0.01760   0.20830   0.45770   0.01267  Uiso   1.00
H25    H     0.81380   0.02430   0.31070   0.01267  Uiso   1.00
H26    H     0.29170   0.11070   0.30530   0.01267  Uiso   1.00
H27    H     0.70410   0.88030   0.30130   0.01267  Uiso   1.00
H28    H     0.16880   0.96640   0.29920   0.01267  Uiso   1.00
H29    H     0.45730   0.63510   0.19430   0.01267  Uiso   1.00
H30    H     0.42450   0.89090   0.47270   0.01267  Uiso   1.00
H31    H     0.53820   0.54930   0.27630   0.01267  Uiso   1.00
H32    H     0.51760   0.79170   0.54230   0.01267  Uiso   1.00
C1     C     0.63390   0.31870   0.17670   0.01267  Uiso   1.00
C2     C     0.56630   0.31320   0.08740   0.01267  Uiso   1.00
C3     C     0.68590   0.30910   0.01410   0.01267  Uiso   1.00
C4     C     0.37400   0.30640   0.06480   0.01267  Uiso   1.00
C5     C     0.62100   0.30300   0.92740   0.01267  Uiso   1.00
C6     C     0.29600   0.30130   0.97810   0.01267  Uiso   1.00
C7     C     0.43200   0.29950   0.91170   0.01267  Uiso   1.00
C8     C     0.44600   0.32520   0.76880   0.01267  Uiso   1.00
C9     C     0.47090   0.26290   0.66650   0.01267  Uiso   1.00
C10    C     0.45200   0.43430   0.82350   0.01267  Uiso   1.00
C11    C     0.51700   0.31270   0.61750   0.01267  Uiso   1.00
C12    C     0.50400   0.47370   0.76330   0.01267  Uiso   1.00
C13    C     0.53500   0.41580   0.66480   0.01267  Uiso   1.00
C14    C     0.59070   0.46390   0.60090   0.01267  Uiso   1.00
C15    C     0.13390   0.68130   0.82330   0.01267  Uiso   1.00
C16    C     0.06630   0.68680   0.91260   0.01267  Uiso   1.00
C17    C     0.18590   0.69090   0.98590   0.01267  Uiso   1.00
C18    C     0.87400   0.69360   0.93520   0.01267  Uiso   1.00
C19    C     0.12100   0.69700   0.07260   0.01267  Uiso   1.00
C20    C     0.79600   0.69870   0.02190   0.01267  Uiso   1.00
C21    C     0.93200   0.70050   0.08830   0.01267  Uiso   1.00
C22    C     0.94600   0.67480   0.23120   0.01267  Uiso   1.00
C23    C     0.97090   0.73710   0.33350   0.01267  Uiso   1.00
C24    C     0.95200   0.56570   0.17650   0.01267  Uiso   1.00
C25    C     0.01700   0.68730   0.38250   0.01267  Uiso   1.00
C26    C     0.00400   0.52630   0.23670   0.01267  Uiso   1.00
C27    C     0.03500   0.58420   0.33520   0.01267  Uiso   1.00
C28    C     0.09070   0.53610   0.39910   0.01267  Uiso   1.00
C29    C     0.13390   0.82330   0.68130   0.01267  Uiso   1.00
C30    C     0.06630   0.91260   0.68680   0.01267  Uiso   1.00
C31    C     0.18590   0.98590   0.69090   0.01267  Uiso   1.00
C32    C     0.87400   0.93520   0.69360   0.01267  Uiso   1.00
C33    C     0.12100   0.07260   0.69700   0.01267  Uiso   1.00
C34    C     0.79600   0.02190   0.69870   0.01267  Uiso   1.00
C35    C     0.93200   0.08830   0.70050   0.01267  Uiso   1.00
C36    C     0.94600   0.23120   0.67480   0.01267  Uiso   1.00
C37    C     0.97090   0.33350   0.73710   0.01267  Uiso   1.00
C38    C     0.95200   0.17650   0.56570   0.01267  Uiso   1.00
C39    C     0.01700   0.38250   0.68730   0.01267  Uiso   1.00
C40    C     0.00400   0.23670   0.52630   0.01267  Uiso   1.00
C41    C     0.03500   0.33520   0.58420   0.01267  Uiso   1.00
C42    C     0.09070   0.39910   0.53610   0.01267  Uiso   1.00
C43    C     0.63390   0.17670   0.31870   0.01267  Uiso   1.00
C44    C     0.56630   0.08740   0.31320   0.01267  Uiso   1.00
C45    C     0.68590   0.01410   0.30910   0.01267  Uiso   1.00
C46    C     0.37400   0.06480   0.30640   0.01267  Uiso   1.00
C47    C     0.62100   0.92740   0.30300   0.01267  Uiso   1.00
C48    C     0.29600   0.97810   0.30130   0.01267  Uiso   1.00
C49    C     0.43200   0.91170   0.29950   0.01267  Uiso   1.00
C50    C     0.44600   0.76880   0.32520   0.01267  Uiso   1.00
C51    C     0.47090   0.66650   0.26290   0.01267  Uiso   1.00
C52    C     0.45200   0.82350   0.43430   0.01267  Uiso   1.00
C53    C     0.51700   0.61750   0.31270   0.01267  Uiso   1.00
C54    C     0.50400   0.76330   0.47370   0.01267  Uiso   1.00
C55    C     0.53500   0.66480   0.41580   0.01267  Uiso   1.00
C56    C     0.59070   0.60090   0.46390   0.01267  Uiso   1.00
O1     O     0.77500   0.31200   0.19140   0.01267  Uiso   1.00
O2     O     0.52920   0.33410   0.24770   0.01267  Uiso   1.00
O3     O     0.35180   0.27930   0.81850   0.01267  Uiso   1.00
O4     O     0.66860   0.41350   0.52090   0.01267  Uiso   1.00
O5     O     0.54620   0.56060   0.64060   0.01267  Uiso   1.00
O6     O     0.27500   0.68800   0.80860   0.01267  Uiso   1.00
O7     O     0.02920   0.66590   0.75230   0.01267  Uiso   1.00
O8     O     0.85180   0.72070   0.18150   0.01267  Uiso   1.00
O9     O     0.16860   0.58650   0.47910   0.01267  Uiso   1.00
O10    O     0.04620   0.43940   0.35940   0.01267  Uiso   1.00
O11    O     0.27500   0.80860   0.68800   0.01267  Uiso   1.00
O12    O     0.02920   0.75230   0.66590   0.01267  Uiso   1.00
O13    O     0.85180   0.18150   0.72070   0.01267  Uiso   1.00
O14    O     0.16860   0.47910   0.58650   0.01267  Uiso   1.00
O15    O     0.04620   0.35940   0.43940   0.01267  Uiso   1.00
O16    O     0.77500   0.19140   0.31200   0.01267  Uiso   1.00
O17    O     0.52920   0.24770   0.33410   0.01267  Uiso   1.00
O18    O     0.35180   0.81850   0.27930   0.01267  Uiso   1.00
O19    O     0.66860   0.52090   0.41350   0.01267  Uiso   1.00
O20    O     0.54620   0.64060   0.56060   0.01267  Uiso   1.00
