data_TAQGEZ_clean
_audit_creation_date              2014-07-02
_audit_creation_method            'Materials Studio'
_symmetry_space_group_name_H-M    'P1'
_symmetry_Int_Tables_number       1
_symmetry_cell_setting            triclinic
loop_
_symmetry_equiv_pos_as_xyz
  x,y,z
_cell_length_a                    7.6111
_cell_length_b                    14.2391
_cell_length_c                    14.2391
_cell_angle_alpha                 61.5578
_cell_angle_beta                  74.4986
_cell_angle_gamma                 74.4986
loop_
_atom_site_label
_atom_site_type_symbol
_atom_site_fract_x
_atom_site_fract_y
_atom_site_fract_z
_atom_site_U_iso_or_equiv
_atom_site_adp_type
_atom_site_occupancy
Cd1    Cd    0.50000  -0.00000  -0.00000   0.01267  Uiso   1.00
Cd2    Cd    0.00000   0.00000   0.00000   0.01267  Uiso   1.00
H1     H     0.30710   0.41650   0.99810   0.01267  Uiso   1.00
H2     H     0.19290   0.00190   0.58350   0.01267  Uiso   1.00
H3     H     0.22170   0.58350   0.00190   0.01267  Uiso   1.00
H4     H     0.27830   0.99810   0.41650   0.01267  Uiso   1.00
H5     H     0.69290   0.58350   0.00190   0.01267  Uiso   1.00
H6     H     0.80710   0.99810   0.41650   0.01267  Uiso   1.00
H7     H     0.77830   0.41650   0.99810   0.01267  Uiso   1.00
H8     H     0.72170   0.00190   0.58350   0.01267  Uiso   1.00
C1     C     0.18130   0.45040   0.99880   0.01267  Uiso   1.00
C2     C     0.31870   0.00120   0.54960   0.01267  Uiso   1.00
C3     C     0.13050   0.54960   0.00120   0.01267  Uiso   1.00
C4     C     0.36950   0.99880   0.45040   0.01267  Uiso   1.00
C5     C     0.81870   0.54960   0.00120   0.01267  Uiso   1.00
C6     C     0.68130   0.99880   0.45040   0.01267  Uiso   1.00
C7     C     0.86950   0.45040   0.99880   0.01267  Uiso   1.00
C8     C     0.63050   0.00120   0.54960   0.01267  Uiso   1.00
C9     C     0.10620   0.29040   0.99720   0.01267  Uiso   1.00
C10    C     0.05160   0.39970   0.99710   0.01267  Uiso   1.00
C11    C     0.39380   0.00280   0.70960   0.01267  Uiso   1.00
C12    C     0.44840   0.00290   0.60030   0.01267  Uiso   1.00
C13    C     0.89380   0.70960   0.00280   0.01267  Uiso   1.00
C14    C     0.94840   0.60030   0.00290   0.01267  Uiso   1.00
C15    C     0.60620   0.99720   0.29040   0.01267  Uiso   1.00
C16    C     0.55160   0.99710   0.39970   0.01267  Uiso   1.00
N1     N     0.26573   0.14597   0.99597   0.01267  Uiso   1.00
N2     N     0.27805   0.23665   0.99805   0.01267  Uiso   1.00
N3     N     0.23427   0.00403   0.85403   0.01267  Uiso   1.00
N4     N     0.22195   0.00195   0.76335   0.01267  Uiso   1.00
N5     N     0.90767   0.85403   0.00403   0.01267  Uiso   1.00
N6     N     0.01275   0.76335   0.00195   0.01267  Uiso   1.00
N7     N     0.59233   0.99597   0.14597   0.01267  Uiso   1.00
N8     N     0.48725   0.99805   0.23665   0.01267  Uiso   1.00
N9     N     0.73427   0.85403   0.00403   0.01267  Uiso   1.00
N10    N     0.72195   0.76335   0.00195   0.01267  Uiso   1.00
N11    N     0.76573   0.99597   0.14597   0.01267  Uiso   1.00
N12    N     0.77805   0.99805   0.23665   0.01267  Uiso   1.00
N13    N     0.09233   0.14597   0.99597   0.01267  Uiso   1.00
N14    N     0.98725   0.23665   0.99805   0.01267  Uiso   1.00
N15    N     0.40767   0.00403   0.85403   0.01267  Uiso   1.00
N16    N     0.51275   0.00195   0.76335   0.01267  Uiso   1.00
Cl1    Cl    0.25000   0.87655   0.12345   0.01267  Uiso   1.00
Cl2    Cl    0.75000   0.12345   0.87655   0.01267  Uiso   1.00
