data_image0
_cell_length_a       9.1091
_cell_length_b       15.2324
_cell_length_c       15.587
_cell_angle_alpha    102.771
_cell_angle_beta     95.335
_cell_angle_gamma    104.33

_symmetry_space_group_name_H-M    "P 1"
_symmetry_int_tables_number       1

loop_
  _symmetry_equiv_pos_as_xyz
  'x, y, z'

loop_
  _atom_site_label
  _atom_site_occupancy
  _atom_site_fract_x
  _atom_site_fract_y
  _atom_site_fract_z
  _atom_site_thermal_displace_type
  _atom_site_B_iso_or_equiv
  _atom_site_type_symbol
  Co1      1.0000 0.50805  0.25374  0.28367  Biso   1.000  Co
  Cr1      1.0000 0.17441  0.34802  0.30495  Biso   1.000  Cr
  O1       1.0000 0.31460  0.29910  0.29150  Biso   1.000  O
  N1       1.0000 0.64500  0.39520  0.29760  Biso   1.000  N
  C1       1.0000 0.58910  0.45440  0.26080  Biso   1.000  C
  H1       1.0000 0.48370  0.43540  0.23570  Biso   1.000  H
  Cr2      1.0000 0.85997  0.17628  0.28251  Biso   1.000  Cr
  N2       1.0000 0.53930  0.26970  0.42410  Biso   1.000  N
  C2       1.0000 0.67640  0.54110  0.25740  Biso   1.000  C
  H2       1.0000 0.63090  0.57980  0.22980  Biso   1.000  H
  N3       1.0000 0.37170  0.11180  0.27130  Biso   1.000  N
  C3       1.0000 0.83040  0.57210  0.29410  Biso   1.000  C
  O2       1.0000 0.01990  0.27070  0.33670  Biso   1.000  O
  N4       1.0000 0.47410  0.23680  0.14190  Biso   1.000  N
  C4       1.0000 0.88920  0.51160  0.33240  Biso   1.000  C
  H3       1.0000 0.99470  0.52820  0.35690  Biso   1.000  H
  C5       1.0000 0.79090  0.42560  0.33440  Biso   1.000  C
  H4       1.0000 0.83170  0.38670  0.36420  Biso   1.000  H
  C6       1.0000 0.92720  0.66530  0.29060  Biso   1.000  C
  O3       1.0000 0.70690  0.21360  0.27820  Biso   1.000  O
  C7       1.0000 0.98420  0.73710  0.36810  Biso   1.000  C
  C8       1.0000 0.07240  0.82540  0.36220  Biso   1.000  C
  C9       1.0000 0.09890  0.83930  0.27950  Biso   1.000  C
  C10      1.0000 0.04160  0.76740  0.20170  Biso   1.000  C
  C11      1.0000 0.95370  0.67930  0.20680  Biso   1.000  C
  C12      1.0000 0.95020  0.72220  0.45750  Biso   1.000  C
  H5       1.0000 0.86870  0.66380  0.44890  Biso   1.000  H
  H6       1.0000 0.91690  0.77480  0.49000  Biso   1.000  H
  H7       1.0000 0.04300  0.71820  0.49190  Biso   1.000  H
  C13      1.0000 0.13170  0.90250  0.44750  Biso   1.000  C
  H8       1.0000 0.21990  0.94970  0.43860  Biso   1.000  H
  H9       1.0000 0.16300  0.87580  0.49550  Biso   1.000  H
  H10      1.0000 0.05030  0.93190  0.46350  Biso   1.000  H
  C14      1.0000 0.06960  0.78550  0.11080  Biso   1.000  C
  H11      1.0000 0.97280  0.76180  0.06930  Biso   1.000  H
  H12      1.0000 0.14390  0.75320  0.08760  Biso   1.000  H
  H13      1.0000 0.11010  0.85290  0.11750  Biso   1.000  H
  C15      1.0000 0.89290  0.60060  0.12280  Biso   1.000  C
  H14      1.0000 0.89880  0.54120  0.13550  Biso   1.000  H
  H15      1.0000 0.95470  0.61300  0.07640  Biso   1.000  H
  H16      1.0000 0.78590  0.59660  0.10230  Biso   1.000  H
  C16      1.0000 0.19290  0.93280  0.27510  Biso   1.000  C
  C17      1.0000 0.14220  0.01200  0.29620  Biso   1.000  C
  H17      1.0000 0.04200  0.00650  0.31090  Biso   1.000  H
  C18      1.0000 0.23400  0.09900  0.29640  Biso   1.000  C
  H18      1.0000 0.19710  0.15210  0.31520  Biso   1.000  H
  C19      1.0000 0.33860  0.94770  0.25030  Biso   1.000  C
  H19      1.0000 0.38060  0.89640  0.23380  Biso   1.000  H
  C20      1.0000 0.42170  0.03590  0.24930  Biso   1.000  C
  H20      1.0000 0.52040  0.04320  0.23200  Biso   1.000  H
  C21      1.0000 0.49610  0.33570  0.47920  Biso   1.000  C
  H21      1.0000 0.47010  0.38370  0.45630  Biso   1.000  H
  C22      1.0000 0.48690  0.33830  0.56760  Biso   1.000  C
  H22      1.0000 0.45640  0.38750  0.60370  Biso   1.000  H
  C23      1.0000 0.52160  0.27020  0.60360  Biso   1.000  C
  C24      1.0000 0.57380  0.20410  0.54720  Biso   1.000  C
  H23      1.0000 0.60660  0.15770  0.56950  Biso   1.000  H
  C25      1.0000 0.57820  0.20530  0.46000  Biso   1.000  C
  H24      1.0000 0.61080  0.15770  0.42300  Biso   1.000  H
  C26      1.0000 0.50590  0.26600  0.69670  Biso   1.000  C
  C27      1.0000 0.39410  0.19190  0.71280  Biso   1.000  C
  C28      1.0000 0.38300  0.18600  0.80060  Biso   1.000  C
  C29      1.0000 0.47990  0.25450  0.87130  Biso   1.000  C
  C30      1.0000 0.58960  0.33040  0.85500  Biso   1.000  C
  C31      1.0000 0.60570  0.33460  0.76790  Biso   1.000  C
  C32      1.0000 0.28530  0.11960  0.63690  Biso   1.000  C
  H25      1.0000 0.31360  0.06060  0.62830  Biso   1.000  H
  H26      1.0000 0.29090  0.14140  0.58240  Biso   1.000  H
  H27      1.0000 0.18050  0.10960  0.65050  Biso   1.000  H
  C33      1.0000 0.26760  0.10460  0.81870  Biso   1.000  C
  H28      1.0000 0.16750  0.11770  0.81840  Biso   1.000  H
  H29      1.0000 0.30150  0.09600  0.87710  Biso   1.000  H
  H30      1.0000 0.25900  0.04760  0.77250  Biso   1.000  H
  C34      1.0000 0.73100  0.41200  0.75040  Biso   1.000  C
  H31      1.0000 0.69550  0.46830  0.75460  Biso   1.000  H
  H32      1.0000 0.75560  0.39160  0.69060  Biso   1.000  H
  H33      1.0000 0.82280  0.42600  0.79470  Biso   1.000  H
  C35      1.0000 0.68650  0.40880  0.93290  Biso   1.000  C
  H34      1.0000 0.79520  0.41240  0.93210  Biso   1.000  H
  H35      1.0000 0.65790  0.39600  0.98890  Biso   1.000  H
  H36      1.0000 0.66870  0.46840  0.92790  Biso   1.000  H
  C36      1.0000 0.47390  0.24630  0.96450  Biso   1.000  C
  C37      1.0000 0.36910  0.27500  0.01510  Biso   1.000  C
  H37      1.0000 0.29470  0.29960  0.98940  Biso   1.000  H
  C38      1.0000 0.37060  0.26870  0.10100  Biso   1.000  C
  H38      1.0000 0.29520  0.28770  0.13300  Biso   1.000  H
  C39      1.0000 0.57580  0.20850  0.00560  Biso   1.000  C
  H39      1.0000 0.64770  0.18490  0.97380  Biso   1.000  H
  C40      1.0000 0.57210  0.20530  0.09380  Biso   1.000  C
  H40      1.0000 0.64300  0.17940  0.12100  Biso   1.000  H
  Co2      1.0000 0.49195  0.74626  0.71633  Biso   1.000  Co
  Cr3      1.0000 0.82559  0.65198  0.69505  Biso   1.000  Cr
  O4       1.0000 0.68540  0.70090  0.70850  Biso   1.000  O
  N5       1.0000 0.35500  0.60480  0.70240  Biso   1.000  N
  C41      1.0000 0.41090  0.54560  0.73920  Biso   1.000  C
  H41      1.0000 0.51630  0.56460  0.76430  Biso   1.000  H
  Cr4      1.0000 0.14003  0.82372  0.71749  Biso   1.000  Cr
  N6       1.0000 0.46070  0.73030  0.57590  Biso   1.000  N
  C42      1.0000 0.32360  0.45890  0.74260  Biso   1.000  C
  H42      1.0000 0.36910  0.42020  0.77020  Biso   1.000  H
  N7       1.0000 0.62830  0.88820  0.72870  Biso   1.000  N
  C43      1.0000 0.16960  0.42790  0.70590  Biso   1.000  C
  O5       1.0000 0.98010  0.72930  0.66330  Biso   1.000  O
  N8       1.0000 0.52590  0.76320  0.85810  Biso   1.000  N
  C44      1.0000 0.11080  0.48840  0.66760  Biso   1.000  C
  H43      1.0000 0.00530  0.47180  0.64310  Biso   1.000  H
  C45      1.0000 0.20910  0.57440  0.66560  Biso   1.000  C
  H44      1.0000 0.16830  0.61330  0.63580  Biso   1.000  H
  C46      1.0000 0.07280  0.33470  0.70940  Biso   1.000  C
  O6       1.0000 0.29310  0.78640  0.72180  Biso   1.000  O
  C47      1.0000 0.01580  0.26290  0.63190  Biso   1.000  C
  C48      1.0000 0.92760  0.17460  0.63780  Biso   1.000  C
  C49      1.0000 0.90110  0.16070  0.72050  Biso   1.000  C
  C50      1.0000 0.95840  0.23260  0.79830  Biso   1.000  C
  C51      1.0000 0.04630  0.32070  0.79320  Biso   1.000  C
  C52      1.0000 0.04980  0.27780  0.54250  Biso   1.000  C
  H45      1.0000 0.13130  0.33620  0.55110  Biso   1.000  H
  H46      1.0000 0.08310  0.22520  0.51000  Biso   1.000  H
  H47      1.0000 0.95700  0.28180  0.50810  Biso   1.000  H
  C53      1.0000 0.86830  0.09750  0.55250  Biso   1.000  C
  H48      1.0000 0.78010  0.05030  0.56140  Biso   1.000  H
  H49      1.0000 0.83700  0.12420  0.50450  Biso   1.000  H
  H50      1.0000 0.94970  0.06810  0.53650  Biso   1.000  H
  C54      1.0000 0.93040  0.21450  0.88920  Biso   1.000  C
  H51      1.0000 0.02720  0.23820  0.93070  Biso   1.000  H
  H52      1.0000 0.85610  0.24680  0.91240  Biso   1.000  H
  H53      1.0000 0.88990  0.14710  0.88250  Biso   1.000  H
  C55      1.0000 0.10710  0.39940  0.87720  Biso   1.000  C
  H54      1.0000 0.10120  0.45880  0.86450  Biso   1.000  H
  H55      1.0000 0.04530  0.38700  0.92360  Biso   1.000  H
  H56      1.0000 0.21410  0.40340  0.89770  Biso   1.000  H
  C56      1.0000 0.80710  0.06720  0.72490  Biso   1.000  C
  C57      1.0000 0.85780  0.98800  0.70380  Biso   1.000  C
  H57      1.0000 0.95800  0.99350  0.68910  Biso   1.000  H
  C58      1.0000 0.76600  0.90100  0.70360  Biso   1.000  C
  H58      1.0000 0.80290  0.84790  0.68480  Biso   1.000  H
  C59      1.0000 0.66140  0.05230  0.74970  Biso   1.000  C
  H59      1.0000 0.61940  0.10360  0.76620  Biso   1.000  H
  C60      1.0000 0.57830  0.96410  0.75070  Biso   1.000  C
  H60      1.0000 0.47960  0.95680  0.76800  Biso   1.000  H
  C61      1.0000 0.50390  0.66430  0.52080  Biso   1.000  C
  H61      1.0000 0.52990  0.61630  0.54370  Biso   1.000  H
  C62      1.0000 0.51310  0.66170  0.43240  Biso   1.000  C
  H62      1.0000 0.54360  0.61250  0.39630  Biso   1.000  H
  C63      1.0000 0.47840  0.72980  0.39640  Biso   1.000  C
  C64      1.0000 0.42620  0.79590  0.45280  Biso   1.000  C
  H63      1.0000 0.39340  0.84230  0.43050  Biso   1.000  H
  C65      1.0000 0.42180  0.79470  0.54000  Biso   1.000  C
  H64      1.0000 0.38920  0.84230  0.57700  Biso   1.000  H
  C66      1.0000 0.49410  0.73400  0.30330  Biso   1.000  C
  C67      1.0000 0.60590  0.80810  0.28720  Biso   1.000  C
  C68      1.0000 0.61700  0.81400  0.19940  Biso   1.000  C
  C69      1.0000 0.52010  0.74550  0.12870  Biso   1.000  C
  C70      1.0000 0.41040  0.66960  0.14500  Biso   1.000  C
  C71      1.0000 0.39430  0.66540  0.23210  Biso   1.000  C
  C72      1.0000 0.71470  0.88040  0.36310  Biso   1.000  C
  H65      1.0000 0.68640  0.93940  0.37170  Biso   1.000  H
  H66      1.0000 0.70910  0.85860  0.41760  Biso   1.000  H
  H67      1.0000 0.81950  0.89040  0.34950  Biso   1.000  H
  C73      1.0000 0.73240  0.89540  0.18130  Biso   1.000  C
  H68      1.0000 0.83250  0.88230  0.18160  Biso   1.000  H
  H69      1.0000 0.69850  0.90400  0.12290  Biso   1.000  H
  H70      1.0000 0.74100  0.95240  0.22750  Biso   1.000  H
  C74      1.0000 0.26900  0.58800  0.24960  Biso   1.000  C
  H71      1.0000 0.30450  0.53170  0.24540  Biso   1.000  H
  H72      1.0000 0.24440  0.60840  0.30940  Biso   1.000  H
  H73      1.0000 0.17720  0.57400  0.20530  Biso   1.000  H
  C75      1.0000 0.31350  0.59120  0.06710  Biso   1.000  C
  H74      1.0000 0.20480  0.58760  0.06790  Biso   1.000  H
  H75      1.0000 0.34210  0.60400  0.01110  Biso   1.000  H
  H76      1.0000 0.33130  0.53160  0.07210  Biso   1.000  H
  C76      1.0000 0.52610  0.75370  0.03550  Biso   1.000  C
  C77      1.0000 0.63090  0.72500  0.98490  Biso   1.000  C
  H77      1.0000 0.70530  0.70040  0.01060  Biso   1.000  H
  C78      1.0000 0.62940  0.73130  0.89900  Biso   1.000  C
  H78      1.0000 0.70480  0.71230  0.86700  Biso   1.000  H
  C79      1.0000 0.42420  0.79150  0.99440  Biso   1.000  C
  H79      1.0000 0.35230  0.81510  0.02620  Biso   1.000  H
  C80      1.0000 0.42790  0.79470  0.90620  Biso   1.000  C
  H80      1.0000 0.35700  0.82060  0.87900  Biso   1.000  H
