data_image0
_cell_length_a       24.3226
_cell_length_b       18.4617
_cell_length_c       8.8768
_cell_angle_alpha    90
_cell_angle_beta     108.493
_cell_angle_gamma    90

_symmetry_space_group_name_H-M    "P 1"
_symmetry_int_tables_number       1

loop_
  _symmetry_equiv_pos_as_xyz
  'x, y, z'

loop_
  _atom_site_label
  _atom_site_occupancy
  _atom_site_fract_x
  _atom_site_fract_y
  _atom_site_fract_z
  _atom_site_thermal_displace_type
  _atom_site_B_iso_or_equiv
  _atom_site_type_symbol
  O1       1.0000 0.46390  0.78350  0.92910  Biso   1.000  O
  N1       1.0000 0.43940  0.70220  0.62440  Biso   1.000  N
  N2       1.0000 0.56260  0.86070  0.87470  Biso   1.000  N
  C1       1.0000 0.41370  0.65600  0.69500  Biso   1.000  C
  C2       1.0000 0.42020  0.70510  0.46490  Biso   1.000  C
  Cr1      1.0000 0.55656  0.79404  0.41660  Biso   1.000  Cr
  C3       1.0000 0.36770  0.61290  0.61230  Biso   1.000  C
  H1       1.0000 0.42751  0.65245  0.80759  Biso   1.000  H
  H2       1.0000 0.43828  0.73776  0.41242  Biso   1.000  H
  C4       1.0000 0.37540  0.66250  0.37450  Biso   1.000  C
  H3       1.0000 0.35040  0.58050  0.66718  Biso   1.000  H
  C5       1.0000 0.34670  0.61750  0.44500  Biso   1.000  C
  H4       1.0000 0.36440  0.66460  0.26190  Biso   1.000  H
  C6       1.0000 0.29590  0.57420  0.35000  Biso   1.000  C
  C7       1.0000 0.29510  0.49940  0.37760  Biso   1.000  C
  C8       1.0000 0.24930  0.60600  0.23580  Biso   1.000  C
  H5       1.0000 0.32675  0.47825  0.45781  Biso   1.000  H
  C9       1.0000 0.24970  0.45490  0.29160  Biso   1.000  C
  C10      1.0000 0.20360  0.56150  0.15000  Biso   1.000  C
  C11      1.0000 0.24350  0.68800  0.20670  Biso   1.000  C
  C12      1.0000 0.20360  0.48750  0.17420  Biso   1.000  C
  C13      1.0000 0.25170  0.37580  0.32370  Biso   1.000  C
  H6       1.0000 0.17135  0.58278  0.07226  Biso   1.000  H
  H7       1.0000 0.25325  0.71340  0.30879  Biso   1.000  H
  H8       1.0000 0.20353  0.69959  0.14317  Biso   1.000  H
  H9       1.0000 0.26996  0.70347  0.14955  Biso   1.000  H
  C14      1.0000 0.15470  0.44400  0.07440  Biso   1.000  C
  H10      1.0000 0.21504  0.36044  0.33743  Biso   1.000  H
  H11      1.0000 0.28371  0.36527  0.42075  Biso   1.000  H
  H12      1.0000 0.25772  0.34966  0.23418  Biso   1.000  H
  C15      1.0000 0.09710  0.45580  0.07200  Biso   1.000  C
  C16      1.0000 0.16380  0.39190  0.97340  Biso   1.000  C
  C17      1.0000 0.05270  0.41250  0.96950  Biso   1.000  C
  H13      1.0000 0.08828  0.49184  0.13731  Biso   1.000  H
  C18      1.0000 0.11890  0.35300  0.87660  Biso   1.000  C
  H14      1.0000 0.20205  0.38306  0.97133  Biso   1.000  H
  H15      1.0000 0.01395  0.42049  0.96762  Biso   1.000  H
  H16      1.0000 0.12700  0.31871  0.80662  Biso   1.000  H
  O2       1.0000 0.96390  0.28350  0.92910  Biso   1.000  O
  N3       1.0000 0.93940  0.20220  0.62440  Biso   1.000  N
  N4       1.0000 0.06260  0.36070  0.87470  Biso   1.000  N
  C19      1.0000 0.91370  0.15600  0.69500  Biso   1.000  C
  C20      1.0000 0.92020  0.20510  0.46490  Biso   1.000  C
  Cr2      1.0000 0.05656  0.29404  0.41660  Biso   1.000  Cr
  C21      1.0000 0.86770  0.11290  0.61230  Biso   1.000  C
  H17      1.0000 0.92751  0.15245  0.80759  Biso   1.000  H
  H18      1.0000 0.93828  0.23776  0.41242  Biso   1.000  H
  C22      1.0000 0.87540  0.16250  0.37450  Biso   1.000  C
  H19      1.0000 0.85040  0.08050  0.66718  Biso   1.000  H
  C23      1.0000 0.84670  0.11750  0.44500  Biso   1.000  C
  H20      1.0000 0.86440  0.16460  0.26190  Biso   1.000  H
  C24      1.0000 0.79590  0.07420  0.35000  Biso   1.000  C
  C25      1.0000 0.79510  0.99940  0.37760  Biso   1.000  C
  C26      1.0000 0.74930  0.10600  0.23580  Biso   1.000  C
  H21      1.0000 0.82675  0.97825  0.45781  Biso   1.000  H
  C27      1.0000 0.74970  0.95490  0.29160  Biso   1.000  C
  C28      1.0000 0.70360  0.06150  0.15000  Biso   1.000  C
  C29      1.0000 0.74350  0.18800  0.20670  Biso   1.000  C
  C30      1.0000 0.70360  0.98750  0.17420  Biso   1.000  C
  C31      1.0000 0.75170  0.87580  0.32370  Biso   1.000  C
  H22      1.0000 0.67135  0.08278  0.07226  Biso   1.000  H
  H23      1.0000 0.75325  0.21340  0.30879  Biso   1.000  H
  H24      1.0000 0.70353  0.19959  0.14317  Biso   1.000  H
  H25      1.0000 0.76996  0.20347  0.14955  Biso   1.000  H
  C32      1.0000 0.65470  0.94400  0.07440  Biso   1.000  C
  H26      1.0000 0.71504  0.86044  0.33743  Biso   1.000  H
  H27      1.0000 0.78371  0.86527  0.42075  Biso   1.000  H
  H28      1.0000 0.75772  0.84966  0.23418  Biso   1.000  H
  C33      1.0000 0.59710  0.95580  0.07200  Biso   1.000  C
  C34      1.0000 0.66380  0.89190  0.97340  Biso   1.000  C
  C35      1.0000 0.55270  0.91250  0.96950  Biso   1.000  C
  H29      1.0000 0.58828  0.99184  0.13731  Biso   1.000  H
  C36      1.0000 0.61890  0.85300  0.87660  Biso   1.000  C
  H30      1.0000 0.70205  0.88306  0.97133  Biso   1.000  H
  H31      1.0000 0.51395  0.92049  0.96762  Biso   1.000  H
  H32      1.0000 0.62700  0.81871  0.80662  Biso   1.000  H
  O3       1.0000 0.53610  0.78350  0.57090  Biso   1.000  O
  N5       1.0000 0.56060  0.70220  0.87560  Biso   1.000  N
  N6       1.0000 0.43740  0.86070  0.62530  Biso   1.000  N
  C37      1.0000 0.58630  0.65600  0.80500  Biso   1.000  C
  C38      1.0000 0.57980  0.70510  0.03510  Biso   1.000  C
  Cr3      1.0000 0.44344  0.79404  0.08340  Biso   1.000  Cr
  C39      1.0000 0.63230  0.61290  0.88770  Biso   1.000  C
  H33      1.0000 0.57249  0.65245  0.69241  Biso   1.000  H
  H34      1.0000 0.56172  0.73776  0.08758  Biso   1.000  H
  C40      1.0000 0.62460  0.66250  0.12550  Biso   1.000  C
  H35      1.0000 0.64960  0.58050  0.83282  Biso   1.000  H
  C41      1.0000 0.65330  0.61750  0.05500  Biso   1.000  C
  H36      1.0000 0.63560  0.66460  0.23810  Biso   1.000  H
  C42      1.0000 0.70410  0.57420  0.15000  Biso   1.000  C
  C43      1.0000 0.70490  0.49940  0.12240  Biso   1.000  C
  C44      1.0000 0.75070  0.60600  0.26420  Biso   1.000  C
  H37      1.0000 0.67325  0.47825  0.04219  Biso   1.000  H
  C45      1.0000 0.75030  0.45490  0.20840  Biso   1.000  C
  C46      1.0000 0.79640  0.56150  0.35000  Biso   1.000  C
  C47      1.0000 0.75650  0.68800  0.29330  Biso   1.000  C
  C48      1.0000 0.79640  0.48750  0.32580  Biso   1.000  C
  C49      1.0000 0.74830  0.37580  0.17630  Biso   1.000  C
  H38      1.0000 0.82865  0.58278  0.42774  Biso   1.000  H
  H39      1.0000 0.74675  0.71340  0.19121  Biso   1.000  H
  H40      1.0000 0.79647  0.69959  0.35683  Biso   1.000  H
  H41      1.0000 0.73004  0.70347  0.35045  Biso   1.000  H
  C50      1.0000 0.84530  0.44400  0.42560  Biso   1.000  C
  H42      1.0000 0.78496  0.36044  0.16257  Biso   1.000  H
  H43      1.0000 0.71629  0.36527  0.07925  Biso   1.000  H
  H44      1.0000 0.74228  0.34966  0.26582  Biso   1.000  H
  C51      1.0000 0.90290  0.45580  0.42800  Biso   1.000  C
  C52      1.0000 0.83620  0.39190  0.52660  Biso   1.000  C
  C53      1.0000 0.94730  0.41250  0.53050  Biso   1.000  C
  H45      1.0000 0.91172  0.49184  0.36269  Biso   1.000  H
  C54      1.0000 0.88110  0.35300  0.62340  Biso   1.000  C
  H46      1.0000 0.79795  0.38306  0.52867  Biso   1.000  H
  H47      1.0000 0.98605  0.42049  0.53238  Biso   1.000  H
  H48      1.0000 0.87300  0.31871  0.69338  Biso   1.000  H
  O4       1.0000 0.03610  0.28350  0.57090  Biso   1.000  O
  N7       1.0000 0.06060  0.20220  0.87560  Biso   1.000  N
  N8       1.0000 0.93740  0.36070  0.62530  Biso   1.000  N
  C55      1.0000 0.08630  0.15600  0.80500  Biso   1.000  C
  C56      1.0000 0.07980  0.20510  0.03510  Biso   1.000  C
  Cr4      1.0000 0.94344  0.29404  0.08340  Biso   1.000  Cr
  C57      1.0000 0.13230  0.11290  0.88770  Biso   1.000  C
  H49      1.0000 0.07249  0.15245  0.69241  Biso   1.000  H
  H50      1.0000 0.06172  0.23776  0.08758  Biso   1.000  H
  C58      1.0000 0.12460  0.16250  0.12550  Biso   1.000  C
  H51      1.0000 0.14960  0.08050  0.83282  Biso   1.000  H
  C59      1.0000 0.15330  0.11750  0.05500  Biso   1.000  C
  H52      1.0000 0.13560  0.16460  0.23810  Biso   1.000  H
  C60      1.0000 0.20410  0.07420  0.15000  Biso   1.000  C
  C61      1.0000 0.20490  0.99940  0.12240  Biso   1.000  C
  C62      1.0000 0.25070  0.10600  0.26420  Biso   1.000  C
  H53      1.0000 0.17325  0.97825  0.04219  Biso   1.000  H
  C63      1.0000 0.25030  0.95490  0.20840  Biso   1.000  C
  C64      1.0000 0.29640  0.06150  0.35000  Biso   1.000  C
  C65      1.0000 0.25650  0.18800  0.29330  Biso   1.000  C
  C66      1.0000 0.29640  0.98750  0.32580  Biso   1.000  C
  C67      1.0000 0.24830  0.87580  0.17630  Biso   1.000  C
  H54      1.0000 0.32865  0.08278  0.42774  Biso   1.000  H
  H55      1.0000 0.24675  0.21340  0.19121  Biso   1.000  H
  H56      1.0000 0.29647  0.19959  0.35683  Biso   1.000  H
  H57      1.0000 0.23004  0.20347  0.35045  Biso   1.000  H
  C68      1.0000 0.34530  0.94400  0.42560  Biso   1.000  C
  H58      1.0000 0.28496  0.86044  0.16257  Biso   1.000  H
  H59      1.0000 0.21629  0.86527  0.07925  Biso   1.000  H
  H60      1.0000 0.24228  0.84966  0.26582  Biso   1.000  H
  C69      1.0000 0.40290  0.95580  0.42800  Biso   1.000  C
  C70      1.0000 0.33620  0.89190  0.52660  Biso   1.000  C
  C71      1.0000 0.44730  0.91250  0.53050  Biso   1.000  C
  H61      1.0000 0.41172  0.99184  0.36269  Biso   1.000  H
  C72      1.0000 0.38110  0.85300  0.62340  Biso   1.000  C
  H62      1.0000 0.29795  0.88306  0.52867  Biso   1.000  H
  H63      1.0000 0.48605  0.92049  0.53238  Biso   1.000  H
  H64      1.0000 0.37300  0.81871  0.69338  Biso   1.000  H
  Co1      1.0000 0.50000  0.78312  0.75000  Biso   1.000  Co
  Co2      1.0000 0.00000  0.28312  0.75000  Biso   1.000  Co
  O5       1.0000 0.50000  0.76250  0.25000  Biso   1.000  O
  O6       1.0000 0.00000  0.26250  0.25000  Biso   1.000  O
  O7       1.0000 0.53610  0.21650  0.07090  Biso   1.000  O
  N9       1.0000 0.56060  0.29780  0.37560  Biso   1.000  N
  N10      1.0000 0.43740  0.13930  0.12530  Biso   1.000  N
  C73      1.0000 0.58630  0.34400  0.30500  Biso   1.000  C
  C74      1.0000 0.57980  0.29490  0.53510  Biso   1.000  C
  Cr5      1.0000 0.44344  0.20596  0.58340  Biso   1.000  Cr
  C75      1.0000 0.63230  0.38710  0.38770  Biso   1.000  C
  H65      1.0000 0.57249  0.34755  0.19241  Biso   1.000  H
  H66      1.0000 0.56172  0.26224  0.58758  Biso   1.000  H
  C76      1.0000 0.62460  0.33750  0.62550  Biso   1.000  C
  H67      1.0000 0.64960  0.41950  0.33282  Biso   1.000  H
  C77      1.0000 0.65330  0.38250  0.55500  Biso   1.000  C
  H68      1.0000 0.63560  0.33540  0.73810  Biso   1.000  H
  C78      1.0000 0.70410  0.42580  0.65000  Biso   1.000  C
  C79      1.0000 0.70490  0.50060  0.62240  Biso   1.000  C
  C80      1.0000 0.75070  0.39400  0.76420  Biso   1.000  C
  H69      1.0000 0.67325  0.52175  0.54219  Biso   1.000  H
  C81      1.0000 0.75030  0.54510  0.70840  Biso   1.000  C
  C82      1.0000 0.79640  0.43850  0.85000  Biso   1.000  C
  C83      1.0000 0.75650  0.31200  0.79330  Biso   1.000  C
  C84      1.0000 0.79640  0.51250  0.82580  Biso   1.000  C
  C85      1.0000 0.74830  0.62420  0.67630  Biso   1.000  C
  H70      1.0000 0.82865  0.41722  0.92774  Biso   1.000  H
  H71      1.0000 0.74675  0.28660  0.69121  Biso   1.000  H
  H72      1.0000 0.79647  0.30041  0.85683  Biso   1.000  H
  H73      1.0000 0.73004  0.29653  0.85045  Biso   1.000  H
  C86      1.0000 0.84530  0.55600  0.92560  Biso   1.000  C
  H74      1.0000 0.78496  0.63956  0.66257  Biso   1.000  H
  H75      1.0000 0.71629  0.63473  0.57925  Biso   1.000  H
  H76      1.0000 0.74228  0.65034  0.76582  Biso   1.000  H
  C87      1.0000 0.90290  0.54420  0.92800  Biso   1.000  C
  C88      1.0000 0.83620  0.60810  0.02660  Biso   1.000  C
  C89      1.0000 0.94730  0.58750  0.03050  Biso   1.000  C
  H77      1.0000 0.91172  0.50816  0.86269  Biso   1.000  H
  C90      1.0000 0.88110  0.64700  0.12340  Biso   1.000  C
  H78      1.0000 0.79795  0.61694  0.02867  Biso   1.000  H
  H79      1.0000 0.98605  0.57951  0.03238  Biso   1.000  H
  H80      1.0000 0.87300  0.68129  0.19338  Biso   1.000  H
  O8       1.0000 0.03610  0.71650  0.07090  Biso   1.000  O
  N11      1.0000 0.06060  0.79780  0.37560  Biso   1.000  N
  N12      1.0000 0.93740  0.63930  0.12530  Biso   1.000  N
  C91      1.0000 0.08630  0.84400  0.30500  Biso   1.000  C
  C92      1.0000 0.07980  0.79490  0.53510  Biso   1.000  C
  Cr6      1.0000 0.94344  0.70596  0.58340  Biso   1.000  Cr
  C93      1.0000 0.13230  0.88710  0.38770  Biso   1.000  C
  H81      1.0000 0.07249  0.84755  0.19241  Biso   1.000  H
  H82      1.0000 0.06172  0.76224  0.58758  Biso   1.000  H
  C94      1.0000 0.12460  0.83750  0.62550  Biso   1.000  C
  H83      1.0000 0.14960  0.91950  0.33282  Biso   1.000  H
  C95      1.0000 0.15330  0.88250  0.55500  Biso   1.000  C
  H84      1.0000 0.13560  0.83540  0.73810  Biso   1.000  H
  C96      1.0000 0.20410  0.92580  0.65000  Biso   1.000  C
  C97      1.0000 0.20490  0.00060  0.62240  Biso   1.000  C
  C98      1.0000 0.25070  0.89400  0.76420  Biso   1.000  C
  H85      1.0000 0.17325  0.02175  0.54219  Biso   1.000  H
  C99      1.0000 0.25030  0.04510  0.70840  Biso   1.000  C
  C100     1.0000 0.29640  0.93850  0.85000  Biso   1.000  C
  C101     1.0000 0.25650  0.81200  0.79330  Biso   1.000  C
  C102     1.0000 0.29640  0.01250  0.82580  Biso   1.000  C
  C103     1.0000 0.24830  0.12420  0.67630  Biso   1.000  C
  H86      1.0000 0.32865  0.91722  0.92774  Biso   1.000  H
  H87      1.0000 0.24675  0.78660  0.69121  Biso   1.000  H
  H88      1.0000 0.29647  0.80041  0.85683  Biso   1.000  H
  H89      1.0000 0.23004  0.79653  0.85045  Biso   1.000  H
  C104     1.0000 0.34530  0.05600  0.92560  Biso   1.000  C
  H90      1.0000 0.28496  0.13956  0.66257  Biso   1.000  H
  H91      1.0000 0.21629  0.13473  0.57925  Biso   1.000  H
  H92      1.0000 0.24228  0.15034  0.76582  Biso   1.000  H
  C105     1.0000 0.40290  0.04420  0.92800  Biso   1.000  C
  C106     1.0000 0.33620  0.10810  0.02660  Biso   1.000  C
  C107     1.0000 0.44730  0.08750  0.03050  Biso   1.000  C
  H93      1.0000 0.41172  0.00816  0.86269  Biso   1.000  H
  C108     1.0000 0.38110  0.14700  0.12340  Biso   1.000  C
  H94      1.0000 0.29795  0.11694  0.02867  Biso   1.000  H
  H95      1.0000 0.48605  0.07951  0.03238  Biso   1.000  H
  H96      1.0000 0.37300  0.18129  0.19338  Biso   1.000  H
  O9       1.0000 0.46390  0.21650  0.42910  Biso   1.000  O
  N13      1.0000 0.43940  0.29780  0.12440  Biso   1.000  N
  N14      1.0000 0.56260  0.13930  0.37470  Biso   1.000  N
  C109     1.0000 0.41370  0.34400  0.19500  Biso   1.000  C
  C110     1.0000 0.42020  0.29490  0.96490  Biso   1.000  C
  Cr7      1.0000 0.55656  0.20596  0.91660  Biso   1.000  Cr
  C111     1.0000 0.36770  0.38710  0.11230  Biso   1.000  C
  H97      1.0000 0.42751  0.34755  0.30759  Biso   1.000  H
  H98      1.0000 0.43828  0.26224  0.91242  Biso   1.000  H
  C112     1.0000 0.37540  0.33750  0.87450  Biso   1.000  C
  H99      1.0000 0.35040  0.41950  0.16718  Biso   1.000  H
  C113     1.0000 0.34670  0.38250  0.94500  Biso   1.000  C
  H100     1.0000 0.36440  0.33540  0.76190  Biso   1.000  H
  C114     1.0000 0.29590  0.42580  0.85000  Biso   1.000  C
  C115     1.0000 0.29510  0.50060  0.87760  Biso   1.000  C
  C116     1.0000 0.24930  0.39400  0.73580  Biso   1.000  C
  H101     1.0000 0.32675  0.52175  0.95781  Biso   1.000  H
  C117     1.0000 0.24970  0.54510  0.79160  Biso   1.000  C
  C118     1.0000 0.20360  0.43850  0.65000  Biso   1.000  C
  C119     1.0000 0.24350  0.31200  0.70670  Biso   1.000  C
  C120     1.0000 0.20360  0.51250  0.67420  Biso   1.000  C
  C121     1.0000 0.25170  0.62420  0.82370  Biso   1.000  C
  H102     1.0000 0.17135  0.41722  0.57226  Biso   1.000  H
  H103     1.0000 0.25325  0.28660  0.80879  Biso   1.000  H
  H104     1.0000 0.20353  0.30041  0.64317  Biso   1.000  H
  H105     1.0000 0.26996  0.29653  0.64955  Biso   1.000  H
  C122     1.0000 0.15470  0.55600  0.57440  Biso   1.000  C
  H106     1.0000 0.21504  0.63956  0.83743  Biso   1.000  H
  H107     1.0000 0.28371  0.63473  0.92075  Biso   1.000  H
  H108     1.0000 0.25772  0.65034  0.73418  Biso   1.000  H
  C123     1.0000 0.09710  0.54420  0.57200  Biso   1.000  C
  C124     1.0000 0.16380  0.60810  0.47340  Biso   1.000  C
  C125     1.0000 0.05270  0.58750  0.46950  Biso   1.000  C
  H109     1.0000 0.08828  0.50816  0.63731  Biso   1.000  H
  C126     1.0000 0.11890  0.64700  0.37660  Biso   1.000  C
  H110     1.0000 0.20205  0.61694  0.47133  Biso   1.000  H
  H111     1.0000 0.01395  0.57951  0.46762  Biso   1.000  H
  H112     1.0000 0.12700  0.68129  0.30662  Biso   1.000  H
  O10      1.0000 0.96390  0.71650  0.42910  Biso   1.000  O
  N15      1.0000 0.93940  0.79780  0.12440  Biso   1.000  N
  N16      1.0000 0.06260  0.63930  0.37470  Biso   1.000  N
  C127     1.0000 0.91370  0.84400  0.19500  Biso   1.000  C
  C128     1.0000 0.92020  0.79490  0.96490  Biso   1.000  C
  Cr8      1.0000 0.05656  0.70596  0.91660  Biso   1.000  Cr
  C129     1.0000 0.86770  0.88710  0.11230  Biso   1.000  C
  H113     1.0000 0.92751  0.84755  0.30759  Biso   1.000  H
  H114     1.0000 0.93828  0.76224  0.91242  Biso   1.000  H
  C130     1.0000 0.87540  0.83750  0.87450  Biso   1.000  C
  H115     1.0000 0.85040  0.91950  0.16718  Biso   1.000  H
  C131     1.0000 0.84670  0.88250  0.94500  Biso   1.000  C
  H116     1.0000 0.86440  0.83540  0.76190  Biso   1.000  H
  C132     1.0000 0.79590  0.92580  0.85000  Biso   1.000  C
  C133     1.0000 0.79510  0.00060  0.87760  Biso   1.000  C
  C134     1.0000 0.74930  0.89400  0.73580  Biso   1.000  C
  H117     1.0000 0.82675  0.02175  0.95781  Biso   1.000  H
  C135     1.0000 0.74970  0.04510  0.79160  Biso   1.000  C
  C136     1.0000 0.70360  0.93850  0.65000  Biso   1.000  C
  C137     1.0000 0.74350  0.81200  0.70670  Biso   1.000  C
  C138     1.0000 0.70360  0.01250  0.67420  Biso   1.000  C
  C139     1.0000 0.75170  0.12420  0.82370  Biso   1.000  C
  H118     1.0000 0.67135  0.91722  0.57226  Biso   1.000  H
  H119     1.0000 0.75325  0.78660  0.80879  Biso   1.000  H
  H120     1.0000 0.70353  0.80041  0.64317  Biso   1.000  H
  H121     1.0000 0.76996  0.79653  0.64955  Biso   1.000  H
  C140     1.0000 0.65470  0.05600  0.57440  Biso   1.000  C
  H122     1.0000 0.71504  0.13956  0.83743  Biso   1.000  H
  H123     1.0000 0.78371  0.13473  0.92075  Biso   1.000  H
  H124     1.0000 0.75772  0.15034  0.73418  Biso   1.000  H
  C141     1.0000 0.59710  0.04420  0.57200  Biso   1.000  C
  C142     1.0000 0.66380  0.10810  0.47340  Biso   1.000  C
  C143     1.0000 0.55270  0.08750  0.46950  Biso   1.000  C
  H125     1.0000 0.58828  0.00816  0.63731  Biso   1.000  H
  C144     1.0000 0.61890  0.14700  0.37660  Biso   1.000  C
  H126     1.0000 0.70205  0.11694  0.47133  Biso   1.000  H
  H127     1.0000 0.51395  0.07951  0.46762  Biso   1.000  H
  H128     1.0000 0.62700  0.18129  0.30662  Biso   1.000  H
  Co3      1.0000 0.50000  0.21688  0.25000  Biso   1.000  Co
  Co4      1.0000 0.00000  0.71688  0.25000  Biso   1.000  Co
  O11      1.0000 0.50000  0.23750  0.75000  Biso   1.000  O
  O12      1.0000 0.00000  0.73750  0.75000  Biso   1.000  O
