data_TARVOX_clean
_audit_creation_date              2014-07-02
_audit_creation_method            'Materials Studio'
_symmetry_space_group_name_H-M    'P1'
_symmetry_Int_Tables_number       1
_symmetry_cell_setting            triclinic
loop_
_symmetry_equiv_pos_as_xyz
  x,y,z
_cell_length_a                    6.9400
_cell_length_b                    12.6981
_cell_length_c                    12.6981
_cell_angle_alpha                 97.4329
_cell_angle_beta                  96.3023
_cell_angle_gamma                 83.6977
loop_
_atom_site_label
_atom_site_type_symbol
_atom_site_fract_x
_atom_site_fract_y
_atom_site_fract_z
_atom_site_U_iso_or_equiv
_atom_site_adp_type
_atom_site_occupancy
Co1    Co    0.90870   0.32046   0.05332   0.01267  Uiso   1.00
Co2    Co    0.59130   0.05332   0.32046   0.01267  Uiso   1.00
Co3    Co    0.09130   0.67954   0.94668   0.01267  Uiso   1.00
Co4    Co    0.40870   0.94668   0.67954   0.01267  Uiso   1.00
H1     H     0.43010   0.42300   0.54840   0.01267  Uiso   1.00
H2     H     0.06990   0.54840   0.42300   0.01267  Uiso   1.00
H3     H     0.56990   0.57700   0.45160   0.01267  Uiso   1.00
H4     H     0.93010   0.45160   0.57700   0.01267  Uiso   1.00
C1     C     0.44380   0.53630   0.66570   0.01267  Uiso   1.00
C2     C     0.36410   0.35970   0.66910   0.01267  Uiso   1.00
C3     C     0.33120   0.48630   0.81190   0.01267  Uiso   1.00
C4     C     0.51840   0.70160   0.64980   0.01267  Uiso   1.00
C5     C     0.31410   0.18400   0.65320   0.01267  Uiso   1.00
C6     C     0.20170   0.44780   0.96000   0.01267  Uiso   1.00
C7     C     0.05620   0.66570   0.53630   0.01267  Uiso   1.00
C8     C     0.13590   0.66910   0.35970   0.01267  Uiso   1.00
C9     C     0.16880   0.81190   0.48630   0.01267  Uiso   1.00
C10    C     0.98160   0.64980   0.70160   0.01267  Uiso   1.00
C11    C     0.18590   0.65320   0.18400   0.01267  Uiso   1.00
C12    C     0.29830   0.96000   0.44780   0.01267  Uiso   1.00
C13    C     0.55620   0.46370   0.33430   0.01267  Uiso   1.00
C14    C     0.63590   0.64030   0.33090   0.01267  Uiso   1.00
C15    C     0.66880   0.51370   0.18810   0.01267  Uiso   1.00
C16    C     0.48160   0.29840   0.35020   0.01267  Uiso   1.00
C17    C     0.68590   0.81600   0.34680   0.01267  Uiso   1.00
C18    C     0.79830   0.55220   0.04000   0.01267  Uiso   1.00
C19    C     0.94380   0.33430   0.46370   0.01267  Uiso   1.00
C20    C     0.86410   0.33090   0.64030   0.01267  Uiso   1.00
C21    C     0.83120   0.18810   0.51370   0.01267  Uiso   1.00
C22    C     0.01840   0.35020   0.29840   0.01267  Uiso   1.00
C23    C     0.81410   0.34680   0.81600   0.01267  Uiso   1.00
C24    C     0.70170   0.04000   0.55220   0.01267  Uiso   1.00
N1     N     0.41550   0.43710   0.61530   0.01267  Uiso   1.00
N2     N     0.32440   0.38250   0.77050   0.01267  Uiso   1.00
N3     N     0.39810   0.56250   0.76590   0.01267  Uiso   1.00
N4     N     0.50930   0.60180   0.60800   0.01267  Uiso   1.00
N5     N     0.52850   0.79050   0.67850   0.01267  Uiso   1.00
N6     N     0.35080   0.26630   0.60950   0.01267  Uiso   1.00
N7     N     0.28540   0.10380   0.68140   0.01267  Uiso   1.00
N8     N     0.25940   0.52010   0.90770   0.01267  Uiso   1.00
N9     N     0.14490   0.39300   0.01220   0.01267  Uiso   1.00
N10    N     0.08450   0.61530   0.43710   0.01267  Uiso   1.00
N11    N     0.17560   0.77050   0.38250   0.01267  Uiso   1.00
N12    N     0.10190   0.76590   0.56250   0.01267  Uiso   1.00
N13    N     0.99070   0.60800   0.60180   0.01267  Uiso   1.00
N14    N     0.97150   0.67850   0.79050   0.01267  Uiso   1.00
N15    N     0.14920   0.60950   0.26630   0.01267  Uiso   1.00
N16    N     0.21460   0.68140   0.10380   0.01267  Uiso   1.00
N17    N     0.24060   0.90770   0.52010   0.01267  Uiso   1.00
N18    N     0.35510   0.01220   0.39300   0.01267  Uiso   1.00
N19    N     0.58450   0.56290   0.38470   0.01267  Uiso   1.00
N20    N     0.67560   0.61750   0.22950   0.01267  Uiso   1.00
N21    N     0.60190   0.43750   0.23410   0.01267  Uiso   1.00
N22    N     0.49070   0.39820   0.39200   0.01267  Uiso   1.00
N23    N     0.47150   0.20950   0.32150   0.01267  Uiso   1.00
N24    N     0.64920   0.73370   0.39050   0.01267  Uiso   1.00
N25    N     0.71460   0.89620   0.31860   0.01267  Uiso   1.00
N26    N     0.74060   0.47990   0.09230   0.01267  Uiso   1.00
N27    N     0.85510   0.60700   0.98780   0.01267  Uiso   1.00
N28    N     0.91550   0.38470   0.56290   0.01267  Uiso   1.00
N29    N     0.82440   0.22950   0.61750   0.01267  Uiso   1.00
N30    N     0.89810   0.23410   0.43750   0.01267  Uiso   1.00
N31    N     0.00930   0.39200   0.39820   0.01267  Uiso   1.00
N32    N     0.02850   0.32150   0.20950   0.01267  Uiso   1.00
N33    N     0.85080   0.39050   0.73370   0.01267  Uiso   1.00
N34    N     0.78540   0.31860   0.89620   0.01267  Uiso   1.00
N35    N     0.75940   0.09230   0.47990   0.01267  Uiso   1.00
N36    N     0.64490   0.98780   0.60700   0.01267  Uiso   1.00
