data_TARVUD_clean
_audit_creation_date              2014-07-02
_audit_creation_method            'Materials Studio'
_symmetry_space_group_name_H-M    'P1'
_symmetry_Int_Tables_number       1
_symmetry_cell_setting            triclinic
loop_
_symmetry_equiv_pos_as_xyz
  x,y,z
_cell_length_a                    6.9460
_cell_length_b                    12.6262
_cell_length_c                    12.6262
_cell_angle_alpha                 97.3981
_cell_angle_beta                  96.1062
_cell_angle_gamma                 83.8938
loop_
_atom_site_label
_atom_site_type_symbol
_atom_site_fract_x
_atom_site_fract_y
_atom_site_fract_z
_atom_site_U_iso_or_equiv
_atom_site_adp_type
_atom_site_occupancy
Ni1    Ni    0.90606   0.32101   0.05295   0.01267  Uiso   1.00
Ni2    Ni    0.59394   0.05295   0.32101   0.01267  Uiso   1.00
Ni3    Ni    0.09394   0.67899   0.94705   0.01267  Uiso   1.00
Ni4    Ni    0.40606   0.94705   0.67899   0.01267  Uiso   1.00
H1     H     0.43450   0.42290   0.54870   0.01267  Uiso   1.00
H2     H     0.06550   0.54870   0.42290   0.01267  Uiso   1.00
H3     H     0.56550   0.57710   0.45130   0.01267  Uiso   1.00
H4     H     0.93450   0.45130   0.57710   0.01267  Uiso   1.00
C1     C     0.44250   0.53690   0.66690   0.01267  Uiso   1.00
C2     C     0.36240   0.36060   0.66980   0.01267  Uiso   1.00
C3     C     0.32630   0.48590   0.81350   0.01267  Uiso   1.00
C4     C     0.51860   0.70330   0.65050   0.01267  Uiso   1.00
C5     C     0.31400   0.18220   0.65320   0.01267  Uiso   1.00
C6     C     0.19760   0.44730   0.95990   0.01267  Uiso   1.00
C7     C     0.05750   0.66690   0.53690   0.01267  Uiso   1.00
C8     C     0.13760   0.66980   0.36060   0.01267  Uiso   1.00
C9     C     0.17370   0.81350   0.48590   0.01267  Uiso   1.00
C10    C     0.98140   0.65050   0.70330   0.01267  Uiso   1.00
C11    C     0.18600   0.65320   0.18220   0.01267  Uiso   1.00
C12    C     0.30240   0.95990   0.44730   0.01267  Uiso   1.00
C13    C     0.55750   0.46310   0.33310   0.01267  Uiso   1.00
C14    C     0.63760   0.63940   0.33020   0.01267  Uiso   1.00
C15    C     0.67370   0.51410   0.18650   0.01267  Uiso   1.00
C16    C     0.48140   0.29670   0.34950   0.01267  Uiso   1.00
C17    C     0.68600   0.81780   0.34680   0.01267  Uiso   1.00
C18    C     0.80240   0.55270   0.04010   0.01267  Uiso   1.00
C19    C     0.94250   0.33310   0.46310   0.01267  Uiso   1.00
C20    C     0.86240   0.33020   0.63940   0.01267  Uiso   1.00
C21    C     0.82630   0.18650   0.51410   0.01267  Uiso   1.00
C22    C     0.01860   0.34950   0.29670   0.01267  Uiso   1.00
C23    C     0.81400   0.34680   0.81780   0.01267  Uiso   1.00
C24    C     0.69760   0.04010   0.55270   0.01267  Uiso   1.00
N1     N     0.41670   0.43740   0.61560   0.01267  Uiso   1.00
N2     N     0.39800   0.56020   0.76920   0.01267  Uiso   1.00
N3     N     0.31220   0.38850   0.76490   0.01267  Uiso   1.00
N4     N     0.51020   0.60330   0.60850   0.01267  Uiso   1.00
N5     N     0.52870   0.79380   0.67820   0.01267  Uiso   1.00
N6     N     0.34980   0.26600   0.60900   0.01267  Uiso   1.00
N7     N     0.28390   0.10170   0.67930   0.01267  Uiso   1.00
N8     N     0.25620   0.52120   0.90860   0.01267  Uiso   1.00
N9     N     0.13760   0.39350   0.01230   0.01267  Uiso   1.00
N10    N     0.08330   0.61560   0.43740   0.01267  Uiso   1.00
N11    N     0.10200   0.76920   0.56020   0.01267  Uiso   1.00
N12    N     0.18780   0.76490   0.38850   0.01267  Uiso   1.00
N13    N     0.98980   0.60850   0.60330   0.01267  Uiso   1.00
N14    N     0.97130   0.67820   0.79380   0.01267  Uiso   1.00
N15    N     0.15020   0.60900   0.26600   0.01267  Uiso   1.00
N16    N     0.21610   0.67930   0.10170   0.01267  Uiso   1.00
N17    N     0.24380   0.90860   0.52120   0.01267  Uiso   1.00
N18    N     0.36240   0.01230   0.39350   0.01267  Uiso   1.00
N19    N     0.58330   0.56260   0.38440   0.01267  Uiso   1.00
N20    N     0.60200   0.43980   0.23080   0.01267  Uiso   1.00
N21    N     0.68780   0.61150   0.23510   0.01267  Uiso   1.00
N22    N     0.48980   0.39670   0.39150   0.01267  Uiso   1.00
N23    N     0.47130   0.20620   0.32180   0.01267  Uiso   1.00
N24    N     0.65020   0.73400   0.39100   0.01267  Uiso   1.00
N25    N     0.71610   0.89830   0.32070   0.01267  Uiso   1.00
N26    N     0.74380   0.47880   0.09140   0.01267  Uiso   1.00
N27    N     0.86240   0.60650   0.98770   0.01267  Uiso   1.00
N28    N     0.91670   0.38440   0.56260   0.01267  Uiso   1.00
N29    N     0.89800   0.23080   0.43980   0.01267  Uiso   1.00
N30    N     0.81220   0.23510   0.61150   0.01267  Uiso   1.00
N31    N     0.01020   0.39150   0.39670   0.01267  Uiso   1.00
N32    N     0.02870   0.32180   0.20620   0.01267  Uiso   1.00
N33    N     0.84980   0.39100   0.73400   0.01267  Uiso   1.00
N34    N     0.78390   0.32070   0.89830   0.01267  Uiso   1.00
N35    N     0.75620   0.09140   0.47880   0.01267  Uiso   1.00
N36    N     0.63760   0.98770   0.60650   0.01267  Uiso   1.00
