data_TARWEO_clean
_audit_creation_date              2014-07-02
_audit_creation_method            'Materials Studio'
_symmetry_space_group_name_H-M    'P1'
_symmetry_Int_Tables_number       1
_symmetry_cell_setting            triclinic
loop_
_symmetry_equiv_pos_as_xyz
  x,y,z
_cell_length_a                    7.0730
_cell_length_b                    12.9993
_cell_length_c                    12.9993
_cell_angle_alpha                 97.7758
_cell_angle_beta                  95.5986
_cell_angle_gamma                 84.4014
loop_
_atom_site_label
_atom_site_type_symbol
_atom_site_fract_x
_atom_site_fract_y
_atom_site_fract_z
_atom_site_U_iso_or_equiv
_atom_site_adp_type
_atom_site_occupancy
Cd1    Cd    0.90525   0.32258   0.05242   0.01267  Uiso   1.00
Cd2    Cd    0.59475   0.05242   0.32258   0.01267  Uiso   1.00
Cd3    Cd    0.09475   0.67742   0.94758   0.01267  Uiso   1.00
Cd4    Cd    0.40525   0.94758   0.67742   0.01267  Uiso   1.00
H1     H     0.43570   0.42390   0.54770   0.01267  Uiso   1.00
H2     H     0.06430   0.54770   0.42390   0.01267  Uiso   1.00
H3     H     0.56430   0.57610   0.45230   0.01267  Uiso   1.00
H4     H     0.93570   0.45230   0.57610   0.01267  Uiso   1.00
C1     C     0.43950   0.53420   0.66300   0.01267  Uiso   1.00
C2     C     0.36360   0.36090   0.66450   0.01267  Uiso   1.00
C3     C     0.33480   0.48290   0.80610   0.01267  Uiso   1.00
C4     C     0.51870   0.69610   0.64970   0.01267  Uiso   1.00
C5     C     0.31030   0.19030   0.64890   0.01267  Uiso   1.00
C6     C     0.21900   0.44420   0.95400   0.01267  Uiso   1.00
C7     C     0.06050   0.66300   0.53420   0.01267  Uiso   1.00
C8     C     0.13640   0.66450   0.36090   0.01267  Uiso   1.00
C9     C     0.16520   0.80610   0.48290   0.01267  Uiso   1.00
C10    C     0.98130   0.64970   0.69610   0.01267  Uiso   1.00
C11    C     0.18970   0.64890   0.19030   0.01267  Uiso   1.00
C12    C     0.28100   0.95400   0.44420   0.01267  Uiso   1.00
C13    C     0.56050   0.46580   0.33700   0.01267  Uiso   1.00
C14    C     0.63640   0.63910   0.33550   0.01267  Uiso   1.00
C15    C     0.66520   0.51710   0.19390   0.01267  Uiso   1.00
C16    C     0.48130   0.30390   0.35030   0.01267  Uiso   1.00
C17    C     0.68970   0.80970   0.35110   0.01267  Uiso   1.00
C18    C     0.78100   0.55580   0.04600   0.01267  Uiso   1.00
C19    C     0.93950   0.33700   0.46580   0.01267  Uiso   1.00
C20    C     0.86360   0.33550   0.63910   0.01267  Uiso   1.00
C21    C     0.83480   0.19390   0.51710   0.01267  Uiso   1.00
C22    C     0.01870   0.35030   0.30390   0.01267  Uiso   1.00
C23    C     0.81030   0.35110   0.80970   0.01267  Uiso   1.00
C24    C     0.71900   0.04600   0.55580   0.01267  Uiso   1.00
N1     N     0.41680   0.43760   0.61260   0.01267  Uiso   1.00
N2     N     0.32490   0.38250   0.76330   0.01267  Uiso   1.00
N3     N     0.39690   0.55960   0.76100   0.01267  Uiso   1.00
N4     N     0.50420   0.59990   0.60650   0.01267  Uiso   1.00
N5     N     0.53480   0.78230   0.68090   0.01267  Uiso   1.00
N6     N     0.35120   0.26940   0.60600   0.01267  Uiso   1.00
N7     N     0.27420   0.11460   0.67780   0.01267  Uiso   1.00
N8     N     0.27420   0.51430   0.90210   0.01267  Uiso   1.00
N9     N     0.16590   0.39180   0.00800   0.01267  Uiso   1.00
N10    N     0.08320   0.61260   0.43760   0.01267  Uiso   1.00
N11    N     0.17510   0.76330   0.38250   0.01267  Uiso   1.00
N12    N     0.10310   0.76100   0.55960   0.01267  Uiso   1.00
N13    N     0.99580   0.60650   0.59990   0.01267  Uiso   1.00
N14    N     0.96520   0.68090   0.78230   0.01267  Uiso   1.00
N15    N     0.14880   0.60600   0.26940   0.01267  Uiso   1.00
N16    N     0.22580   0.67780   0.11460   0.01267  Uiso   1.00
N17    N     0.22580   0.90210   0.51430   0.01267  Uiso   1.00
N18    N     0.33410   0.00800   0.39180   0.01267  Uiso   1.00
N19    N     0.58320   0.56240   0.38740   0.01267  Uiso   1.00
N20    N     0.67510   0.61750   0.23670   0.01267  Uiso   1.00
N21    N     0.60310   0.44040   0.23900   0.01267  Uiso   1.00
N22    N     0.49580   0.40010   0.39350   0.01267  Uiso   1.00
N23    N     0.46520   0.21770   0.31910   0.01267  Uiso   1.00
N24    N     0.64880   0.73060   0.39400   0.01267  Uiso   1.00
N25    N     0.72580   0.88540   0.32220   0.01267  Uiso   1.00
N26    N     0.72580   0.48570   0.09790   0.01267  Uiso   1.00
N27    N     0.83410   0.60820   0.99200   0.01267  Uiso   1.00
N28    N     0.91680   0.38740   0.56240   0.01267  Uiso   1.00
N29    N     0.82490   0.23670   0.61750   0.01267  Uiso   1.00
N30    N     0.89690   0.23900   0.44040   0.01267  Uiso   1.00
N31    N     0.00420   0.39350   0.40010   0.01267  Uiso   1.00
N32    N     0.03480   0.31910   0.21770   0.01267  Uiso   1.00
N33    N     0.85120   0.39400   0.73060   0.01267  Uiso   1.00
N34    N     0.77420   0.32220   0.88540   0.01267  Uiso   1.00
N35    N     0.77420   0.09790   0.48570   0.01267  Uiso   1.00
N36    N     0.66590   0.99200   0.60820   0.01267  Uiso   1.00
