data_TARWAK_clean
_audit_creation_date              2014-07-02
_audit_creation_method            'Materials Studio'
_symmetry_space_group_name_H-M    'P1'
_symmetry_Int_Tables_number       1
_symmetry_cell_setting            triclinic
loop_
_symmetry_equiv_pos_as_xyz
  x,y,z
_cell_length_a                    6.9420
_cell_length_b                    12.5840
_cell_length_c                    12.5840
_cell_angle_alpha                 95.3528
_cell_angle_beta                  96.7152
_cell_angle_gamma                 83.2848
loop_
_atom_site_label
_atom_site_type_symbol
_atom_site_fract_x
_atom_site_fract_y
_atom_site_fract_z
_atom_site_U_iso_or_equiv
_atom_site_adp_type
_atom_site_occupancy
Cu1    Cu    0.93301   0.31335   0.05783   0.01267  Uiso   1.00
Cu2    Cu    0.43301   0.94217   0.68665   0.01267  Uiso   1.00
H1     H     0.43570   0.42264   0.54936   0.01267  Uiso   1.00
H2     H     0.93570   0.45064   0.57736   0.01267  Uiso   1.00
C1     C     0.44770   0.53250   0.66790   0.01267  Uiso   1.00
C2     C     0.37660   0.35380   0.67200   0.01267  Uiso   1.00
C3     C     0.35010   0.47400   0.81720   0.01267  Uiso   1.00
C4     C     0.51700   0.70060   0.64980   0.01267  Uiso   1.00
C5     C     0.33800   0.17510   0.65590   0.01267  Uiso   1.00
C6     C     0.22100   0.43610   0.96690   0.01267  Uiso   1.00
C7     C     0.94770   0.33210   0.46750   0.01267  Uiso   1.00
C8     C     0.87660   0.32800   0.64620   0.01267  Uiso   1.00
C9     C     0.85010   0.18280   0.52600   0.01267  Uiso   1.00
C10    C     0.01700   0.35020   0.29940   0.01267  Uiso   1.00
C11    C     0.83800   0.34410   0.82490   0.01267  Uiso   1.00
C12    C     0.72100   0.03310   0.56390   0.01267  Uiso   1.00
N1     N     0.42260   0.43426   0.61674   0.01267  Uiso   1.00
N2     N     0.34400   0.37160   0.77440   0.01267  Uiso   1.00
N3     N     0.40960   0.55500   0.76860   0.01267  Uiso   1.00
N4     N     0.50780   0.60210   0.60790   0.01267  Uiso   1.00
N5     N     0.52930   0.78990   0.67790   0.01267  Uiso   1.00
N6     N     0.36230   0.26110   0.61210   0.01267  Uiso   1.00
N7     N     0.31700   0.09290   0.68490   0.01267  Uiso   1.00
N8     N     0.29120   0.50520   0.91460   0.01267  Uiso   1.00
N9     N     0.15280   0.38530   0.02130   0.01267  Uiso   1.00
N10    N     0.92260   0.38326   0.56574   0.01267  Uiso   1.00
N11    N     0.84400   0.22560   0.62840   0.01267  Uiso   1.00
N12    N     0.90960   0.23140   0.44500   0.01267  Uiso   1.00
N13    N     0.00780   0.39210   0.39790   0.01267  Uiso   1.00
N14    N     0.02930   0.32210   0.21010   0.01267  Uiso   1.00
N15    N     0.86230   0.38790   0.73890   0.01267  Uiso   1.00
N16    N     0.81700   0.31510   0.90710   0.01267  Uiso   1.00
N17    N     0.79120   0.08540   0.49480   0.01267  Uiso   1.00
N18    N     0.65280   0.97870   0.61470   0.01267  Uiso   1.00
Cu3    Cu    0.56699   0.05783   0.31335   0.01267  Uiso   1.00
Cu4    Cu    0.06699   0.68665   0.94217   0.01267  Uiso   1.00
H3     H     0.06430   0.54936   0.42264   0.01267  Uiso   1.00
H4     H     0.56430   0.57736   0.45064   0.01267  Uiso   1.00
C13    C     0.05230   0.66790   0.53250   0.01267  Uiso   1.00
C14    C     0.12340   0.67200   0.35380   0.01267  Uiso   1.00
C15    C     0.14990   0.81720   0.47400   0.01267  Uiso   1.00
C16    C     0.98300   0.64980   0.70060   0.01267  Uiso   1.00
C17    C     0.16200   0.65590   0.17510   0.01267  Uiso   1.00
C18    C     0.27900   0.96690   0.43610   0.01267  Uiso   1.00
C19    C     0.55230   0.46750   0.33210   0.01267  Uiso   1.00
C20    C     0.62340   0.64620   0.32800   0.01267  Uiso   1.00
C21    C     0.64990   0.52600   0.18280   0.01267  Uiso   1.00
C22    C     0.48300   0.29940   0.35020   0.01267  Uiso   1.00
C23    C     0.66200   0.82490   0.34410   0.01267  Uiso   1.00
C24    C     0.77900   0.56390   0.03310   0.01267  Uiso   1.00
N19    N     0.07740   0.61674   0.43426   0.01267  Uiso   1.00
N20    N     0.15600   0.77440   0.37160   0.01267  Uiso   1.00
N21    N     0.09040   0.76860   0.55500   0.01267  Uiso   1.00
N22    N     0.99220   0.60790   0.60210   0.01267  Uiso   1.00
N23    N     0.97070   0.67790   0.78990   0.01267  Uiso   1.00
N24    N     0.13770   0.61210   0.26110   0.01267  Uiso   1.00
N25    N     0.18300   0.68490   0.09290   0.01267  Uiso   1.00
N26    N     0.20880   0.91460   0.50520   0.01267  Uiso   1.00
N27    N     0.34720   0.02130   0.38530   0.01267  Uiso   1.00
N28    N     0.57740   0.56574   0.38326   0.01267  Uiso   1.00
N29    N     0.65600   0.62840   0.22560   0.01267  Uiso   1.00
N30    N     0.59040   0.44500   0.23140   0.01267  Uiso   1.00
N31    N     0.49220   0.39790   0.39210   0.01267  Uiso   1.00
N32    N     0.47070   0.21010   0.32210   0.01267  Uiso   1.00
N33    N     0.63770   0.73890   0.38790   0.01267  Uiso   1.00
N34    N     0.68300   0.90710   0.31510   0.01267  Uiso   1.00
N35    N     0.70880   0.49480   0.08540   0.01267  Uiso   1.00
N36    N     0.84720   0.61470   0.97870   0.01267  Uiso   1.00
