data_image0
_cell_length_a       25.128
_cell_length_b       26.704
_cell_length_c       14.85
_cell_angle_alpha    90
_cell_angle_beta     90
_cell_angle_gamma    90

_symmetry_space_group_name_H-M    "P 1"
_symmetry_int_tables_number       1

loop_
  _symmetry_equiv_pos_as_xyz
  'x, y, z'

loop_
  _atom_site_label
  _atom_site_occupancy
  _atom_site_fract_x
  _atom_site_fract_y
  _atom_site_fract_z
  _atom_site_thermal_displace_type
  _atom_site_B_iso_or_equiv
  _atom_site_type_symbol
  Eu1      1.0000 0.89933  0.68422  0.64956  Biso   1.000  Eu
  Cl1      1.0000 0.08050  0.81314  0.71935  Biso   1.000  Cl
  Cl2      1.0000 0.15804  0.86565  0.59030  Biso   1.000  Cl
  Cl3      1.0000 0.00129  0.87340  0.33887  Biso   1.000  Cl
  Cl4      1.0000 0.92405  0.82728  0.47616  Biso   1.000  Cl
  Cl5      1.0000 0.04173  0.06711  0.38110  Biso   1.000  Cl
  Cl6      1.0000 0.07766  0.97872  0.49988  Biso   1.000  Cl
  Cl7      1.0000 0.13288  0.87740  0.19740  Biso   1.000  Cl
  Cl8      1.0000 0.11071  0.97330  0.08558  Biso   1.000  Cl
  Cl9      1.0000 0.21603  0.95034  0.41440  Biso   1.000  Cl
  Cl10     1.0000 0.32363  0.89815  0.38470  Biso   1.000  Cl
  Cl11     1.0000 0.22308  0.72100  0.35534  Biso   1.000  Cl
  Cl12     1.0000 0.11560  0.77286  0.37091  Biso   1.000  Cl
  O1       1.0000 0.95410  0.75408  0.63930  Biso   1.000  O
  O2       1.0000 0.95490  0.82342  0.72230  Biso   1.000  O
  O3       1.0000 0.01810  0.06080  0.14910  Biso   1.000  O
  O4       1.0000 0.09560  0.09604  0.18040  Biso   1.000  O
  O5       1.0000 0.34200  0.80430  0.27190  Biso   1.000  O
  O6       1.0000 0.33740  0.75250  0.39140  Biso   1.000  O
  C1       1.0000 0.96820  0.79690  0.65600  Biso   1.000  C
  C2       1.0000 0.06230  0.06130  0.18320  Biso   1.000  C
  C3       1.0000 0.32110  0.78800  0.34200  Biso   1.000  C
  C4       1.0000 0.00730  0.82130  0.59000  Biso   1.000  C
  C5       1.0000 0.05930  0.83050  0.61310  Biso   1.000  C
  C6       1.0000 0.09420  0.85250  0.55220  Biso   1.000  C
  C7       1.0000 0.07810  0.86640  0.46670  Biso   1.000  C
  C8       1.0000 0.02470  0.85840  0.44490  Biso   1.000  C
  C9       1.0000 0.99070  0.83600  0.50480  Biso   1.000  C
  C10      1.0000 0.11710  0.88580  0.40130  Biso   1.000  C
  C11      1.0000 0.07790  0.01580  0.23970  Biso   1.000  C
  C12      1.0000 0.06980  0.01490  0.33130  Biso   1.000  C
  C13      1.0000 0.08430  0.97420  0.38590  Biso   1.000  C
  C14      1.0000 0.10400  0.93070  0.34500  Biso   1.000  C
  C15      1.0000 0.11170  0.93140  0.25220  Biso   1.000  C
  C16      1.0000 0.10000  0.97290  0.20230  Biso   1.000  C
  C17      1.0000 0.16870  0.86050  0.38990  Biso   1.000  C
  C18      1.0000 0.21690  0.88680  0.39100  Biso   1.000  C
  C19      1.0000 0.26570  0.86370  0.37900  Biso   1.000  C
  C20      1.0000 0.26930  0.81250  0.36700  Biso   1.000  C
  C21      1.0000 0.22180  0.78520  0.37020  Biso   1.000  C
  C22      1.0000 0.17270  0.80810  0.37940  Biso   1.000  C
  Eu2      1.0000 0.60067  0.31578  0.64956  Biso   1.000  Eu
  Cl13     1.0000 0.41950  0.18686  0.71935  Biso   1.000  Cl
  Cl14     1.0000 0.34196  0.13435  0.59030  Biso   1.000  Cl
  Cl15     1.0000 0.49871  0.12660  0.33887  Biso   1.000  Cl
  Cl16     1.0000 0.57595  0.17272  0.47616  Biso   1.000  Cl
  Cl17     1.0000 0.45827  0.93289  0.38110  Biso   1.000  Cl
  Cl18     1.0000 0.42234  0.02128  0.49988  Biso   1.000  Cl
  Cl19     1.0000 0.36712  0.12260  0.19740  Biso   1.000  Cl
  Cl20     1.0000 0.38929  0.02670  0.08558  Biso   1.000  Cl
  Cl21     1.0000 0.28397  0.04966  0.41440  Biso   1.000  Cl
  Cl22     1.0000 0.17637  0.10185  0.38470  Biso   1.000  Cl
  Cl23     1.0000 0.27692  0.27900  0.35534  Biso   1.000  Cl
  Cl24     1.0000 0.38440  0.22714  0.37091  Biso   1.000  Cl
  O7       1.0000 0.54590  0.24592  0.63930  Biso   1.000  O
  O8       1.0000 0.54510  0.17658  0.72230  Biso   1.000  O
  O9       1.0000 0.48190  0.93920  0.14910  Biso   1.000  O
  O10      1.0000 0.40440  0.90396  0.18040  Biso   1.000  O
  O11      1.0000 0.15800  0.19570  0.27190  Biso   1.000  O
  O12      1.0000 0.16260  0.24750  0.39140  Biso   1.000  O
  C23      1.0000 0.53180  0.20310  0.65600  Biso   1.000  C
  C24      1.0000 0.43770  0.93870  0.18320  Biso   1.000  C
  C25      1.0000 0.17890  0.21200  0.34200  Biso   1.000  C
  C26      1.0000 0.49270  0.17870  0.59000  Biso   1.000  C
  C27      1.0000 0.44070  0.16950  0.61310  Biso   1.000  C
  C28      1.0000 0.40580  0.14750  0.55220  Biso   1.000  C
  C29      1.0000 0.42190  0.13360  0.46670  Biso   1.000  C
  C30      1.0000 0.47530  0.14160  0.44490  Biso   1.000  C
  C31      1.0000 0.50930  0.16400  0.50480  Biso   1.000  C
  C32      1.0000 0.38290  0.11420  0.40130  Biso   1.000  C
  C33      1.0000 0.42210  0.98420  0.23970  Biso   1.000  C
  C34      1.0000 0.43020  0.98510  0.33130  Biso   1.000  C
  C35      1.0000 0.41570  0.02580  0.38590  Biso   1.000  C
  C36      1.0000 0.39600  0.06930  0.34500  Biso   1.000  C
  C37      1.0000 0.38830  0.06860  0.25220  Biso   1.000  C
  C38      1.0000 0.40000  0.02710  0.20230  Biso   1.000  C
  C39      1.0000 0.33130  0.13950  0.38990  Biso   1.000  C
  C40      1.0000 0.28310  0.11320  0.39100  Biso   1.000  C
  C41      1.0000 0.23430  0.13630  0.37900  Biso   1.000  C
  C42      1.0000 0.23070  0.18750  0.36700  Biso   1.000  C
  C43      1.0000 0.27820  0.21480  0.37020  Biso   1.000  C
  C44      1.0000 0.32730  0.19190  0.37940  Biso   1.000  C
  Eu3      1.0000 0.60067  0.18422  0.85044  Biso   1.000  Eu
  Cl25     1.0000 0.41950  0.31314  0.78065  Biso   1.000  Cl
  Cl26     1.0000 0.34196  0.36565  0.90970  Biso   1.000  Cl
  Cl27     1.0000 0.49871  0.37340  0.16113  Biso   1.000  Cl
  Cl28     1.0000 0.57595  0.32728  0.02384  Biso   1.000  Cl
  Cl29     1.0000 0.45827  0.56711  0.11890  Biso   1.000  Cl
  Cl30     1.0000 0.42234  0.47872  0.00012  Biso   1.000  Cl
  Cl31     1.0000 0.36712  0.37740  0.30260  Biso   1.000  Cl
  Cl32     1.0000 0.38929  0.47330  0.41442  Biso   1.000  Cl
  Cl33     1.0000 0.28397  0.45034  0.08560  Biso   1.000  Cl
  Cl34     1.0000 0.17637  0.39815  0.11530  Biso   1.000  Cl
  Cl35     1.0000 0.27692  0.22100  0.14466  Biso   1.000  Cl
  Cl36     1.0000 0.38440  0.27286  0.12909  Biso   1.000  Cl
  O13      1.0000 0.54590  0.25408  0.86070  Biso   1.000  O
  O14      1.0000 0.54510  0.32342  0.77770  Biso   1.000  O
  O15      1.0000 0.48190  0.56080  0.35090  Biso   1.000  O
  O16      1.0000 0.40440  0.59604  0.31960  Biso   1.000  O
  O17      1.0000 0.15800  0.30430  0.22810  Biso   1.000  O
  O18      1.0000 0.16260  0.25250  0.10860  Biso   1.000  O
  C45      1.0000 0.53180  0.29690  0.84400  Biso   1.000  C
  C46      1.0000 0.43770  0.56130  0.31680  Biso   1.000  C
  C47      1.0000 0.17890  0.28800  0.15800  Biso   1.000  C
  C48      1.0000 0.49270  0.32130  0.91000  Biso   1.000  C
  C49      1.0000 0.44070  0.33050  0.88690  Biso   1.000  C
  C50      1.0000 0.40580  0.35250  0.94780  Biso   1.000  C
  C51      1.0000 0.42190  0.36640  0.03330  Biso   1.000  C
  C52      1.0000 0.47530  0.35840  0.05510  Biso   1.000  C
  C53      1.0000 0.50930  0.33600  0.99520  Biso   1.000  C
  C54      1.0000 0.38290  0.38580  0.09870  Biso   1.000  C
  C55      1.0000 0.42210  0.51580  0.26030  Biso   1.000  C
  C56      1.0000 0.43020  0.51490  0.16870  Biso   1.000  C
  C57      1.0000 0.41570  0.47420  0.11410  Biso   1.000  C
  C58      1.0000 0.39600  0.43070  0.15500  Biso   1.000  C
  C59      1.0000 0.38830  0.43140  0.24780  Biso   1.000  C
  C60      1.0000 0.40000  0.47290  0.29770  Biso   1.000  C
  C61      1.0000 0.33130  0.36050  0.11010  Biso   1.000  C
  C62      1.0000 0.28310  0.38680  0.10900  Biso   1.000  C
  C63      1.0000 0.23430  0.36370  0.12100  Biso   1.000  C
  C64      1.0000 0.23070  0.31250  0.13300  Biso   1.000  C
  C65      1.0000 0.27820  0.28520  0.12980  Biso   1.000  C
  C66      1.0000 0.32730  0.30810  0.12060  Biso   1.000  C
  Eu4      1.0000 0.89933  0.81578  0.85044  Biso   1.000  Eu
  Cl37     1.0000 0.08050  0.68686  0.78065  Biso   1.000  Cl
  Cl38     1.0000 0.15804  0.63435  0.90970  Biso   1.000  Cl
  Cl39     1.0000 0.00129  0.62660  0.16113  Biso   1.000  Cl
  Cl40     1.0000 0.92405  0.67272  0.02384  Biso   1.000  Cl
  Cl41     1.0000 0.04173  0.43289  0.11890  Biso   1.000  Cl
  Cl42     1.0000 0.07766  0.52128  0.00012  Biso   1.000  Cl
  Cl43     1.0000 0.13288  0.62260  0.30260  Biso   1.000  Cl
  Cl44     1.0000 0.11071  0.52670  0.41442  Biso   1.000  Cl
  Cl45     1.0000 0.21603  0.54966  0.08560  Biso   1.000  Cl
  Cl46     1.0000 0.32363  0.60185  0.11530  Biso   1.000  Cl
  Cl47     1.0000 0.22308  0.77900  0.14466  Biso   1.000  Cl
  Cl48     1.0000 0.11560  0.72714  0.12909  Biso   1.000  Cl
  O19      1.0000 0.95410  0.74592  0.86070  Biso   1.000  O
  O20      1.0000 0.95490  0.67658  0.77770  Biso   1.000  O
  O21      1.0000 0.01810  0.43920  0.35090  Biso   1.000  O
  O22      1.0000 0.09560  0.40396  0.31960  Biso   1.000  O
  O23      1.0000 0.34200  0.69570  0.22810  Biso   1.000  O
  O24      1.0000 0.33740  0.74750  0.10860  Biso   1.000  O
  C67      1.0000 0.96820  0.70310  0.84400  Biso   1.000  C
  C68      1.0000 0.06230  0.43870  0.31680  Biso   1.000  C
  C69      1.0000 0.32110  0.71200  0.15800  Biso   1.000  C
  C70      1.0000 0.00730  0.67870  0.91000  Biso   1.000  C
  C71      1.0000 0.05930  0.66950  0.88690  Biso   1.000  C
  C72      1.0000 0.09420  0.64750  0.94780  Biso   1.000  C
  C73      1.0000 0.07810  0.63360  0.03330  Biso   1.000  C
  C74      1.0000 0.02470  0.64160  0.05510  Biso   1.000  C
  C75      1.0000 0.99070  0.66400  0.99520  Biso   1.000  C
  C76      1.0000 0.11710  0.61420  0.09870  Biso   1.000  C
  C77      1.0000 0.07790  0.48420  0.26030  Biso   1.000  C
  C78      1.0000 0.06980  0.48510  0.16870  Biso   1.000  C
  C79      1.0000 0.08430  0.52580  0.11410  Biso   1.000  C
  C80      1.0000 0.10400  0.56930  0.15500  Biso   1.000  C
  C81      1.0000 0.11170  0.56860  0.24780  Biso   1.000  C
  C82      1.0000 0.10000  0.52710  0.29770  Biso   1.000  C
  C83      1.0000 0.16870  0.63950  0.11010  Biso   1.000  C
  C84      1.0000 0.21690  0.61320  0.10900  Biso   1.000  C
  C85      1.0000 0.26570  0.63630  0.12100  Biso   1.000  C
  C86      1.0000 0.26930  0.68750  0.13300  Biso   1.000  C
  C87      1.0000 0.22180  0.71480  0.12980  Biso   1.000  C
  C88      1.0000 0.17270  0.69190  0.12060  Biso   1.000  C
  Eu5      1.0000 0.10067  0.31578  0.35044  Biso   1.000  Eu
  Cl49     1.0000 0.91950  0.18686  0.28065  Biso   1.000  Cl
  Cl50     1.0000 0.84196  0.13435  0.40970  Biso   1.000  Cl
  Cl51     1.0000 0.99871  0.12660  0.66113  Biso   1.000  Cl
  Cl52     1.0000 0.07595  0.17272  0.52384  Biso   1.000  Cl
  Cl53     1.0000 0.95827  0.93289  0.61890  Biso   1.000  Cl
  Cl54     1.0000 0.92234  0.02128  0.50012  Biso   1.000  Cl
  Cl55     1.0000 0.86712  0.12260  0.80260  Biso   1.000  Cl
  Cl56     1.0000 0.88929  0.02670  0.91442  Biso   1.000  Cl
  Cl57     1.0000 0.78397  0.04966  0.58560  Biso   1.000  Cl
  Cl58     1.0000 0.67637  0.10185  0.61530  Biso   1.000  Cl
  Cl59     1.0000 0.77692  0.27900  0.64466  Biso   1.000  Cl
  Cl60     1.0000 0.88440  0.22714  0.62909  Biso   1.000  Cl
  O25      1.0000 0.04590  0.24592  0.36070  Biso   1.000  O
  O26      1.0000 0.04510  0.17658  0.27770  Biso   1.000  O
  O27      1.0000 0.98190  0.93920  0.85090  Biso   1.000  O
  O28      1.0000 0.90440  0.90396  0.81960  Biso   1.000  O
  O29      1.0000 0.65800  0.19570  0.72810  Biso   1.000  O
  O30      1.0000 0.66260  0.24750  0.60860  Biso   1.000  O
  C89      1.0000 0.03180  0.20310  0.34400  Biso   1.000  C
  C90      1.0000 0.93770  0.93870  0.81680  Biso   1.000  C
  C91      1.0000 0.67890  0.21200  0.65800  Biso   1.000  C
  C92      1.0000 0.99270  0.17870  0.41000  Biso   1.000  C
  C93      1.0000 0.94070  0.16950  0.38690  Biso   1.000  C
  C94      1.0000 0.90580  0.14750  0.44780  Biso   1.000  C
  C95      1.0000 0.92190  0.13360  0.53330  Biso   1.000  C
  C96      1.0000 0.97530  0.14160  0.55510  Biso   1.000  C
  C97      1.0000 0.00930  0.16400  0.49520  Biso   1.000  C
  C98      1.0000 0.88290  0.11420  0.59870  Biso   1.000  C
  C99      1.0000 0.92210  0.98420  0.76030  Biso   1.000  C
  C100     1.0000 0.93020  0.98510  0.66870  Biso   1.000  C
  C101     1.0000 0.91570  0.02580  0.61410  Biso   1.000  C
  C102     1.0000 0.89600  0.06930  0.65500  Biso   1.000  C
  C103     1.0000 0.88830  0.06860  0.74780  Biso   1.000  C
  C104     1.0000 0.90000  0.02710  0.79770  Biso   1.000  C
  C105     1.0000 0.83130  0.13950  0.61010  Biso   1.000  C
  C106     1.0000 0.78310  0.11320  0.60900  Biso   1.000  C
  C107     1.0000 0.73430  0.13630  0.62100  Biso   1.000  C
  C108     1.0000 0.73070  0.18750  0.63300  Biso   1.000  C
  C109     1.0000 0.77820  0.21480  0.62980  Biso   1.000  C
  C110     1.0000 0.82730  0.19190  0.62060  Biso   1.000  C
  Eu6      1.0000 0.39933  0.68422  0.35044  Biso   1.000  Eu
  Cl61     1.0000 0.58050  0.81314  0.28065  Biso   1.000  Cl
  Cl62     1.0000 0.65804  0.86565  0.40970  Biso   1.000  Cl
  Cl63     1.0000 0.50129  0.87340  0.66113  Biso   1.000  Cl
  Cl64     1.0000 0.42405  0.82728  0.52384  Biso   1.000  Cl
  Cl65     1.0000 0.54173  0.06711  0.61890  Biso   1.000  Cl
  Cl66     1.0000 0.57766  0.97872  0.50012  Biso   1.000  Cl
  Cl67     1.0000 0.63288  0.87740  0.80260  Biso   1.000  Cl
  Cl68     1.0000 0.61071  0.97330  0.91442  Biso   1.000  Cl
  Cl69     1.0000 0.71603  0.95034  0.58560  Biso   1.000  Cl
  Cl70     1.0000 0.82363  0.89815  0.61530  Biso   1.000  Cl
  Cl71     1.0000 0.72308  0.72100  0.64466  Biso   1.000  Cl
  Cl72     1.0000 0.61560  0.77286  0.62909  Biso   1.000  Cl
  O31      1.0000 0.45410  0.75408  0.36070  Biso   1.000  O
  O32      1.0000 0.45490  0.82342  0.27770  Biso   1.000  O
  O33      1.0000 0.51810  0.06080  0.85090  Biso   1.000  O
  O34      1.0000 0.59560  0.09604  0.81960  Biso   1.000  O
  O35      1.0000 0.84200  0.80430  0.72810  Biso   1.000  O
  O36      1.0000 0.83740  0.75250  0.60860  Biso   1.000  O
  C111     1.0000 0.46820  0.79690  0.34400  Biso   1.000  C
  C112     1.0000 0.56230  0.06130  0.81680  Biso   1.000  C
  C113     1.0000 0.82110  0.78800  0.65800  Biso   1.000  C
  C114     1.0000 0.50730  0.82130  0.41000  Biso   1.000  C
  C115     1.0000 0.55930  0.83050  0.38690  Biso   1.000  C
  C116     1.0000 0.59420  0.85250  0.44780  Biso   1.000  C
  C117     1.0000 0.57810  0.86640  0.53330  Biso   1.000  C
  C118     1.0000 0.52470  0.85840  0.55510  Biso   1.000  C
  C119     1.0000 0.49070  0.83600  0.49520  Biso   1.000  C
  C120     1.0000 0.61710  0.88580  0.59870  Biso   1.000  C
  C121     1.0000 0.57790  0.01580  0.76030  Biso   1.000  C
  C122     1.0000 0.56980  0.01490  0.66870  Biso   1.000  C
  C123     1.0000 0.58430  0.97420  0.61410  Biso   1.000  C
  C124     1.0000 0.60400  0.93070  0.65500  Biso   1.000  C
  C125     1.0000 0.61170  0.93140  0.74780  Biso   1.000  C
  C126     1.0000 0.60000  0.97290  0.79770  Biso   1.000  C
  C127     1.0000 0.66870  0.86050  0.61010  Biso   1.000  C
  C128     1.0000 0.71690  0.88680  0.60900  Biso   1.000  C
  C129     1.0000 0.76570  0.86370  0.62100  Biso   1.000  C
  C130     1.0000 0.76930  0.81250  0.63300  Biso   1.000  C
  C131     1.0000 0.72180  0.78520  0.62980  Biso   1.000  C
  C132     1.0000 0.67270  0.80810  0.62060  Biso   1.000  C
  Eu7      1.0000 0.39933  0.81578  0.14956  Biso   1.000  Eu
  Cl73     1.0000 0.58050  0.68686  0.21935  Biso   1.000  Cl
  Cl74     1.0000 0.65804  0.63435  0.09030  Biso   1.000  Cl
  Cl75     1.0000 0.50129  0.62660  0.83887  Biso   1.000  Cl
  Cl76     1.0000 0.42405  0.67272  0.97616  Biso   1.000  Cl
  Cl77     1.0000 0.54173  0.43289  0.88110  Biso   1.000  Cl
  Cl78     1.0000 0.57766  0.52128  0.99988  Biso   1.000  Cl
  Cl79     1.0000 0.63288  0.62260  0.69740  Biso   1.000  Cl
  Cl80     1.0000 0.61071  0.52670  0.58558  Biso   1.000  Cl
  Cl81     1.0000 0.71603  0.54966  0.91440  Biso   1.000  Cl
  Cl82     1.0000 0.82363  0.60185  0.88470  Biso   1.000  Cl
  Cl83     1.0000 0.72308  0.77900  0.85534  Biso   1.000  Cl
  Cl84     1.0000 0.61560  0.72714  0.87091  Biso   1.000  Cl
  O37      1.0000 0.45410  0.74592  0.13930  Biso   1.000  O
  O38      1.0000 0.45490  0.67658  0.22230  Biso   1.000  O
  O39      1.0000 0.51810  0.43920  0.64910  Biso   1.000  O
  O40      1.0000 0.59560  0.40396  0.68040  Biso   1.000  O
  O41      1.0000 0.84200  0.69570  0.77190  Biso   1.000  O
  O42      1.0000 0.83740  0.74750  0.89140  Biso   1.000  O
  C133     1.0000 0.46820  0.70310  0.15600  Biso   1.000  C
  C134     1.0000 0.56230  0.43870  0.68320  Biso   1.000  C
  C135     1.0000 0.82110  0.71200  0.84200  Biso   1.000  C
  C136     1.0000 0.50730  0.67870  0.09000  Biso   1.000  C
  C137     1.0000 0.55930  0.66950  0.11310  Biso   1.000  C
  C138     1.0000 0.59420  0.64750  0.05220  Biso   1.000  C
  C139     1.0000 0.57810  0.63360  0.96670  Biso   1.000  C
  C140     1.0000 0.52470  0.64160  0.94490  Biso   1.000  C
  C141     1.0000 0.49070  0.66400  0.00480  Biso   1.000  C
  C142     1.0000 0.61710  0.61420  0.90130  Biso   1.000  C
  C143     1.0000 0.57790  0.48420  0.73970  Biso   1.000  C
  C144     1.0000 0.56980  0.48510  0.83130  Biso   1.000  C
  C145     1.0000 0.58430  0.52580  0.88590  Biso   1.000  C
  C146     1.0000 0.60400  0.56930  0.84500  Biso   1.000  C
  C147     1.0000 0.61170  0.56860  0.75220  Biso   1.000  C
  C148     1.0000 0.60000  0.52710  0.70230  Biso   1.000  C
  C149     1.0000 0.66870  0.63950  0.88990  Biso   1.000  C
  C150     1.0000 0.71690  0.61320  0.89100  Biso   1.000  C
  C151     1.0000 0.76570  0.63630  0.87900  Biso   1.000  C
  C152     1.0000 0.76930  0.68750  0.86700  Biso   1.000  C
  C153     1.0000 0.72180  0.71480  0.87020  Biso   1.000  C
  C154     1.0000 0.67270  0.69190  0.87940  Biso   1.000  C
  Eu8      1.0000 0.10067  0.18422  0.14956  Biso   1.000  Eu
  Cl85     1.0000 0.91950  0.31314  0.21935  Biso   1.000  Cl
  Cl86     1.0000 0.84196  0.36565  0.09030  Biso   1.000  Cl
  Cl87     1.0000 0.99871  0.37340  0.83887  Biso   1.000  Cl
  Cl88     1.0000 0.07595  0.32728  0.97616  Biso   1.000  Cl
  Cl89     1.0000 0.95827  0.56711  0.88110  Biso   1.000  Cl
  Cl90     1.0000 0.92234  0.47872  0.99988  Biso   1.000  Cl
  Cl91     1.0000 0.86712  0.37740  0.69740  Biso   1.000  Cl
  Cl92     1.0000 0.88929  0.47330  0.58558  Biso   1.000  Cl
  Cl93     1.0000 0.78397  0.45034  0.91440  Biso   1.000  Cl
  Cl94     1.0000 0.67637  0.39815  0.88470  Biso   1.000  Cl
  Cl95     1.0000 0.77692  0.22100  0.85534  Biso   1.000  Cl
  Cl96     1.0000 0.88440  0.27286  0.87091  Biso   1.000  Cl
  O43      1.0000 0.04590  0.25408  0.13930  Biso   1.000  O
  O44      1.0000 0.04510  0.32342  0.22230  Biso   1.000  O
  O45      1.0000 0.98190  0.56080  0.64910  Biso   1.000  O
  O46      1.0000 0.90440  0.59604  0.68040  Biso   1.000  O
  O47      1.0000 0.65800  0.30430  0.77190  Biso   1.000  O
  O48      1.0000 0.66260  0.25250  0.89140  Biso   1.000  O
  C155     1.0000 0.03180  0.29690  0.15600  Biso   1.000  C
  C156     1.0000 0.93770  0.56130  0.68320  Biso   1.000  C
  C157     1.0000 0.67890  0.28800  0.84200  Biso   1.000  C
  C158     1.0000 0.99270  0.32130  0.09000  Biso   1.000  C
  C159     1.0000 0.94070  0.33050  0.11310  Biso   1.000  C
  C160     1.0000 0.90580  0.35250  0.05220  Biso   1.000  C
  C161     1.0000 0.92190  0.36640  0.96670  Biso   1.000  C
  C162     1.0000 0.97530  0.35840  0.94490  Biso   1.000  C
  C163     1.0000 0.00930  0.33600  0.00480  Biso   1.000  C
  C164     1.0000 0.88290  0.38580  0.90130  Biso   1.000  C
  C165     1.0000 0.92210  0.51580  0.73970  Biso   1.000  C
  C166     1.0000 0.93020  0.51490  0.83130  Biso   1.000  C
  C167     1.0000 0.91570  0.47420  0.88590  Biso   1.000  C
  C168     1.0000 0.89600  0.43070  0.84500  Biso   1.000  C
  C169     1.0000 0.88830  0.43140  0.75220  Biso   1.000  C
  C170     1.0000 0.90000  0.47290  0.70230  Biso   1.000  C
  C171     1.0000 0.83130  0.36050  0.88990  Biso   1.000  C
  C172     1.0000 0.78310  0.38680  0.89100  Biso   1.000  C
  C173     1.0000 0.73430  0.36370  0.87900  Biso   1.000  C
  C174     1.0000 0.73070  0.31250  0.86700  Biso   1.000  C
  C175     1.0000 0.77820  0.28520  0.87020  Biso   1.000  C
  C176     1.0000 0.82730  0.30810  0.87940  Biso   1.000  C
