data_image0
_cell_length_a       25.361
_cell_length_b       26.6184
_cell_length_c       14.5318
_cell_angle_alpha    90
_cell_angle_beta     90
_cell_angle_gamma    90

_symmetry_space_group_name_H-M    "P 1"
_symmetry_int_tables_number       1

loop_
  _symmetry_equiv_pos_as_xyz
  'x, y, z'

loop_
  _atom_site_label
  _atom_site_occupancy
  _atom_site_fract_x
  _atom_site_fract_y
  _atom_site_fract_z
  _atom_site_thermal_displace_type
  _atom_site_B_iso_or_equiv
  _atom_site_type_symbol
  Gd1      1.0000 0.39778  0.81534  0.14684  Biso   1.000  Gd
  Cl1      1.0000 0.57644  0.68503  0.22612  Biso   1.000  Cl
  Cl2      1.0000 0.65531  0.63395  0.09695  Biso   1.000  Cl
  Cl3      1.0000 0.50447  0.62798  0.83274  Biso   1.000  Cl
  Cl4      1.0000 0.42558  0.67298  0.97068  Biso   1.000  Cl
  Cl5      1.0000 0.54282  0.43303  0.87966  Biso   1.000  Cl
  Cl6      1.0000 0.57769  0.52128  0.00158  Biso   1.000  Cl
  Cl7      1.0000 0.63603  0.62256  0.69455  Biso   1.000  Cl
  Cl8      1.0000 0.61286  0.52691  0.57972  Biso   1.000  Cl
  Cl9      1.0000 0.71593  0.54972  0.91870  Biso   1.000  Cl
  Cl10     1.0000 0.82270  0.60138  0.88873  Biso   1.000  Cl
  Cl11     1.0000 0.72411  0.77920  0.85672  Biso   1.000  Cl
  Cl12     1.0000 0.61697  0.72787  0.87215  Biso   1.000  Cl
  O1       1.0000 0.45178  0.74559  0.13670  Biso   1.000  O
  O2       1.0000 0.45282  0.67671  0.22340  Biso   1.000  O
  O3       1.0000 0.52190  0.44090  0.63860  Biso   1.000  O
  O4       1.0000 0.59764  0.40359  0.67690  Biso   1.000  O
  O5       1.0000 0.84124  0.69524  0.77180  Biso   1.000  O
  O6       1.0000 0.83716  0.74719  0.89430  Biso   1.000  O
  C1       1.0000 0.46620  0.70210  0.15650  Biso   1.000  C
  C2       1.0000 0.56490  0.43910  0.67710  Biso   1.000  C
  C3       1.0000 0.82100  0.71220  0.84450  Biso   1.000  C
  C4       1.0000 0.50530  0.67850  0.09080  Biso   1.000  C
  C5       1.0000 0.55740  0.66910  0.11730  Biso   1.000  C
  C6       1.0000 0.59240  0.64710  0.05610  Biso   1.000  C
  C7       1.0000 0.57840  0.63430  0.96660  Biso   1.000  C
  C8       1.0000 0.52580  0.64270  0.94150  Biso   1.000  C
  C9       1.0000 0.49060  0.66420  0.00370  Biso   1.000  C
  C10      1.0000 0.61820  0.61440  0.90120  Biso   1.000  C
  C11      1.0000 0.57970  0.48450  0.73670  Biso   1.000  C
  C12      1.0000 0.57130  0.48490  0.83060  Biso   1.000  C
  C13      1.0000 0.58500  0.52590  0.88560  Biso   1.000  C
  C14      1.0000 0.60630  0.56960  0.84470  Biso   1.000  C
  C15      1.0000 0.61440  0.56880  0.75030  Biso   1.000  C
  C16      1.0000 0.60200  0.52710  0.69710  Biso   1.000  C
  C17      1.0000 0.66910  0.63980  0.89220  Biso   1.000  C
  C18      1.0000 0.71730  0.61280  0.89510  Biso   1.000  C
  C19      1.0000 0.76520  0.63580  0.88340  Biso   1.000  C
  C20      1.0000 0.76880  0.68740  0.86930  Biso   1.000  C
  C21      1.0000 0.72230  0.71450  0.87220  Biso   1.000  C
  C22      1.0000 0.67340  0.69180  0.88200  Biso   1.000  C
  Gd2      1.0000 0.10222  0.18466  0.14684  Biso   1.000  Gd
  Cl13     1.0000 0.92356  0.31497  0.22612  Biso   1.000  Cl
  Cl14     1.0000 0.84469  0.36605  0.09695  Biso   1.000  Cl
  Cl15     1.0000 0.99553  0.37202  0.83274  Biso   1.000  Cl
  Cl16     1.0000 0.07442  0.32702  0.97068  Biso   1.000  Cl
  Cl17     1.0000 0.95718  0.56697  0.87966  Biso   1.000  Cl
  Cl18     1.0000 0.92231  0.47872  0.00158  Biso   1.000  Cl
  Cl19     1.0000 0.86397  0.37744  0.69455  Biso   1.000  Cl
  Cl20     1.0000 0.88714  0.47309  0.57972  Biso   1.000  Cl
  Cl21     1.0000 0.78407  0.45028  0.91870  Biso   1.000  Cl
  Cl22     1.0000 0.67730  0.39862  0.88873  Biso   1.000  Cl
  Cl23     1.0000 0.77589  0.22080  0.85672  Biso   1.000  Cl
  Cl24     1.0000 0.88303  0.27213  0.87215  Biso   1.000  Cl
  O7       1.0000 0.04822  0.25441  0.13670  Biso   1.000  O
  O8       1.0000 0.04718  0.32329  0.22340  Biso   1.000  O
  O9       1.0000 0.97810  0.55910  0.63860  Biso   1.000  O
  O10      1.0000 0.90236  0.59641  0.67690  Biso   1.000  O
  O11      1.0000 0.65876  0.30476  0.77180  Biso   1.000  O
  O12      1.0000 0.66284  0.25281  0.89430  Biso   1.000  O
  C23      1.0000 0.03380  0.29790  0.15650  Biso   1.000  C
  C24      1.0000 0.93510  0.56090  0.67710  Biso   1.000  C
  C25      1.0000 0.67900  0.28780  0.84450  Biso   1.000  C
  C26      1.0000 0.99470  0.32150  0.09080  Biso   1.000  C
  C27      1.0000 0.94260  0.33090  0.11730  Biso   1.000  C
  C28      1.0000 0.90760  0.35290  0.05610  Biso   1.000  C
  C29      1.0000 0.92160  0.36570  0.96660  Biso   1.000  C
  C30      1.0000 0.97420  0.35730  0.94150  Biso   1.000  C
  C31      1.0000 0.00940  0.33580  0.00370  Biso   1.000  C
  C32      1.0000 0.88180  0.38560  0.90120  Biso   1.000  C
  C33      1.0000 0.92030  0.51550  0.73670  Biso   1.000  C
  C34      1.0000 0.92870  0.51510  0.83060  Biso   1.000  C
  C35      1.0000 0.91500  0.47410  0.88560  Biso   1.000  C
  C36      1.0000 0.89370  0.43040  0.84470  Biso   1.000  C
  C37      1.0000 0.88560  0.43120  0.75030  Biso   1.000  C
  C38      1.0000 0.89800  0.47290  0.69710  Biso   1.000  C
  C39      1.0000 0.83090  0.36020  0.89220  Biso   1.000  C
  C40      1.0000 0.78270  0.38720  0.89510  Biso   1.000  C
  C41      1.0000 0.73480  0.36420  0.88340  Biso   1.000  C
  C42      1.0000 0.73120  0.31260  0.86930  Biso   1.000  C
  C43      1.0000 0.77770  0.28550  0.87220  Biso   1.000  C
  C44      1.0000 0.82660  0.30820  0.88200  Biso   1.000  C
  Gd3      1.0000 0.10222  0.31534  0.35316  Biso   1.000  Gd
  Cl25     1.0000 0.92356  0.18503  0.27388  Biso   1.000  Cl
  Cl26     1.0000 0.84469  0.13395  0.40305  Biso   1.000  Cl
  Cl27     1.0000 0.99553  0.12798  0.66726  Biso   1.000  Cl
  Cl28     1.0000 0.07442  0.17298  0.52932  Biso   1.000  Cl
  Cl29     1.0000 0.95718  0.93303  0.62034  Biso   1.000  Cl
  Cl30     1.0000 0.92231  0.02128  0.49842  Biso   1.000  Cl
  Cl31     1.0000 0.86397  0.12256  0.80545  Biso   1.000  Cl
  Cl32     1.0000 0.88714  0.02691  0.92028  Biso   1.000  Cl
  Cl33     1.0000 0.78407  0.04972  0.58130  Biso   1.000  Cl
  Cl34     1.0000 0.67730  0.10138  0.61127  Biso   1.000  Cl
  Cl35     1.0000 0.77589  0.27920  0.64328  Biso   1.000  Cl
  Cl36     1.0000 0.88303  0.22787  0.62785  Biso   1.000  Cl
  O13      1.0000 0.04822  0.24559  0.36330  Biso   1.000  O
  O14      1.0000 0.04718  0.17671  0.27660  Biso   1.000  O
  O15      1.0000 0.97810  0.94090  0.86140  Biso   1.000  O
  O16      1.0000 0.90236  0.90359  0.82310  Biso   1.000  O
  O17      1.0000 0.65876  0.19524  0.72820  Biso   1.000  O
  O18      1.0000 0.66284  0.24719  0.60570  Biso   1.000  O
  C45      1.0000 0.03380  0.20210  0.34350  Biso   1.000  C
  C46      1.0000 0.93510  0.93910  0.82290  Biso   1.000  C
  C47      1.0000 0.67900  0.21220  0.65550  Biso   1.000  C
  C48      1.0000 0.99470  0.17850  0.40920  Biso   1.000  C
  C49      1.0000 0.94260  0.16910  0.38270  Biso   1.000  C
  C50      1.0000 0.90760  0.14710  0.44390  Biso   1.000  C
  C51      1.0000 0.92160  0.13430  0.53340  Biso   1.000  C
  C52      1.0000 0.97420  0.14270  0.55850  Biso   1.000  C
  C53      1.0000 0.00940  0.16420  0.49630  Biso   1.000  C
  C54      1.0000 0.88180  0.11440  0.59880  Biso   1.000  C
  C55      1.0000 0.92030  0.98450  0.76330  Biso   1.000  C
  C56      1.0000 0.92870  0.98490  0.66940  Biso   1.000  C
  C57      1.0000 0.91500  0.02590  0.61440  Biso   1.000  C
  C58      1.0000 0.89370  0.06960  0.65530  Biso   1.000  C
  C59      1.0000 0.88560  0.06880  0.74970  Biso   1.000  C
  C60      1.0000 0.89800  0.02710  0.80290  Biso   1.000  C
  C61      1.0000 0.83090  0.13980  0.60780  Biso   1.000  C
  C62      1.0000 0.78270  0.11280  0.60490  Biso   1.000  C
  C63      1.0000 0.73480  0.13580  0.61660  Biso   1.000  C
  C64      1.0000 0.73120  0.18740  0.63070  Biso   1.000  C
  C65      1.0000 0.77770  0.21450  0.62780  Biso   1.000  C
  C66      1.0000 0.82660  0.19180  0.61800  Biso   1.000  C
  Gd4      1.0000 0.39778  0.68466  0.35316  Biso   1.000  Gd
  Cl37     1.0000 0.57644  0.81497  0.27388  Biso   1.000  Cl
  Cl38     1.0000 0.65531  0.86605  0.40305  Biso   1.000  Cl
  Cl39     1.0000 0.50447  0.87202  0.66726  Biso   1.000  Cl
  Cl40     1.0000 0.42558  0.82702  0.52932  Biso   1.000  Cl
  Cl41     1.0000 0.54282  0.06697  0.62034  Biso   1.000  Cl
  Cl42     1.0000 0.57769  0.97872  0.49842  Biso   1.000  Cl
  Cl43     1.0000 0.63603  0.87744  0.80545  Biso   1.000  Cl
  Cl44     1.0000 0.61286  0.97309  0.92028  Biso   1.000  Cl
  Cl45     1.0000 0.71593  0.95028  0.58130  Biso   1.000  Cl
  Cl46     1.0000 0.82270  0.89862  0.61127  Biso   1.000  Cl
  Cl47     1.0000 0.72411  0.72080  0.64328  Biso   1.000  Cl
  Cl48     1.0000 0.61697  0.77213  0.62785  Biso   1.000  Cl
  O19      1.0000 0.45178  0.75441  0.36330  Biso   1.000  O
  O20      1.0000 0.45282  0.82329  0.27660  Biso   1.000  O
  O21      1.0000 0.52190  0.05910  0.86140  Biso   1.000  O
  O22      1.0000 0.59764  0.09641  0.82310  Biso   1.000  O
  O23      1.0000 0.84124  0.80476  0.72820  Biso   1.000  O
  O24      1.0000 0.83716  0.75281  0.60570  Biso   1.000  O
  C67      1.0000 0.46620  0.79790  0.34350  Biso   1.000  C
  C68      1.0000 0.56490  0.06090  0.82290  Biso   1.000  C
  C69      1.0000 0.82100  0.78780  0.65550  Biso   1.000  C
  C70      1.0000 0.50530  0.82150  0.40920  Biso   1.000  C
  C71      1.0000 0.55740  0.83090  0.38270  Biso   1.000  C
  C72      1.0000 0.59240  0.85290  0.44390  Biso   1.000  C
  C73      1.0000 0.57840  0.86570  0.53340  Biso   1.000  C
  C74      1.0000 0.52580  0.85730  0.55850  Biso   1.000  C
  C75      1.0000 0.49060  0.83580  0.49630  Biso   1.000  C
  C76      1.0000 0.61820  0.88560  0.59880  Biso   1.000  C
  C77      1.0000 0.57970  0.01550  0.76330  Biso   1.000  C
  C78      1.0000 0.57130  0.01510  0.66940  Biso   1.000  C
  C79      1.0000 0.58500  0.97410  0.61440  Biso   1.000  C
  C80      1.0000 0.60630  0.93040  0.65530  Biso   1.000  C
  C81      1.0000 0.61440  0.93120  0.74970  Biso   1.000  C
  C82      1.0000 0.60200  0.97290  0.80290  Biso   1.000  C
  C83      1.0000 0.66910  0.86020  0.60780  Biso   1.000  C
  C84      1.0000 0.71730  0.88720  0.60490  Biso   1.000  C
  C85      1.0000 0.76520  0.86420  0.61660  Biso   1.000  C
  C86      1.0000 0.76880  0.81260  0.63070  Biso   1.000  C
  C87      1.0000 0.72230  0.78550  0.62780  Biso   1.000  C
  C88      1.0000 0.67340  0.80820  0.61800  Biso   1.000  C
  Gd5      1.0000 0.60222  0.18466  0.85316  Biso   1.000  Gd
  Cl49     1.0000 0.42356  0.31497  0.77388  Biso   1.000  Cl
  Cl50     1.0000 0.34469  0.36605  0.90305  Biso   1.000  Cl
  Cl51     1.0000 0.49553  0.37202  0.16726  Biso   1.000  Cl
  Cl52     1.0000 0.57442  0.32702  0.02932  Biso   1.000  Cl
  Cl53     1.0000 0.45718  0.56697  0.12034  Biso   1.000  Cl
  Cl54     1.0000 0.42231  0.47872  0.99842  Biso   1.000  Cl
  Cl55     1.0000 0.36397  0.37744  0.30545  Biso   1.000  Cl
  Cl56     1.0000 0.38714  0.47309  0.42028  Biso   1.000  Cl
  Cl57     1.0000 0.28407  0.45028  0.08130  Biso   1.000  Cl
  Cl58     1.0000 0.17730  0.39862  0.11127  Biso   1.000  Cl
  Cl59     1.0000 0.27589  0.22080  0.14328  Biso   1.000  Cl
  Cl60     1.0000 0.38303  0.27213  0.12785  Biso   1.000  Cl
  O25      1.0000 0.54822  0.25441  0.86330  Biso   1.000  O
  O26      1.0000 0.54718  0.32329  0.77660  Biso   1.000  O
  O27      1.0000 0.47810  0.55910  0.36140  Biso   1.000  O
  O28      1.0000 0.40236  0.59641  0.32310  Biso   1.000  O
  O29      1.0000 0.15876  0.30476  0.22820  Biso   1.000  O
  O30      1.0000 0.16284  0.25281  0.10570  Biso   1.000  O
  C89      1.0000 0.53380  0.29790  0.84350  Biso   1.000  C
  C90      1.0000 0.43510  0.56090  0.32290  Biso   1.000  C
  C91      1.0000 0.17900  0.28780  0.15550  Biso   1.000  C
  C92      1.0000 0.49470  0.32150  0.90920  Biso   1.000  C
  C93      1.0000 0.44260  0.33090  0.88270  Biso   1.000  C
  C94      1.0000 0.40760  0.35290  0.94390  Biso   1.000  C
  C95      1.0000 0.42160  0.36570  0.03340  Biso   1.000  C
  C96      1.0000 0.47420  0.35730  0.05850  Biso   1.000  C
  C97      1.0000 0.50940  0.33580  0.99630  Biso   1.000  C
  C98      1.0000 0.38180  0.38560  0.09880  Biso   1.000  C
  C99      1.0000 0.42030  0.51550  0.26330  Biso   1.000  C
  C100     1.0000 0.42870  0.51510  0.16940  Biso   1.000  C
  C101     1.0000 0.41500  0.47410  0.11440  Biso   1.000  C
  C102     1.0000 0.39370  0.43040  0.15530  Biso   1.000  C
  C103     1.0000 0.38560  0.43120  0.24970  Biso   1.000  C
  C104     1.0000 0.39800  0.47290  0.30290  Biso   1.000  C
  C105     1.0000 0.33090  0.36020  0.10780  Biso   1.000  C
  C106     1.0000 0.28270  0.38720  0.10490  Biso   1.000  C
  C107     1.0000 0.23480  0.36420  0.11660  Biso   1.000  C
  C108     1.0000 0.23120  0.31260  0.13070  Biso   1.000  C
  C109     1.0000 0.27770  0.28550  0.12780  Biso   1.000  C
  C110     1.0000 0.32660  0.30820  0.11800  Biso   1.000  C
  Gd6      1.0000 0.89778  0.81534  0.85316  Biso   1.000  Gd
  Cl61     1.0000 0.07644  0.68503  0.77388  Biso   1.000  Cl
  Cl62     1.0000 0.15531  0.63395  0.90305  Biso   1.000  Cl
  Cl63     1.0000 0.00447  0.62798  0.16726  Biso   1.000  Cl
  Cl64     1.0000 0.92558  0.67298  0.02932  Biso   1.000  Cl
  Cl65     1.0000 0.04282  0.43303  0.12034  Biso   1.000  Cl
  Cl66     1.0000 0.07769  0.52128  0.99842  Biso   1.000  Cl
  Cl67     1.0000 0.13603  0.62256  0.30545  Biso   1.000  Cl
  Cl68     1.0000 0.11286  0.52691  0.42028  Biso   1.000  Cl
  Cl69     1.0000 0.21593  0.54972  0.08130  Biso   1.000  Cl
  Cl70     1.0000 0.32270  0.60138  0.11127  Biso   1.000  Cl
  Cl71     1.0000 0.22411  0.77920  0.14328  Biso   1.000  Cl
  Cl72     1.0000 0.11697  0.72787  0.12785  Biso   1.000  Cl
  O31      1.0000 0.95178  0.74559  0.86330  Biso   1.000  O
  O32      1.0000 0.95282  0.67671  0.77660  Biso   1.000  O
  O33      1.0000 0.02190  0.44090  0.36140  Biso   1.000  O
  O34      1.0000 0.09764  0.40359  0.32310  Biso   1.000  O
  O35      1.0000 0.34124  0.69524  0.22820  Biso   1.000  O
  O36      1.0000 0.33716  0.74719  0.10570  Biso   1.000  O
  C111     1.0000 0.96620  0.70210  0.84350  Biso   1.000  C
  C112     1.0000 0.06490  0.43910  0.32290  Biso   1.000  C
  C113     1.0000 0.32100  0.71220  0.15550  Biso   1.000  C
  C114     1.0000 0.00530  0.67850  0.90920  Biso   1.000  C
  C115     1.0000 0.05740  0.66910  0.88270  Biso   1.000  C
  C116     1.0000 0.09240  0.64710  0.94390  Biso   1.000  C
  C117     1.0000 0.07840  0.63430  0.03340  Biso   1.000  C
  C118     1.0000 0.02580  0.64270  0.05850  Biso   1.000  C
  C119     1.0000 0.99060  0.66420  0.99630  Biso   1.000  C
  C120     1.0000 0.11820  0.61440  0.09880  Biso   1.000  C
  C121     1.0000 0.07970  0.48450  0.26330  Biso   1.000  C
  C122     1.0000 0.07130  0.48490  0.16940  Biso   1.000  C
  C123     1.0000 0.08500  0.52590  0.11440  Biso   1.000  C
  C124     1.0000 0.10630  0.56960  0.15530  Biso   1.000  C
  C125     1.0000 0.11440  0.56880  0.24970  Biso   1.000  C
  C126     1.0000 0.10200  0.52710  0.30290  Biso   1.000  C
  C127     1.0000 0.16910  0.63980  0.10780  Biso   1.000  C
  C128     1.0000 0.21730  0.61280  0.10490  Biso   1.000  C
  C129     1.0000 0.26520  0.63580  0.11660  Biso   1.000  C
  C130     1.0000 0.26880  0.68740  0.13070  Biso   1.000  C
  C131     1.0000 0.22230  0.71450  0.12780  Biso   1.000  C
  C132     1.0000 0.17340  0.69180  0.11800  Biso   1.000  C
  Gd7      1.0000 0.89778  0.68466  0.64684  Biso   1.000  Gd
  Cl73     1.0000 0.07644  0.81497  0.72612  Biso   1.000  Cl
  Cl74     1.0000 0.15531  0.86605  0.59695  Biso   1.000  Cl
  Cl75     1.0000 0.00447  0.87202  0.33274  Biso   1.000  Cl
  Cl76     1.0000 0.92558  0.82702  0.47068  Biso   1.000  Cl
  Cl77     1.0000 0.04282  0.06697  0.37966  Biso   1.000  Cl
  Cl78     1.0000 0.07769  0.97872  0.50158  Biso   1.000  Cl
  Cl79     1.0000 0.13603  0.87744  0.19455  Biso   1.000  Cl
  Cl80     1.0000 0.11286  0.97309  0.07972  Biso   1.000  Cl
  Cl81     1.0000 0.21593  0.95028  0.41870  Biso   1.000  Cl
  Cl82     1.0000 0.32270  0.89862  0.38873  Biso   1.000  Cl
  Cl83     1.0000 0.22411  0.72080  0.35672  Biso   1.000  Cl
  Cl84     1.0000 0.11697  0.77213  0.37215  Biso   1.000  Cl
  O37      1.0000 0.95178  0.75441  0.63670  Biso   1.000  O
  O38      1.0000 0.95282  0.82329  0.72340  Biso   1.000  O
  O39      1.0000 0.02190  0.05910  0.13860  Biso   1.000  O
  O40      1.0000 0.09764  0.09641  0.17690  Biso   1.000  O
  O41      1.0000 0.34124  0.80476  0.27180  Biso   1.000  O
  O42      1.0000 0.33716  0.75281  0.39430  Biso   1.000  O
  C133     1.0000 0.96620  0.79790  0.65650  Biso   1.000  C
  C134     1.0000 0.06490  0.06090  0.17710  Biso   1.000  C
  C135     1.0000 0.32100  0.78780  0.34450  Biso   1.000  C
  C136     1.0000 0.00530  0.82150  0.59080  Biso   1.000  C
  C137     1.0000 0.05740  0.83090  0.61730  Biso   1.000  C
  C138     1.0000 0.09240  0.85290  0.55610  Biso   1.000  C
  C139     1.0000 0.07840  0.86570  0.46660  Biso   1.000  C
  C140     1.0000 0.02580  0.85730  0.44150  Biso   1.000  C
  C141     1.0000 0.99060  0.83580  0.50370  Biso   1.000  C
  C142     1.0000 0.11820  0.88560  0.40120  Biso   1.000  C
  C143     1.0000 0.07970  0.01550  0.23670  Biso   1.000  C
  C144     1.0000 0.07130  0.01510  0.33060  Biso   1.000  C
  C145     1.0000 0.08500  0.97410  0.38560  Biso   1.000  C
  C146     1.0000 0.10630  0.93040  0.34470  Biso   1.000  C
  C147     1.0000 0.11440  0.93120  0.25030  Biso   1.000  C
  C148     1.0000 0.10200  0.97290  0.19710  Biso   1.000  C
  C149     1.0000 0.16910  0.86020  0.39220  Biso   1.000  C
  C150     1.0000 0.21730  0.88720  0.39510  Biso   1.000  C
  C151     1.0000 0.26520  0.86420  0.38340  Biso   1.000  C
  C152     1.0000 0.26880  0.81260  0.36930  Biso   1.000  C
  C153     1.0000 0.22230  0.78550  0.37220  Biso   1.000  C
  C154     1.0000 0.17340  0.80820  0.38200  Biso   1.000  C
  Gd8      1.0000 0.60222  0.31534  0.64684  Biso   1.000  Gd
  Cl85     1.0000 0.42356  0.18503  0.72612  Biso   1.000  Cl
  Cl86     1.0000 0.34469  0.13395  0.59695  Biso   1.000  Cl
  Cl87     1.0000 0.49553  0.12798  0.33274  Biso   1.000  Cl
  Cl88     1.0000 0.57442  0.17298  0.47068  Biso   1.000  Cl
  Cl89     1.0000 0.45718  0.93303  0.37966  Biso   1.000  Cl
  Cl90     1.0000 0.42231  0.02128  0.50158  Biso   1.000  Cl
  Cl91     1.0000 0.36397  0.12256  0.19455  Biso   1.000  Cl
  Cl92     1.0000 0.38714  0.02691  0.07972  Biso   1.000  Cl
  Cl93     1.0000 0.28407  0.04972  0.41870  Biso   1.000  Cl
  Cl94     1.0000 0.17730  0.10138  0.38873  Biso   1.000  Cl
  Cl95     1.0000 0.27589  0.27920  0.35672  Biso   1.000  Cl
  Cl96     1.0000 0.38303  0.22787  0.37215  Biso   1.000  Cl
  O43      1.0000 0.54822  0.24559  0.63670  Biso   1.000  O
  O44      1.0000 0.54718  0.17671  0.72340  Biso   1.000  O
  O45      1.0000 0.47810  0.94090  0.13860  Biso   1.000  O
  O46      1.0000 0.40236  0.90359  0.17690  Biso   1.000  O
  O47      1.0000 0.15876  0.19524  0.27180  Biso   1.000  O
  O48      1.0000 0.16284  0.24719  0.39430  Biso   1.000  O
  C155     1.0000 0.53380  0.20210  0.65650  Biso   1.000  C
  C156     1.0000 0.43510  0.93910  0.17710  Biso   1.000  C
  C157     1.0000 0.17900  0.21220  0.34450  Biso   1.000  C
  C158     1.0000 0.49470  0.17850  0.59080  Biso   1.000  C
  C159     1.0000 0.44260  0.16910  0.61730  Biso   1.000  C
  C160     1.0000 0.40760  0.14710  0.55610  Biso   1.000  C
  C161     1.0000 0.42160  0.13430  0.46660  Biso   1.000  C
  C162     1.0000 0.47420  0.14270  0.44150  Biso   1.000  C
  C163     1.0000 0.50940  0.16420  0.50370  Biso   1.000  C
  C164     1.0000 0.38180  0.11440  0.40120  Biso   1.000  C
  C165     1.0000 0.42030  0.98450  0.23670  Biso   1.000  C
  C166     1.0000 0.42870  0.98490  0.33060  Biso   1.000  C
  C167     1.0000 0.41500  0.02590  0.38560  Biso   1.000  C
  C168     1.0000 0.39370  0.06960  0.34470  Biso   1.000  C
  C169     1.0000 0.38560  0.06880  0.25030  Biso   1.000  C
  C170     1.0000 0.39800  0.02710  0.19710  Biso   1.000  C
  C171     1.0000 0.33090  0.13980  0.39220  Biso   1.000  C
  C172     1.0000 0.28270  0.11280  0.39510  Biso   1.000  C
  C173     1.0000 0.23480  0.13580  0.38340  Biso   1.000  C
  C174     1.0000 0.23120  0.18740  0.36930  Biso   1.000  C
  C175     1.0000 0.27770  0.21450  0.37220  Biso   1.000  C
  C176     1.0000 0.32660  0.19180  0.38200  Biso   1.000  C
