data_image0
_cell_length_a       25.0692
_cell_length_b       26.5622
_cell_length_c       15.2443
_cell_angle_alpha    90
_cell_angle_beta     90
_cell_angle_gamma    90

_symmetry_space_group_name_H-M    "P 1"
_symmetry_int_tables_number       1

loop_
  _symmetry_equiv_pos_as_xyz
  'x, y, z'

loop_
  _atom_site_label
  _atom_site_occupancy
  _atom_site_fract_x
  _atom_site_fract_y
  _atom_site_fract_z
  _atom_site_thermal_displace_type
  _atom_site_B_iso_or_equiv
  _atom_site_type_symbol
  Tb1      1.0000 0.89950  0.68339  0.65482  Biso   1.000  Tb
  Cl1      1.0000 0.08107  0.81307  0.71690  Biso   1.000  Cl
  Cl2      1.0000 0.15835  0.86455  0.58866  Biso   1.000  Cl
  Cl3      1.0000 0.99957  0.87162  0.34649  Biso   1.000  Cl
  Cl4      1.0000 0.92315  0.82458  0.48154  Biso   1.000  Cl
  Cl5      1.0000 0.04294  0.06735  0.38487  Biso   1.000  Cl
  Cl6      1.0000 0.07709  0.97799  0.50005  Biso   1.000  Cl
  Cl7      1.0000 0.12971  0.87470  0.20594  Biso   1.000  Cl
  Cl8      1.0000 0.10856  0.97118  0.09702  Biso   1.000  Cl
  Cl9      1.0000 0.21516  0.94944  0.41729  Biso   1.000  Cl
  Cl10     1.0000 0.32324  0.89774  0.38458  Biso   1.000  Cl
  Cl11     1.0000 0.22341  0.71951  0.35171  Biso   1.000  Cl
  Cl12     1.0000 0.11506  0.77077  0.37298  Biso   1.000  Cl
  O1       1.0000 0.95327  0.75303  0.64200  Biso   1.000  O
  O2       1.0000 0.95510  0.82355  0.72090  Biso   1.000  O
  O3       1.0000 0.01810  0.05940  0.15710  Biso   1.000  O
  O4       1.0000 0.09573  0.09527  0.18780  Biso   1.000  O
  O5       1.0000 0.34242  0.80460  0.27270  Biso   1.000  O
  O6       1.0000 0.33824  0.75109  0.38640  Biso   1.000  O
  C1       1.0000 0.96801  0.79686  0.65790  Biso   1.000  C
  C2       1.0000 0.06220  0.06030  0.19150  Biso   1.000  C
  C3       1.0000 0.32152  0.78679  0.34080  Biso   1.000  C
  C4       1.0000 0.00619  0.82035  0.59150  Biso   1.000  C
  C5       1.0000 0.05940  0.82951  0.61410  Biso   1.000  C
  C6       1.0000 0.09379  0.85123  0.55410  Biso   1.000  C
  C7       1.0000 0.07772  0.86431  0.46910  Biso   1.000  C
  C8       1.0000 0.02395  0.85630  0.44910  Biso   1.000  C
  C9       1.0000 0.98961  0.83415  0.50930  Biso   1.000  C
  C10      1.0000 0.11600  0.88410  0.40340  Biso   1.000  C
  C11      1.0000 0.07800  0.01448  0.24650  Biso   1.000  C
  C12      1.0000 0.07000  0.01459  0.33700  Biso   1.000  C
  C13      1.0000 0.08330  0.97315  0.38770  Biso   1.000  C
  C14      1.0000 0.10315  0.92928  0.34960  Biso   1.000  C
  C15      1.0000 0.11020  0.92945  0.25920  Biso   1.000  C
  C16      1.0000 0.09830  0.97190  0.20910  Biso   1.000  C
  C17      1.0000 0.16810  0.85890  0.39260  Biso   1.000  C
  C18      1.0000 0.21601  0.88609  0.39390  Biso   1.000  C
  C19      1.0000 0.26536  0.86283  0.38020  Biso   1.000  C
  C20      1.0000 0.26870  0.81139  0.36520  Biso   1.000  C
  C21      1.0000 0.22123  0.78399  0.36940  Biso   1.000  C
  C22      1.0000 0.17214  0.80713  0.38080  Biso   1.000  C
  Tb2      1.0000 0.60050  0.31661  0.65482  Biso   1.000  Tb
  Cl13     1.0000 0.41893  0.18693  0.71690  Biso   1.000  Cl
  Cl14     1.0000 0.34165  0.13545  0.58866  Biso   1.000  Cl
  Cl15     1.0000 0.50043  0.12838  0.34649  Biso   1.000  Cl
  Cl16     1.0000 0.57685  0.17542  0.48154  Biso   1.000  Cl
  Cl17     1.0000 0.45706  0.93265  0.38487  Biso   1.000  Cl
  Cl18     1.0000 0.42291  0.02201  0.50005  Biso   1.000  Cl
  Cl19     1.0000 0.37029  0.12530  0.20594  Biso   1.000  Cl
  Cl20     1.0000 0.39144  0.02882  0.09702  Biso   1.000  Cl
  Cl21     1.0000 0.28484  0.05056  0.41729  Biso   1.000  Cl
  Cl22     1.0000 0.17676  0.10226  0.38458  Biso   1.000  Cl
  Cl23     1.0000 0.27659  0.28049  0.35171  Biso   1.000  Cl
  Cl24     1.0000 0.38494  0.22923  0.37298  Biso   1.000  Cl
  O7       1.0000 0.54673  0.24697  0.64200  Biso   1.000  O
  O8       1.0000 0.54490  0.17645  0.72090  Biso   1.000  O
  O9       1.0000 0.48190  0.94060  0.15710  Biso   1.000  O
  O10      1.0000 0.40427  0.90473  0.18780  Biso   1.000  O
  O11      1.0000 0.15758  0.19540  0.27270  Biso   1.000  O
  O12      1.0000 0.16176  0.24891  0.38640  Biso   1.000  O
  C23      1.0000 0.53199  0.20314  0.65790  Biso   1.000  C
  C24      1.0000 0.43780  0.93970  0.19150  Biso   1.000  C
  C25      1.0000 0.17848  0.21321  0.34080  Biso   1.000  C
  C26      1.0000 0.49381  0.17965  0.59150  Biso   1.000  C
  C27      1.0000 0.44060  0.17049  0.61410  Biso   1.000  C
  C28      1.0000 0.40621  0.14877  0.55410  Biso   1.000  C
  C29      1.0000 0.42228  0.13569  0.46910  Biso   1.000  C
  C30      1.0000 0.47605  0.14370  0.44910  Biso   1.000  C
  C31      1.0000 0.51039  0.16585  0.50930  Biso   1.000  C
  C32      1.0000 0.38400  0.11590  0.40340  Biso   1.000  C
  C33      1.0000 0.42200  0.98552  0.24650  Biso   1.000  C
  C34      1.0000 0.43000  0.98541  0.33700  Biso   1.000  C
  C35      1.0000 0.41670  0.02685  0.38770  Biso   1.000  C
  C36      1.0000 0.39685  0.07072  0.34960  Biso   1.000  C
  C37      1.0000 0.38980  0.07055  0.25920  Biso   1.000  C
  C38      1.0000 0.40170  0.02810  0.20910  Biso   1.000  C
  C39      1.0000 0.33190  0.14110  0.39260  Biso   1.000  C
  C40      1.0000 0.28399  0.11391  0.39390  Biso   1.000  C
  C41      1.0000 0.23464  0.13717  0.38020  Biso   1.000  C
  C42      1.0000 0.23130  0.18861  0.36520  Biso   1.000  C
  C43      1.0000 0.27877  0.21601  0.36940  Biso   1.000  C
  C44      1.0000 0.32786  0.19287  0.38080  Biso   1.000  C
  Tb3      1.0000 0.60050  0.18339  0.84518  Biso   1.000  Tb
  Cl25     1.0000 0.41893  0.31307  0.78310  Biso   1.000  Cl
  Cl26     1.0000 0.34165  0.36455  0.91134  Biso   1.000  Cl
  Cl27     1.0000 0.50043  0.37162  0.15351  Biso   1.000  Cl
  Cl28     1.0000 0.57685  0.32458  0.01846  Biso   1.000  Cl
  Cl29     1.0000 0.45706  0.56735  0.11513  Biso   1.000  Cl
  Cl30     1.0000 0.42291  0.47799  0.99995  Biso   1.000  Cl
  Cl31     1.0000 0.37029  0.37470  0.29406  Biso   1.000  Cl
  Cl32     1.0000 0.39144  0.47118  0.40298  Biso   1.000  Cl
  Cl33     1.0000 0.28484  0.44944  0.08271  Biso   1.000  Cl
  Cl34     1.0000 0.17676  0.39774  0.11542  Biso   1.000  Cl
  Cl35     1.0000 0.27659  0.21951  0.14829  Biso   1.000  Cl
  Cl36     1.0000 0.38494  0.27077  0.12702  Biso   1.000  Cl
  O13      1.0000 0.54673  0.25303  0.85800  Biso   1.000  O
  O14      1.0000 0.54490  0.32355  0.77910  Biso   1.000  O
  O15      1.0000 0.48190  0.55940  0.34290  Biso   1.000  O
  O16      1.0000 0.40427  0.59527  0.31220  Biso   1.000  O
  O17      1.0000 0.15758  0.30460  0.22730  Biso   1.000  O
  O18      1.0000 0.16176  0.25109  0.11360  Biso   1.000  O
  C45      1.0000 0.53199  0.29686  0.84210  Biso   1.000  C
  C46      1.0000 0.43780  0.56030  0.30850  Biso   1.000  C
  C47      1.0000 0.17848  0.28679  0.15920  Biso   1.000  C
  C48      1.0000 0.49381  0.32035  0.90850  Biso   1.000  C
  C49      1.0000 0.44060  0.32951  0.88590  Biso   1.000  C
  C50      1.0000 0.40621  0.35123  0.94590  Biso   1.000  C
  C51      1.0000 0.42228  0.36431  0.03090  Biso   1.000  C
  C52      1.0000 0.47605  0.35630  0.05090  Biso   1.000  C
  C53      1.0000 0.51039  0.33415  0.99070  Biso   1.000  C
  C54      1.0000 0.38400  0.38410  0.09660  Biso   1.000  C
  C55      1.0000 0.42200  0.51448  0.25350  Biso   1.000  C
  C56      1.0000 0.43000  0.51459  0.16300  Biso   1.000  C
  C57      1.0000 0.41670  0.47315  0.11230  Biso   1.000  C
  C58      1.0000 0.39685  0.42928  0.15040  Biso   1.000  C
  C59      1.0000 0.38980  0.42945  0.24080  Biso   1.000  C
  C60      1.0000 0.40170  0.47190  0.29090  Biso   1.000  C
  C61      1.0000 0.33190  0.35890  0.10740  Biso   1.000  C
  C62      1.0000 0.28399  0.38609  0.10610  Biso   1.000  C
  C63      1.0000 0.23464  0.36283  0.11980  Biso   1.000  C
  C64      1.0000 0.23130  0.31139  0.13480  Biso   1.000  C
  C65      1.0000 0.27877  0.28399  0.13060  Biso   1.000  C
  C66      1.0000 0.32786  0.30713  0.11920  Biso   1.000  C
  Tb4      1.0000 0.89950  0.81661  0.84518  Biso   1.000  Tb
  Cl37     1.0000 0.08107  0.68693  0.78310  Biso   1.000  Cl
  Cl38     1.0000 0.15835  0.63545  0.91134  Biso   1.000  Cl
  Cl39     1.0000 0.99957  0.62838  0.15351  Biso   1.000  Cl
  Cl40     1.0000 0.92315  0.67542  0.01846  Biso   1.000  Cl
  Cl41     1.0000 0.04294  0.43265  0.11513  Biso   1.000  Cl
  Cl42     1.0000 0.07709  0.52201  0.99995  Biso   1.000  Cl
  Cl43     1.0000 0.12971  0.62530  0.29406  Biso   1.000  Cl
  Cl44     1.0000 0.10856  0.52882  0.40298  Biso   1.000  Cl
  Cl45     1.0000 0.21516  0.55056  0.08271  Biso   1.000  Cl
  Cl46     1.0000 0.32324  0.60226  0.11542  Biso   1.000  Cl
  Cl47     1.0000 0.22341  0.78049  0.14829  Biso   1.000  Cl
  Cl48     1.0000 0.11506  0.72923  0.12702  Biso   1.000  Cl
  O19      1.0000 0.95327  0.74697  0.85800  Biso   1.000  O
  O20      1.0000 0.95510  0.67645  0.77910  Biso   1.000  O
  O21      1.0000 0.01810  0.44060  0.34290  Biso   1.000  O
  O22      1.0000 0.09573  0.40473  0.31220  Biso   1.000  O
  O23      1.0000 0.34242  0.69540  0.22730  Biso   1.000  O
  O24      1.0000 0.33824  0.74891  0.11360  Biso   1.000  O
  C67      1.0000 0.96801  0.70314  0.84210  Biso   1.000  C
  C68      1.0000 0.06220  0.43970  0.30850  Biso   1.000  C
  C69      1.0000 0.32152  0.71321  0.15920  Biso   1.000  C
  C70      1.0000 0.00619  0.67965  0.90850  Biso   1.000  C
  C71      1.0000 0.05940  0.67049  0.88590  Biso   1.000  C
  C72      1.0000 0.09379  0.64877  0.94590  Biso   1.000  C
  C73      1.0000 0.07772  0.63569  0.03090  Biso   1.000  C
  C74      1.0000 0.02395  0.64370  0.05090  Biso   1.000  C
  C75      1.0000 0.98961  0.66585  0.99070  Biso   1.000  C
  C76      1.0000 0.11600  0.61590  0.09660  Biso   1.000  C
  C77      1.0000 0.07800  0.48552  0.25350  Biso   1.000  C
  C78      1.0000 0.07000  0.48541  0.16300  Biso   1.000  C
  C79      1.0000 0.08330  0.52685  0.11230  Biso   1.000  C
  C80      1.0000 0.10315  0.57072  0.15040  Biso   1.000  C
  C81      1.0000 0.11020  0.57055  0.24080  Biso   1.000  C
  C82      1.0000 0.09830  0.52810  0.29090  Biso   1.000  C
  C83      1.0000 0.16810  0.64110  0.10740  Biso   1.000  C
  C84      1.0000 0.21601  0.61391  0.10610  Biso   1.000  C
  C85      1.0000 0.26536  0.63717  0.11980  Biso   1.000  C
  C86      1.0000 0.26870  0.68861  0.13480  Biso   1.000  C
  C87      1.0000 0.22123  0.71601  0.13060  Biso   1.000  C
  C88      1.0000 0.17214  0.69287  0.11920  Biso   1.000  C
  Tb5      1.0000 0.10050  0.31661  0.34518  Biso   1.000  Tb
  Cl49     1.0000 0.91893  0.18693  0.28310  Biso   1.000  Cl
  Cl50     1.0000 0.84165  0.13545  0.41134  Biso   1.000  Cl
  Cl51     1.0000 0.00043  0.12838  0.65351  Biso   1.000  Cl
  Cl52     1.0000 0.07685  0.17542  0.51846  Biso   1.000  Cl
  Cl53     1.0000 0.95706  0.93265  0.61513  Biso   1.000  Cl
  Cl54     1.0000 0.92291  0.02201  0.49995  Biso   1.000  Cl
  Cl55     1.0000 0.87029  0.12530  0.79406  Biso   1.000  Cl
  Cl56     1.0000 0.89144  0.02882  0.90298  Biso   1.000  Cl
  Cl57     1.0000 0.78484  0.05056  0.58271  Biso   1.000  Cl
  Cl58     1.0000 0.67676  0.10226  0.61542  Biso   1.000  Cl
  Cl59     1.0000 0.77659  0.28049  0.64829  Biso   1.000  Cl
  Cl60     1.0000 0.88494  0.22923  0.62702  Biso   1.000  Cl
  O25      1.0000 0.04673  0.24697  0.35800  Biso   1.000  O
  O26      1.0000 0.04490  0.17645  0.27910  Biso   1.000  O
  O27      1.0000 0.98190  0.94060  0.84290  Biso   1.000  O
  O28      1.0000 0.90427  0.90473  0.81220  Biso   1.000  O
  O29      1.0000 0.65758  0.19540  0.72730  Biso   1.000  O
  O30      1.0000 0.66176  0.24891  0.61360  Biso   1.000  O
  C89      1.0000 0.03199  0.20314  0.34210  Biso   1.000  C
  C90      1.0000 0.93780  0.93970  0.80850  Biso   1.000  C
  C91      1.0000 0.67848  0.21321  0.65920  Biso   1.000  C
  C92      1.0000 0.99381  0.17965  0.40850  Biso   1.000  C
  C93      1.0000 0.94060  0.17049  0.38590  Biso   1.000  C
  C94      1.0000 0.90621  0.14877  0.44590  Biso   1.000  C
  C95      1.0000 0.92228  0.13569  0.53090  Biso   1.000  C
  C96      1.0000 0.97605  0.14370  0.55090  Biso   1.000  C
  C97      1.0000 0.01039  0.16585  0.49070  Biso   1.000  C
  C98      1.0000 0.88400  0.11590  0.59660  Biso   1.000  C
  C99      1.0000 0.92200  0.98552  0.75350  Biso   1.000  C
  C100     1.0000 0.93000  0.98541  0.66300  Biso   1.000  C
  C101     1.0000 0.91670  0.02685  0.61230  Biso   1.000  C
  C102     1.0000 0.89685  0.07072  0.65040  Biso   1.000  C
  C103     1.0000 0.88980  0.07055  0.74080  Biso   1.000  C
  C104     1.0000 0.90170  0.02810  0.79090  Biso   1.000  C
  C105     1.0000 0.83190  0.14110  0.60740  Biso   1.000  C
  C106     1.0000 0.78399  0.11391  0.60610  Biso   1.000  C
  C107     1.0000 0.73464  0.13717  0.61980  Biso   1.000  C
  C108     1.0000 0.73130  0.18861  0.63480  Biso   1.000  C
  C109     1.0000 0.77877  0.21601  0.63060  Biso   1.000  C
  C110     1.0000 0.82786  0.19287  0.61920  Biso   1.000  C
  Tb6      1.0000 0.39950  0.68339  0.34518  Biso   1.000  Tb
  Cl61     1.0000 0.58107  0.81307  0.28310  Biso   1.000  Cl
  Cl62     1.0000 0.65835  0.86455  0.41134  Biso   1.000  Cl
  Cl63     1.0000 0.49957  0.87162  0.65351  Biso   1.000  Cl
  Cl64     1.0000 0.42315  0.82458  0.51846  Biso   1.000  Cl
  Cl65     1.0000 0.54294  0.06735  0.61513  Biso   1.000  Cl
  Cl66     1.0000 0.57709  0.97799  0.49995  Biso   1.000  Cl
  Cl67     1.0000 0.62971  0.87470  0.79406  Biso   1.000  Cl
  Cl68     1.0000 0.60856  0.97118  0.90298  Biso   1.000  Cl
  Cl69     1.0000 0.71516  0.94944  0.58271  Biso   1.000  Cl
  Cl70     1.0000 0.82324  0.89774  0.61542  Biso   1.000  Cl
  Cl71     1.0000 0.72341  0.71951  0.64829  Biso   1.000  Cl
  Cl72     1.0000 0.61506  0.77077  0.62702  Biso   1.000  Cl
  O31      1.0000 0.45327  0.75303  0.35800  Biso   1.000  O
  O32      1.0000 0.45510  0.82355  0.27910  Biso   1.000  O
  O33      1.0000 0.51810  0.05940  0.84290  Biso   1.000  O
  O34      1.0000 0.59573  0.09527  0.81220  Biso   1.000  O
  O35      1.0000 0.84242  0.80460  0.72730  Biso   1.000  O
  O36      1.0000 0.83824  0.75109  0.61360  Biso   1.000  O
  C111     1.0000 0.46801  0.79686  0.34210  Biso   1.000  C
  C112     1.0000 0.56220  0.06030  0.80850  Biso   1.000  C
  C113     1.0000 0.82152  0.78679  0.65920  Biso   1.000  C
  C114     1.0000 0.50619  0.82035  0.40850  Biso   1.000  C
  C115     1.0000 0.55940  0.82951  0.38590  Biso   1.000  C
  C116     1.0000 0.59379  0.85123  0.44590  Biso   1.000  C
  C117     1.0000 0.57772  0.86431  0.53090  Biso   1.000  C
  C118     1.0000 0.52395  0.85630  0.55090  Biso   1.000  C
  C119     1.0000 0.48961  0.83415  0.49070  Biso   1.000  C
  C120     1.0000 0.61600  0.88410  0.59660  Biso   1.000  C
  C121     1.0000 0.57800  0.01448  0.75350  Biso   1.000  C
  C122     1.0000 0.57000  0.01459  0.66300  Biso   1.000  C
  C123     1.0000 0.58330  0.97315  0.61230  Biso   1.000  C
  C124     1.0000 0.60315  0.92928  0.65040  Biso   1.000  C
  C125     1.0000 0.61020  0.92945  0.74080  Biso   1.000  C
  C126     1.0000 0.59830  0.97190  0.79090  Biso   1.000  C
  C127     1.0000 0.66810  0.85890  0.60740  Biso   1.000  C
  C128     1.0000 0.71601  0.88609  0.60610  Biso   1.000  C
  C129     1.0000 0.76536  0.86283  0.61980  Biso   1.000  C
  C130     1.0000 0.76870  0.81139  0.63480  Biso   1.000  C
  C131     1.0000 0.72123  0.78399  0.63060  Biso   1.000  C
  C132     1.0000 0.67214  0.80713  0.61920  Biso   1.000  C
  Tb7      1.0000 0.39950  0.81661  0.15482  Biso   1.000  Tb
  Cl73     1.0000 0.58107  0.68693  0.21690  Biso   1.000  Cl
  Cl74     1.0000 0.65835  0.63545  0.08866  Biso   1.000  Cl
  Cl75     1.0000 0.49957  0.62838  0.84649  Biso   1.000  Cl
  Cl76     1.0000 0.42315  0.67542  0.98154  Biso   1.000  Cl
  Cl77     1.0000 0.54294  0.43265  0.88487  Biso   1.000  Cl
  Cl78     1.0000 0.57709  0.52201  0.00005  Biso   1.000  Cl
  Cl79     1.0000 0.62971  0.62530  0.70594  Biso   1.000  Cl
  Cl80     1.0000 0.60856  0.52882  0.59702  Biso   1.000  Cl
  Cl81     1.0000 0.71516  0.55056  0.91729  Biso   1.000  Cl
  Cl82     1.0000 0.82324  0.60226  0.88458  Biso   1.000  Cl
  Cl83     1.0000 0.72341  0.78049  0.85171  Biso   1.000  Cl
  Cl84     1.0000 0.61506  0.72923  0.87298  Biso   1.000  Cl
  O37      1.0000 0.45327  0.74697  0.14200  Biso   1.000  O
  O38      1.0000 0.45510  0.67645  0.22090  Biso   1.000  O
  O39      1.0000 0.51810  0.44060  0.65710  Biso   1.000  O
  O40      1.0000 0.59573  0.40473  0.68780  Biso   1.000  O
  O41      1.0000 0.84242  0.69540  0.77270  Biso   1.000  O
  O42      1.0000 0.83824  0.74891  0.88640  Biso   1.000  O
  C133     1.0000 0.46801  0.70314  0.15790  Biso   1.000  C
  C134     1.0000 0.56220  0.43970  0.69150  Biso   1.000  C
  C135     1.0000 0.82152  0.71321  0.84080  Biso   1.000  C
  C136     1.0000 0.50619  0.67965  0.09150  Biso   1.000  C
  C137     1.0000 0.55940  0.67049  0.11410  Biso   1.000  C
  C138     1.0000 0.59379  0.64877  0.05410  Biso   1.000  C
  C139     1.0000 0.57772  0.63569  0.96910  Biso   1.000  C
  C140     1.0000 0.52395  0.64370  0.94910  Biso   1.000  C
  C141     1.0000 0.48961  0.66585  0.00930  Biso   1.000  C
  C142     1.0000 0.61600  0.61590  0.90340  Biso   1.000  C
  C143     1.0000 0.57800  0.48552  0.74650  Biso   1.000  C
  C144     1.0000 0.57000  0.48541  0.83700  Biso   1.000  C
  C145     1.0000 0.58330  0.52685  0.88770  Biso   1.000  C
  C146     1.0000 0.60315  0.57072  0.84960  Biso   1.000  C
  C147     1.0000 0.61020  0.57055  0.75920  Biso   1.000  C
  C148     1.0000 0.59830  0.52810  0.70910  Biso   1.000  C
  C149     1.0000 0.66810  0.64110  0.89260  Biso   1.000  C
  C150     1.0000 0.71601  0.61391  0.89390  Biso   1.000  C
  C151     1.0000 0.76536  0.63717  0.88020  Biso   1.000  C
  C152     1.0000 0.76870  0.68861  0.86520  Biso   1.000  C
  C153     1.0000 0.72123  0.71601  0.86940  Biso   1.000  C
  C154     1.0000 0.67214  0.69287  0.88080  Biso   1.000  C
  Tb8      1.0000 0.10050  0.18339  0.15482  Biso   1.000  Tb
  Cl85     1.0000 0.91893  0.31307  0.21690  Biso   1.000  Cl
  Cl86     1.0000 0.84165  0.36455  0.08866  Biso   1.000  Cl
  Cl87     1.0000 0.00043  0.37162  0.84649  Biso   1.000  Cl
  Cl88     1.0000 0.07685  0.32458  0.98154  Biso   1.000  Cl
  Cl89     1.0000 0.95706  0.56735  0.88487  Biso   1.000  Cl
  Cl90     1.0000 0.92291  0.47799  0.00005  Biso   1.000  Cl
  Cl91     1.0000 0.87029  0.37470  0.70594  Biso   1.000  Cl
  Cl92     1.0000 0.89144  0.47118  0.59702  Biso   1.000  Cl
  Cl93     1.0000 0.78484  0.44944  0.91729  Biso   1.000  Cl
  Cl94     1.0000 0.67676  0.39774  0.88458  Biso   1.000  Cl
  Cl95     1.0000 0.77659  0.21951  0.85171  Biso   1.000  Cl
  Cl96     1.0000 0.88494  0.27077  0.87298  Biso   1.000  Cl
  O43      1.0000 0.04673  0.25303  0.14200  Biso   1.000  O
  O44      1.0000 0.04490  0.32355  0.22090  Biso   1.000  O
  O45      1.0000 0.98190  0.55940  0.65710  Biso   1.000  O
  O46      1.0000 0.90427  0.59527  0.68780  Biso   1.000  O
  O47      1.0000 0.65758  0.30460  0.77270  Biso   1.000  O
  O48      1.0000 0.66176  0.25109  0.88640  Biso   1.000  O
  C155     1.0000 0.03199  0.29686  0.15790  Biso   1.000  C
  C156     1.0000 0.93780  0.56030  0.69150  Biso   1.000  C
  C157     1.0000 0.67848  0.28679  0.84080  Biso   1.000  C
  C158     1.0000 0.99381  0.32035  0.09150  Biso   1.000  C
  C159     1.0000 0.94060  0.32951  0.11410  Biso   1.000  C
  C160     1.0000 0.90621  0.35123  0.05410  Biso   1.000  C
  C161     1.0000 0.92228  0.36431  0.96910  Biso   1.000  C
  C162     1.0000 0.97605  0.35630  0.94910  Biso   1.000  C
  C163     1.0000 0.01039  0.33415  0.00930  Biso   1.000  C
  C164     1.0000 0.88400  0.38410  0.90340  Biso   1.000  C
  C165     1.0000 0.92200  0.51448  0.74650  Biso   1.000  C
  C166     1.0000 0.93000  0.51459  0.83700  Biso   1.000  C
  C167     1.0000 0.91670  0.47315  0.88770  Biso   1.000  C
  C168     1.0000 0.89685  0.42928  0.84960  Biso   1.000  C
  C169     1.0000 0.88980  0.42945  0.75920  Biso   1.000  C
  C170     1.0000 0.90170  0.47190  0.70910  Biso   1.000  C
  C171     1.0000 0.83190  0.35890  0.89260  Biso   1.000  C
  C172     1.0000 0.78399  0.38609  0.89390  Biso   1.000  C
  C173     1.0000 0.73464  0.36283  0.88020  Biso   1.000  C
  C174     1.0000 0.73130  0.31139  0.86520  Biso   1.000  C
  C175     1.0000 0.77877  0.28399  0.86940  Biso   1.000  C
  C176     1.0000 0.82786  0.30713  0.88080  Biso   1.000  C
