data_TASZEU_charged
_audit_creation_date              2014-07-02
_audit_creation_method            'Materials Studio'
_symmetry_space_group_name_H-M    'P1'
_symmetry_Int_Tables_number       1
_symmetry_cell_setting            triclinic
loop_
_symmetry_equiv_pos_as_xyz
  x,y,z
_cell_length_a                    28.2645
_cell_length_b                    28.2645
_cell_length_c                    28.2645
_cell_angle_alpha                 109.4710
_cell_angle_beta                  109.4710
_cell_angle_gamma                 109.4710
loop_
_atom_site_label
_atom_site_type_symbol
_atom_site_fract_x
_atom_site_fract_y
_atom_site_fract_z
_atom_site_U_iso_or_equiv
_atom_site_adp_type
_atom_site_occupancy
Fe1    Fe    0.50000   0.00000  -0.00000   0.01267  Uiso   1.00
Fe2    Fe    0.00000   0.50000   0.00000   0.01267  Uiso   1.00
Fe3    Fe    0.00000   0.00000   0.50000   0.01267  Uiso   1.00
Fe4    Fe    0.50000   0.50000   0.50000   0.01267  Uiso   1.00
Cu1    Cu    0.00000   0.24272   0.24272   0.01267  Uiso   1.00
Cu2    Cu    0.00000   0.75728   0.75728   0.01267  Uiso   1.00
Cu3    Cu    0.75728   0.00000   0.75728   0.01267  Uiso   1.00
Cu4    Cu    0.24272   0.00000   0.24272   0.01267  Uiso   1.00
Cu5    Cu    0.75728   0.75728  -0.00000   0.01267  Uiso   1.00
Cu6    Cu    0.24272   0.24272  -0.00000   0.01267  Uiso   1.00
H1     H     0.79780   0.08720   0.09980   0.01267  Uiso   1.00
H2     H     0.82540   0.16530   0.26090   0.01267  Uiso   1.00
H3     H     0.72100   0.06030   0.11650   0.01267  Uiso   1.00
H4     H     0.89170   0.14690   0.13400   0.01267  Uiso   1.00
H5     H     0.64580   0.99650   0.19890   0.01267  Uiso   1.00
H6     H     0.63130   0.05360   0.08530   0.01267  Uiso   1.00
H7     H     0.54360   0.92760   0.13760   0.01267  Uiso   1.00
H8     H     0.92010   0.21780   0.29070   0.01267  Uiso   1.00
H9     H     0.98740   0.69800   0.90020   0.01267  Uiso   1.00
H10    H     0.90440   0.56450   0.73910   0.01267  Uiso   1.00
H11    H     0.94380   0.60450   0.88350   0.01267  Uiso   1.00
H12    H     0.01290   0.75770   0.86600   0.01267  Uiso   1.00
H13    H     0.79760   0.44690   0.80110   0.01267  Uiso   1.00
H14    H     0.96830   0.54600   0.91470   0.01267  Uiso   1.00
H15    H     0.79000   0.40600   0.86240   0.01267  Uiso   1.00
H16    H     0.92710   0.62940   0.70930   0.01267  Uiso   1.00
H17    H     0.01260   0.91280   0.71060   0.01267  Uiso   1.00
H18    H     0.09560   0.83470   0.66010   0.01267  Uiso   1.00
H19    H     0.05620   0.93970   0.66070   0.01267  Uiso   1.00
H20    H     0.98710   0.85310   0.74480   0.01267  Uiso   1.00
H21    H     0.20240   0.00350   0.64930   0.01267  Uiso   1.00
H22    H     0.03170   0.94640   0.57770   0.01267  Uiso   1.00
H23    H     0.21000   0.07240   0.61600   0.01267  Uiso   1.00
H24    H     0.07290   0.78220   0.70230   0.01267  Uiso   1.00
H25    H     0.20220   0.30200   0.28940   0.01267  Uiso   1.00
H26    H     0.17460   0.43550   0.33990   0.01267  Uiso   1.00
H27    H     0.27900   0.39550   0.33930   0.01267  Uiso   1.00
H28    H     0.10830   0.24230   0.25520   0.01267  Uiso   1.00
H29    H     0.35420   0.55310   0.35070   0.01267  Uiso   1.00
H30    H     0.36870   0.45400   0.42230   0.01267  Uiso   1.00
H31    H     0.45640   0.59400   0.38400   0.01267  Uiso   1.00
H32    H     0.07990   0.37060   0.29770   0.01267  Uiso   1.00
H33    H     0.71060   0.01260   0.91280   0.01267  Uiso   1.00
H34    H     0.66010   0.09560   0.83470   0.01267  Uiso   1.00
H35    H     0.66070   0.05620   0.93970   0.01267  Uiso   1.00
H36    H     0.74480   0.98710   0.85310   0.01267  Uiso   1.00
H37    H     0.64930   0.20240   0.00350   0.01267  Uiso   1.00
H38    H     0.57770   0.03170   0.94640   0.01267  Uiso   1.00
H39    H     0.61600   0.21000   0.07240   0.01267  Uiso   1.00
H40    H     0.70230   0.07290   0.78220   0.01267  Uiso   1.00
H41    H     0.28940   0.20220   0.30200   0.01267  Uiso   1.00
H42    H     0.33990   0.17460   0.43550   0.01267  Uiso   1.00
H43    H     0.33930   0.27900   0.39550   0.01267  Uiso   1.00
H44    H     0.25520   0.10830   0.24230   0.01267  Uiso   1.00
H45    H     0.35070   0.35420   0.55310   0.01267  Uiso   1.00
H46    H     0.42230   0.36870   0.45400   0.01267  Uiso   1.00
H47    H     0.38400   0.45640   0.59400   0.01267  Uiso   1.00
H48    H     0.29770   0.07990   0.37060   0.01267  Uiso   1.00
H49    H     0.09980   0.79780   0.08720   0.01267  Uiso   1.00
H50    H     0.26090   0.82540   0.16530   0.01267  Uiso   1.00
H51    H     0.11650   0.72100   0.06030   0.01267  Uiso   1.00
H52    H     0.13400   0.89170   0.14690   0.01267  Uiso   1.00
H53    H     0.19890   0.64580   0.99650   0.01267  Uiso   1.00
H54    H     0.08530   0.63130   0.05360   0.01267  Uiso   1.00
H55    H     0.13760   0.54360   0.92760   0.01267  Uiso   1.00
H56    H     0.29070   0.92010   0.21780   0.01267  Uiso   1.00
H57    H     0.90020   0.98740   0.69800   0.01267  Uiso   1.00
H58    H     0.73910   0.90440   0.56450   0.01267  Uiso   1.00
H59    H     0.88350   0.94380   0.60450   0.01267  Uiso   1.00
H60    H     0.86600   0.01290   0.75770   0.01267  Uiso   1.00
H61    H     0.80110   0.79760   0.44690   0.01267  Uiso   1.00
H62    H     0.91470   0.96830   0.54600   0.01267  Uiso   1.00
H63    H     0.86240   0.79000   0.40600   0.01267  Uiso   1.00
H64    H     0.70930   0.92710   0.62940   0.01267  Uiso   1.00
H65    H     0.69800   0.90020   0.98740   0.01267  Uiso   1.00
H66    H     0.56450   0.73910   0.90440   0.01267  Uiso   1.00
H67    H     0.60450   0.88350   0.94380   0.01267  Uiso   1.00
H68    H     0.75770   0.86600   0.01290   0.01267  Uiso   1.00
H69    H     0.44690   0.80110   0.79760   0.01267  Uiso   1.00
H70    H     0.54600   0.91470   0.96830   0.01267  Uiso   1.00
H71    H     0.40600   0.86240   0.79000   0.01267  Uiso   1.00
H72    H     0.62940   0.70930   0.92710   0.01267  Uiso   1.00
H73    H     0.08720   0.09980   0.79780   0.01267  Uiso   1.00
H74    H     0.16530   0.26090   0.82540   0.01267  Uiso   1.00
H75    H     0.06030   0.11650   0.72100   0.01267  Uiso   1.00
H76    H     0.14690   0.13400   0.89170   0.01267  Uiso   1.00
H77    H     0.99650   0.19890   0.64580   0.01267  Uiso   1.00
H78    H     0.05360   0.08530   0.63130   0.01267  Uiso   1.00
H79    H     0.92760   0.13760   0.54360   0.01267  Uiso   1.00
H80    H     0.21780   0.29070   0.92010   0.01267  Uiso   1.00
H81    H     0.30200   0.28940   0.20220   0.01267  Uiso   1.00
H82    H     0.43550   0.33990   0.17460   0.01267  Uiso   1.00
H83    H     0.39550   0.33930   0.27900   0.01267  Uiso   1.00
H84    H     0.24230   0.25520   0.10830   0.01267  Uiso   1.00
H85    H     0.55310   0.35070   0.35420   0.01267  Uiso   1.00
H86    H     0.45400   0.42230   0.36870   0.01267  Uiso   1.00
H87    H     0.59400   0.38400   0.45640   0.01267  Uiso   1.00
H88    H     0.37060   0.29770   0.07990   0.01267  Uiso   1.00
H89    H     0.91280   0.71060   0.01260   0.01267  Uiso   1.00
H90    H     0.83470   0.66010   0.09560   0.01267  Uiso   1.00
H91    H     0.93970   0.66070   0.05620   0.01267  Uiso   1.00
H92    H     0.85310   0.74480   0.98710   0.01267  Uiso   1.00
H93    H     0.00350   0.64930   0.20240   0.01267  Uiso   1.00
H94    H     0.94640   0.57770   0.03170   0.01267  Uiso   1.00
H95    H     0.07240   0.61600   0.21000   0.01267  Uiso   1.00
H96    H     0.78220   0.70230   0.07290   0.01267  Uiso   1.00
H97    H     0.91280   0.20220   0.90020   0.01267  Uiso   1.00
H98    H     0.83470   0.17460   0.73910   0.01267  Uiso   1.00
H99    H     0.93970   0.27900   0.88350   0.01267  Uiso   1.00
H100   H     0.85310   0.10830   0.86600   0.01267  Uiso   1.00
H101   H     0.00350   0.35420   0.80110   0.01267  Uiso   1.00
H102   H     0.94640   0.36870   0.91470   0.01267  Uiso   1.00
H103   H     0.07240   0.45640   0.86240   0.01267  Uiso   1.00
H104   H     0.78220   0.07990   0.70930   0.01267  Uiso   1.00
H105   H     0.30200   0.01260   0.09980   0.01267  Uiso   1.00
H106   H     0.43550   0.09560   0.26090   0.01267  Uiso   1.00
H107   H     0.39550   0.05620   0.11650   0.01267  Uiso   1.00
H108   H     0.24230   0.98710   0.13400   0.01267  Uiso   1.00
H109   H     0.55310   0.20240   0.19890   0.01267  Uiso   1.00
H110   H     0.45400   0.03170   0.08530   0.01267  Uiso   1.00
H111   H     0.59400   0.21000   0.13760   0.01267  Uiso   1.00
H112   H     0.37060   0.07290   0.29070   0.01267  Uiso   1.00
H113   H     0.08720   0.98740   0.28940   0.01267  Uiso   1.00
H114   H     0.16530   0.90440   0.33990   0.01267  Uiso   1.00
H115   H     0.06030   0.94380   0.33930   0.01267  Uiso   1.00
H116   H     0.14690   0.01290   0.25520   0.01267  Uiso   1.00
H117   H     0.99650   0.79760   0.35070   0.01267  Uiso   1.00
H118   H     0.05360   0.96830   0.42230   0.01267  Uiso   1.00
H119   H     0.92760   0.79000   0.38400   0.01267  Uiso   1.00
H120   H     0.21780   0.92710   0.29770   0.01267  Uiso   1.00
H121   H     0.69800   0.79780   0.71060   0.01267  Uiso   1.00
H122   H     0.56450   0.82540   0.66010   0.01267  Uiso   1.00
H123   H     0.60450   0.72100   0.66070   0.01267  Uiso   1.00
H124   H     0.75770   0.89170   0.74480   0.01267  Uiso   1.00
H125   H     0.44690   0.64580   0.64930   0.01267  Uiso   1.00
H126   H     0.54600   0.63130   0.57770   0.01267  Uiso   1.00
H127   H     0.40600   0.54360   0.61600   0.01267  Uiso   1.00
H128   H     0.62940   0.92010   0.70230   0.01267  Uiso   1.00
H129   H     0.98740   0.28940   0.08720   0.01267  Uiso   1.00
H130   H     0.90440   0.33990   0.16530   0.01267  Uiso   1.00
H131   H     0.94380   0.33930   0.06030   0.01267  Uiso   1.00
H132   H     0.01290   0.25520   0.14690   0.01267  Uiso   1.00
H133   H     0.79760   0.35070   0.99650   0.01267  Uiso   1.00
H134   H     0.96830   0.42230   0.05360   0.01267  Uiso   1.00
H135   H     0.79000   0.38400   0.92760   0.01267  Uiso   1.00
H136   H     0.92710   0.29770   0.21780   0.01267  Uiso   1.00
H137   H     0.79780   0.71060   0.69800   0.01267  Uiso   1.00
H138   H     0.82540   0.66010   0.56450   0.01267  Uiso   1.00
H139   H     0.72100   0.66070   0.60450   0.01267  Uiso   1.00
H140   H     0.89170   0.74480   0.75770   0.01267  Uiso   1.00
H141   H     0.64580   0.64930   0.44690   0.01267  Uiso   1.00
H142   H     0.63130   0.57770   0.54600   0.01267  Uiso   1.00
H143   H     0.54360   0.61600   0.40600   0.01267  Uiso   1.00
H144   H     0.92010   0.70230   0.62940   0.01267  Uiso   1.00
H145   H     0.20220   0.90020   0.91280   0.01267  Uiso   1.00
H146   H     0.17460   0.73910   0.83470   0.01267  Uiso   1.00
H147   H     0.27900   0.88350   0.93970   0.01267  Uiso   1.00
H148   H     0.10830   0.86600   0.85310   0.01267  Uiso   1.00
H149   H     0.35420   0.80110   0.00350   0.01267  Uiso   1.00
H150   H     0.36870   0.91470   0.94640   0.01267  Uiso   1.00
H151   H     0.45640   0.86240   0.07240   0.01267  Uiso   1.00
H152   H     0.07990   0.70930   0.78220   0.01267  Uiso   1.00
H153   H     0.01260   0.09980   0.30200   0.01267  Uiso   1.00
H154   H     0.09560   0.26090   0.43550   0.01267  Uiso   1.00
H155   H     0.05620   0.11650   0.39550   0.01267  Uiso   1.00
H156   H     0.98710   0.13400   0.24230   0.01267  Uiso   1.00
H157   H     0.20240   0.19890   0.55310   0.01267  Uiso   1.00
H158   H     0.03170   0.08530   0.45400   0.01267  Uiso   1.00
H159   H     0.21000   0.13760   0.59400   0.01267  Uiso   1.00
H160   H     0.07290   0.29070   0.37060   0.01267  Uiso   1.00
H161   H     0.09980   0.30200   0.01260   0.01267  Uiso   1.00
H162   H     0.26090   0.43550   0.09560   0.01267  Uiso   1.00
H163   H     0.11650   0.39550   0.05620   0.01267  Uiso   1.00
H164   H     0.13400   0.24230   0.98710   0.01267  Uiso   1.00
H165   H     0.19890   0.55310   0.20240   0.01267  Uiso   1.00
H166   H     0.08530   0.45400   0.03170   0.01267  Uiso   1.00
H167   H     0.13760   0.59400   0.21000   0.01267  Uiso   1.00
H168   H     0.29070   0.37060   0.07290   0.01267  Uiso   1.00
H169   H     0.90020   0.91280   0.20220   0.01267  Uiso   1.00
H170   H     0.73910   0.83470   0.17460   0.01267  Uiso   1.00
H171   H     0.88350   0.93970   0.27900   0.01267  Uiso   1.00
H172   H     0.86600   0.85310   0.10830   0.01267  Uiso   1.00
H173   H     0.80110   0.00350   0.35420   0.01267  Uiso   1.00
H174   H     0.91470   0.94640   0.36870   0.01267  Uiso   1.00
H175   H     0.86240   0.07240   0.45640   0.01267  Uiso   1.00
H176   H     0.70930   0.78220   0.07990   0.01267  Uiso   1.00
H177   H     0.71060   0.69800   0.79780   0.01267  Uiso   1.00
H178   H     0.66010   0.56450   0.82540   0.01267  Uiso   1.00
H179   H     0.66070   0.60450   0.72100   0.01267  Uiso   1.00
H180   H     0.74480   0.75770   0.89170   0.01267  Uiso   1.00
H181   H     0.64930   0.44690   0.64580   0.01267  Uiso   1.00
H182   H     0.57770   0.54600   0.63130   0.01267  Uiso   1.00
H183   H     0.61600   0.40600   0.54360   0.01267  Uiso   1.00
H184   H     0.70230   0.62940   0.92010   0.01267  Uiso   1.00
H185   H     0.28940   0.08720   0.98740   0.01267  Uiso   1.00
H186   H     0.33990   0.16530   0.90440   0.01267  Uiso   1.00
H187   H     0.33930   0.06030   0.94380   0.01267  Uiso   1.00
H188   H     0.25520   0.14690   0.01290   0.01267  Uiso   1.00
H189   H     0.35070   0.99650   0.79760   0.01267  Uiso   1.00
H190   H     0.42230   0.05360   0.96830   0.01267  Uiso   1.00
H191   H     0.38400   0.92760   0.79000   0.01267  Uiso   1.00
H192   H     0.29770   0.21780   0.92710   0.01267  Uiso   1.00
C1     C     0.82170   0.11434   0.13916   0.01267  Uiso   1.00
C2     C     0.83812   0.15965   0.23415   0.01267  Uiso   1.00
C3     C     0.53219   0.95663   0.08026   0.01267  Uiso   1.00
C4     C     0.79926   0.11758   0.17606   0.01267  Uiso   1.00
C5     C     0.87813   0.15035   0.16010   0.01267  Uiso   1.00
C6     C     0.62401   0.99483   0.16480   0.01267  Uiso   1.00
C7     C     0.64958   0.03119   0.14665   0.01267  Uiso   1.00
C8     C     0.61397   0.02906   0.09705   0.01267  Uiso   1.00
C9     C     0.71329   0.07213   0.18204   0.01267  Uiso   1.00
C10    C     0.56237   0.95432   0.12861   0.01267  Uiso   1.00
C11    C     0.89429   0.19220   0.25129   0.01267  Uiso   1.00
C12    C     0.97518   0.68254   0.86084   0.01267  Uiso   1.00
C13    C     0.92550   0.60397   0.76585   0.01267  Uiso   1.00
C14    C     0.87637   0.45193   0.91974   0.01267  Uiso   1.00
C15    C     0.94152   0.62320   0.82394   0.01267  Uiso   1.00
C16    C     0.99025   0.71803   0.83990   0.01267  Uiso   1.00
C17    C     0.83003   0.45921   0.83520   0.01267  Uiso   1.00
C18    C     0.88454   0.50293   0.85335   0.01267  Uiso   1.00
C19    C     0.93201   0.51692   0.90295   0.01267  Uiso   1.00
C20    C     0.89009   0.53125   0.81796   0.01267  Uiso   1.00
C21    C     0.82571   0.43376   0.87139   0.01267  Uiso   1.00
C22    C     0.94091   0.64300   0.74871   0.01267  Uiso   1.00
C23    C     0.02482   0.88566   0.70736   0.01267  Uiso   1.00
C24    C     0.07450   0.84035   0.67847   0.01267  Uiso   1.00
C25    C     0.12363   0.04337   0.57556   0.01267  Uiso   1.00
C26    C     0.05848   0.88242   0.68168   0.01267  Uiso   1.00
C27    C     0.00975   0.84965   0.72778   0.01267  Uiso   1.00
C28    C     0.16997   0.00517   0.62918   0.01267  Uiso   1.00
C29    C     0.11546   0.96881   0.61839   0.01267  Uiso   1.00
C30    C     0.06799   0.97094   0.58491   0.01267  Uiso   1.00
C31    C     0.10991   0.92787   0.64116   0.01267  Uiso   1.00
C32    C     0.17429   0.04568   0.60805   0.01267  Uiso   1.00
C33    C     0.05909   0.80780   0.70209   0.01267  Uiso   1.00
C34    C     0.17830   0.31746   0.29264   0.01267  Uiso   1.00
C35    C     0.16188   0.39603   0.32153   0.01267  Uiso   1.00
C36    C     0.46781   0.54807   0.42444   0.01267  Uiso   1.00
C37    C     0.20074   0.37680   0.31832   0.01267  Uiso   1.00
C38    C     0.12187   0.28197   0.27222   0.01267  Uiso   1.00
C39    C     0.37599   0.54079   0.37082   0.01267  Uiso   1.00
C40    C     0.35042   0.49707   0.38161   0.01267  Uiso   1.00
C41    C     0.38603   0.48308   0.41509   0.01267  Uiso   1.00
C42    C     0.28671   0.46875   0.35884   0.01267  Uiso   1.00
C43    C     0.43763   0.56624   0.39195   0.01267  Uiso   1.00
C44    C     0.10571   0.35700   0.29791   0.01267  Uiso   1.00
C45    C     0.70736   0.02482   0.88566   0.01267  Uiso   1.00
C46    C     0.67847   0.07450   0.84035   0.01267  Uiso   1.00
C47    C     0.57556   0.12363   0.04337   0.01267  Uiso   1.00
C48    C     0.68168   0.05848   0.88242   0.01267  Uiso   1.00
C49    C     0.72778   0.00975   0.84965   0.01267  Uiso   1.00
C50    C     0.62918   0.16997   0.00517   0.01267  Uiso   1.00
C51    C     0.61839   0.11546   0.96881   0.01267  Uiso   1.00
C52    C     0.58491   0.06799   0.97094   0.01267  Uiso   1.00
C53    C     0.64116   0.10991   0.92787   0.01267  Uiso   1.00
C54    C     0.60805   0.17429   0.04568   0.01267  Uiso   1.00
C55    C     0.70209   0.05909   0.80780   0.01267  Uiso   1.00
C56    C     0.29264   0.17830   0.31746   0.01267  Uiso   1.00
C57    C     0.32153   0.16188   0.39603   0.01267  Uiso   1.00
C58    C     0.42444   0.46781   0.54807   0.01267  Uiso   1.00
C59    C     0.31832   0.20074   0.37680   0.01267  Uiso   1.00
C60    C     0.27222   0.12187   0.28197   0.01267  Uiso   1.00
C61    C     0.37082   0.37599   0.54079   0.01267  Uiso   1.00
C62    C     0.38161   0.35042   0.49707   0.01267  Uiso   1.00
C63    C     0.41509   0.38603   0.48308   0.01267  Uiso   1.00
C64    C     0.35884   0.28671   0.46875   0.01267  Uiso   1.00
C65    C     0.39195   0.43763   0.56624   0.01267  Uiso   1.00
C66    C     0.29791   0.10571   0.35700   0.01267  Uiso   1.00
C67    C     0.13916   0.82170   0.11434   0.01267  Uiso   1.00
C68    C     0.23415   0.83812   0.15965   0.01267  Uiso   1.00
C69    C     0.08026   0.53219   0.95663   0.01267  Uiso   1.00
C70    C     0.17606   0.79926   0.11758   0.01267  Uiso   1.00
C71    C     0.16010   0.87813   0.15035   0.01267  Uiso   1.00
C72    C     0.16480   0.62401   0.99483   0.01267  Uiso   1.00
C73    C     0.14665   0.64958   0.03119   0.01267  Uiso   1.00
C74    C     0.09705   0.61397   0.02906   0.01267  Uiso   1.00
C75    C     0.18204   0.71329   0.07213   0.01267  Uiso   1.00
C76    C     0.12861   0.56237   0.95432   0.01267  Uiso   1.00
C77    C     0.25129   0.89429   0.19220   0.01267  Uiso   1.00
C78    C     0.86084   0.97518   0.68254   0.01267  Uiso   1.00
C79    C     0.76585   0.92550   0.60397   0.01267  Uiso   1.00
C80    C     0.91974   0.87637   0.45193   0.01267  Uiso   1.00
C81    C     0.82394   0.94152   0.62320   0.01267  Uiso   1.00
C82    C     0.83990   0.99025   0.71803   0.01267  Uiso   1.00
C83    C     0.83520   0.83003   0.45921   0.01267  Uiso   1.00
C84    C     0.85335   0.88454   0.50293   0.01267  Uiso   1.00
C85    C     0.90295   0.93201   0.51692   0.01267  Uiso   1.00
C86    C     0.81796   0.89009   0.53125   0.01267  Uiso   1.00
C87    C     0.87139   0.82571   0.43376   0.01267  Uiso   1.00
C88    C     0.74871   0.94091   0.64300   0.01267  Uiso   1.00
C89    C     0.68254   0.86084   0.97518   0.01267  Uiso   1.00
C90    C     0.60397   0.76585   0.92550   0.01267  Uiso   1.00
C91    C     0.45193   0.91974   0.87637   0.01267  Uiso   1.00
C92    C     0.62320   0.82394   0.94152   0.01267  Uiso   1.00
C93    C     0.71803   0.83990   0.99025   0.01267  Uiso   1.00
C94    C     0.45921   0.83520   0.83003   0.01267  Uiso   1.00
C95    C     0.50293   0.85335   0.88454   0.01267  Uiso   1.00
C96    C     0.51692   0.90295   0.93201   0.01267  Uiso   1.00
C97    C     0.53125   0.81796   0.89009   0.01267  Uiso   1.00
C98    C     0.43376   0.87139   0.82571   0.01267  Uiso   1.00
C99    C     0.64300   0.74871   0.94091   0.01267  Uiso   1.00
C100   C     0.11434   0.13916   0.82170   0.01267  Uiso   1.00
C101   C     0.15965   0.23415   0.83812   0.01267  Uiso   1.00
C102   C     0.95663   0.08026   0.53219   0.01267  Uiso   1.00
C103   C     0.11758   0.17606   0.79926   0.01267  Uiso   1.00
C104   C     0.15035   0.16010   0.87813   0.01267  Uiso   1.00
C105   C     0.99483   0.16480   0.62401   0.01267  Uiso   1.00
C106   C     0.03119   0.14665   0.64958   0.01267  Uiso   1.00
C107   C     0.02906   0.09705   0.61397   0.01267  Uiso   1.00
C108   C     0.07213   0.18204   0.71329   0.01267  Uiso   1.00
C109   C     0.95432   0.12861   0.56237   0.01267  Uiso   1.00
C110   C     0.19220   0.25129   0.89429   0.01267  Uiso   1.00
C111   C     0.31746   0.29264   0.17830   0.01267  Uiso   1.00
C112   C     0.39603   0.32153   0.16188   0.01267  Uiso   1.00
C113   C     0.54807   0.42444   0.46781   0.01267  Uiso   1.00
C114   C     0.37680   0.31832   0.20074   0.01267  Uiso   1.00
C115   C     0.28197   0.27222   0.12187   0.01267  Uiso   1.00
C116   C     0.54079   0.37082   0.37599   0.01267  Uiso   1.00
C117   C     0.49707   0.38161   0.35042   0.01267  Uiso   1.00
C118   C     0.48308   0.41509   0.38603   0.01267  Uiso   1.00
C119   C     0.46875   0.35884   0.28671   0.01267  Uiso   1.00
C120   C     0.56624   0.39195   0.43763   0.01267  Uiso   1.00
C121   C     0.35700   0.29791   0.10571   0.01267  Uiso   1.00
C122   C     0.88566   0.70736   0.02482   0.01267  Uiso   1.00
C123   C     0.84035   0.67847   0.07450   0.01267  Uiso   1.00
C124   C     0.04337   0.57556   0.12363   0.01267  Uiso   1.00
C125   C     0.88242   0.68168   0.05848   0.01267  Uiso   1.00
C126   C     0.84965   0.72778   0.00975   0.01267  Uiso   1.00
C127   C     0.00517   0.62918   0.16997   0.01267  Uiso   1.00
C128   C     0.96881   0.61839   0.11546   0.01267  Uiso   1.00
C129   C     0.97094   0.58491   0.06799   0.01267  Uiso   1.00
C130   C     0.92787   0.64116   0.10991   0.01267  Uiso   1.00
C131   C     0.04568   0.60805   0.17429   0.01267  Uiso   1.00
C132   C     0.80780   0.70209   0.05909   0.01267  Uiso   1.00
C133   C     0.88566   0.17830   0.86084   0.01267  Uiso   1.00
C134   C     0.84035   0.16188   0.76585   0.01267  Uiso   1.00
C135   C     0.04337   0.46781   0.91974   0.01267  Uiso   1.00
C136   C     0.88242   0.20074   0.82394   0.01267  Uiso   1.00
C137   C     0.84965   0.12187   0.83990   0.01267  Uiso   1.00
C138   C     0.00517   0.37599   0.83520   0.01267  Uiso   1.00
C139   C     0.96881   0.35042   0.85335   0.01267  Uiso   1.00
C140   C     0.97094   0.38603   0.90295   0.01267  Uiso   1.00
C141   C     0.92787   0.28671   0.81796   0.01267  Uiso   1.00
C142   C     0.04568   0.43763   0.87139   0.01267  Uiso   1.00
C143   C     0.80780   0.10571   0.74871   0.01267  Uiso   1.00
C144   C     0.31746   0.02482   0.13916   0.01267  Uiso   1.00
C145   C     0.39603   0.07450   0.23415   0.01267  Uiso   1.00
C146   C     0.54807   0.12363   0.08026   0.01267  Uiso   1.00
C147   C     0.37680   0.05848   0.17606   0.01267  Uiso   1.00
C148   C     0.28197   0.00975   0.16010   0.01267  Uiso   1.00
C149   C     0.54079   0.16997   0.16480   0.01267  Uiso   1.00
C150   C     0.49707   0.11546   0.14665   0.01267  Uiso   1.00
C151   C     0.48308   0.06799   0.09705   0.01267  Uiso   1.00
C152   C     0.46875   0.10991   0.18204   0.01267  Uiso   1.00
C153   C     0.56624   0.17429   0.12861   0.01267  Uiso   1.00
C154   C     0.35700   0.05909   0.25129   0.01267  Uiso   1.00
C155   C     0.11434   0.97518   0.29264   0.01267  Uiso   1.00
C156   C     0.15965   0.92550   0.32153   0.01267  Uiso   1.00
C157   C     0.95663   0.87637   0.42444   0.01267  Uiso   1.00
C158   C     0.11758   0.94152   0.31832   0.01267  Uiso   1.00
C159   C     0.15035   0.99025   0.27222   0.01267  Uiso   1.00
C160   C     0.99483   0.83003   0.37082   0.01267  Uiso   1.00
C161   C     0.03119   0.88454   0.38161   0.01267  Uiso   1.00
C162   C     0.02906   0.93201   0.41509   0.01267  Uiso   1.00
C163   C     0.07213   0.89009   0.35884   0.01267  Uiso   1.00
C164   C     0.95432   0.82571   0.39195   0.01267  Uiso   1.00
C165   C     0.19220   0.94091   0.29791   0.01267  Uiso   1.00
C166   C     0.68254   0.82170   0.70736   0.01267  Uiso   1.00
C167   C     0.60397   0.83812   0.67847   0.01267  Uiso   1.00
C168   C     0.45193   0.53219   0.57556   0.01267  Uiso   1.00
C169   C     0.62320   0.79926   0.68168   0.01267  Uiso   1.00
C170   C     0.71803   0.87813   0.72778   0.01267  Uiso   1.00
C171   C     0.45921   0.62401   0.62918   0.01267  Uiso   1.00
C172   C     0.50293   0.64958   0.61839   0.01267  Uiso   1.00
C173   C     0.51692   0.61397   0.58491   0.01267  Uiso   1.00
C174   C     0.53125   0.71329   0.64116   0.01267  Uiso   1.00
C175   C     0.43376   0.56237   0.60805   0.01267  Uiso   1.00
C176   C     0.64300   0.89429   0.70209   0.01267  Uiso   1.00
C177   C     0.97518   0.29264   0.11434   0.01267  Uiso   1.00
C178   C     0.92550   0.32153   0.15965   0.01267  Uiso   1.00
C179   C     0.87637   0.42444   0.95663   0.01267  Uiso   1.00
C180   C     0.94152   0.31832   0.11758   0.01267  Uiso   1.00
C181   C     0.99025   0.27222   0.15035   0.01267  Uiso   1.00
C182   C     0.83003   0.37082   0.99483   0.01267  Uiso   1.00
C183   C     0.88454   0.38161   0.03119   0.01267  Uiso   1.00
C184   C     0.93201   0.41509   0.02906   0.01267  Uiso   1.00
C185   C     0.89009   0.35884   0.07213   0.01267  Uiso   1.00
C186   C     0.82571   0.39195   0.95432   0.01267  Uiso   1.00
C187   C     0.94091   0.29791   0.19220   0.01267  Uiso   1.00
C188   C     0.82170   0.70736   0.68254   0.01267  Uiso   1.00
C189   C     0.83812   0.67847   0.60397   0.01267  Uiso   1.00
C190   C     0.53219   0.57556   0.45193   0.01267  Uiso   1.00
C191   C     0.79926   0.68168   0.62320   0.01267  Uiso   1.00
C192   C     0.87813   0.72778   0.71803   0.01267  Uiso   1.00
C193   C     0.62401   0.62918   0.45921   0.01267  Uiso   1.00
C194   C     0.64958   0.61839   0.50293   0.01267  Uiso   1.00
C195   C     0.61397   0.58491   0.51692   0.01267  Uiso   1.00
C196   C     0.71329   0.64116   0.53125   0.01267  Uiso   1.00
C197   C     0.56237   0.60805   0.43376   0.01267  Uiso   1.00
C198   C     0.89429   0.70209   0.64300   0.01267  Uiso   1.00
C199   C     0.17830   0.86084   0.88566   0.01267  Uiso   1.00
C200   C     0.16188   0.76585   0.84035   0.01267  Uiso   1.00
C201   C     0.46781   0.91974   0.04337   0.01267  Uiso   1.00
C202   C     0.20074   0.82394   0.88242   0.01267  Uiso   1.00
C203   C     0.12187   0.83990   0.84965   0.01267  Uiso   1.00
C204   C     0.37599   0.83520   0.00517   0.01267  Uiso   1.00
C205   C     0.35042   0.85335   0.96881   0.01267  Uiso   1.00
C206   C     0.38603   0.90295   0.97094   0.01267  Uiso   1.00
C207   C     0.28671   0.81796   0.92787   0.01267  Uiso   1.00
C208   C     0.43763   0.87139   0.04568   0.01267  Uiso   1.00
C209   C     0.10571   0.74871   0.80780   0.01267  Uiso   1.00
C210   C     0.02482   0.13916   0.31746   0.01267  Uiso   1.00
C211   C     0.07450   0.23415   0.39603   0.01267  Uiso   1.00
C212   C     0.12363   0.08026   0.54807   0.01267  Uiso   1.00
C213   C     0.05848   0.17606   0.37680   0.01267  Uiso   1.00
C214   C     0.00975   0.16010   0.28197   0.01267  Uiso   1.00
C215   C     0.16997   0.16480   0.54079   0.01267  Uiso   1.00
C216   C     0.11546   0.14665   0.49707   0.01267  Uiso   1.00
C217   C     0.06799   0.09705   0.48308   0.01267  Uiso   1.00
C218   C     0.10991   0.18204   0.46875   0.01267  Uiso   1.00
C219   C     0.17429   0.12861   0.56624   0.01267  Uiso   1.00
C220   C     0.05909   0.25129   0.35700   0.01267  Uiso   1.00
C221   C     0.13916   0.31746   0.02482   0.01267  Uiso   1.00
C222   C     0.23415   0.39603   0.07450   0.01267  Uiso   1.00
C223   C     0.08026   0.54807   0.12363   0.01267  Uiso   1.00
C224   C     0.17606   0.37680   0.05848   0.01267  Uiso   1.00
C225   C     0.16010   0.28197   0.00975   0.01267  Uiso   1.00
C226   C     0.16480   0.54079   0.16997   0.01267  Uiso   1.00
C227   C     0.14665   0.49707   0.11546   0.01267  Uiso   1.00
C228   C     0.09705   0.48308   0.06799   0.01267  Uiso   1.00
C229   C     0.18204   0.46875   0.10991   0.01267  Uiso   1.00
C230   C     0.12861   0.56624   0.17429   0.01267  Uiso   1.00
C231   C     0.25129   0.35700   0.05909   0.01267  Uiso   1.00
C232   C     0.86084   0.88566   0.17830   0.01267  Uiso   1.00
C233   C     0.76585   0.84035   0.16188   0.01267  Uiso   1.00
C234   C     0.91974   0.04337   0.46781   0.01267  Uiso   1.00
C235   C     0.82394   0.88242   0.20074   0.01267  Uiso   1.00
C236   C     0.83990   0.84965   0.12187   0.01267  Uiso   1.00
C237   C     0.83520   0.00517   0.37599   0.01267  Uiso   1.00
C238   C     0.85335   0.96881   0.35042   0.01267  Uiso   1.00
C239   C     0.90295   0.97094   0.38603   0.01267  Uiso   1.00
C240   C     0.81796   0.92787   0.28671   0.01267  Uiso   1.00
C241   C     0.87139   0.04568   0.43763   0.01267  Uiso   1.00
C242   C     0.74871   0.80780   0.10571   0.01267  Uiso   1.00
C243   C     0.70736   0.68254   0.82170   0.01267  Uiso   1.00
C244   C     0.67847   0.60397   0.83812   0.01267  Uiso   1.00
C245   C     0.57556   0.45193   0.53219   0.01267  Uiso   1.00
C246   C     0.68168   0.62320   0.79926   0.01267  Uiso   1.00
C247   C     0.72778   0.71803   0.87813   0.01267  Uiso   1.00
C248   C     0.62918   0.45921   0.62401   0.01267  Uiso   1.00
C249   C     0.61839   0.50293   0.64958   0.01267  Uiso   1.00
C250   C     0.58491   0.51692   0.61397   0.01267  Uiso   1.00
C251   C     0.64116   0.53125   0.71329   0.01267  Uiso   1.00
C252   C     0.60805   0.43376   0.56237   0.01267  Uiso   1.00
C253   C     0.70209   0.64300   0.89429   0.01267  Uiso   1.00
C254   C     0.29264   0.11434   0.97518   0.01267  Uiso   1.00
C255   C     0.32153   0.15965   0.92550   0.01267  Uiso   1.00
C256   C     0.42444   0.95663   0.87637   0.01267  Uiso   1.00
C257   C     0.31832   0.11758   0.94152   0.01267  Uiso   1.00
C258   C     0.27222   0.15035   0.99025   0.01267  Uiso   1.00
C259   C     0.37082   0.99483   0.83003   0.01267  Uiso   1.00
C260   C     0.38161   0.03119   0.88454   0.01267  Uiso   1.00
C261   C     0.41509   0.02906   0.93201   0.01267  Uiso   1.00
C262   C     0.35884   0.07213   0.89009   0.01267  Uiso   1.00
C263   C     0.39195   0.95432   0.82571   0.01267  Uiso   1.00
C264   C     0.29791   0.19220   0.94091   0.01267  Uiso   1.00
N1     N     0.55771   0.99474   0.06587   0.01267  Uiso   1.00
N2     N     0.74150   0.08060   0.15366   0.01267  Uiso   1.00
N3     N     0.91518   0.18973   0.21443   0.01267  Uiso   1.00
N4     N     0.92887   0.49184   0.93413   0.01267  Uiso   1.00
N5     N     0.92694   0.58784   0.84634   0.01267  Uiso   1.00
N6     N     0.97530   0.70075   0.78557   0.01267  Uiso   1.00
N7     N     0.07113   0.00526   0.56297   0.01267  Uiso   1.00
N8     N     0.07306   0.91940   0.66090   0.01267  Uiso   1.00
N9     N     0.02470   0.81027   0.72545   0.01267  Uiso   1.00
N10    N     0.44229   0.50816   0.43703   0.01267  Uiso   1.00
N11    N     0.25850   0.41216   0.33910   0.01267  Uiso   1.00
N12    N     0.08482   0.29925   0.27455   0.01267  Uiso   1.00
N13    N     0.56297   0.07113   0.00526   0.01267  Uiso   1.00
N14    N     0.66090   0.07306   0.91940   0.01267  Uiso   1.00
N15    N     0.72545   0.02470   0.81027   0.01267  Uiso   1.00
N16    N     0.43703   0.44229   0.50816   0.01267  Uiso   1.00
N17    N     0.33910   0.25850   0.41216   0.01267  Uiso   1.00
N18    N     0.27455   0.08482   0.29925   0.01267  Uiso   1.00
N19    N     0.06587   0.55771   0.99474   0.01267  Uiso   1.00
N20    N     0.15366   0.74150   0.08060   0.01267  Uiso   1.00
N21    N     0.21443   0.91518   0.18973   0.01267  Uiso   1.00
N22    N     0.93413   0.92887   0.49184   0.01267  Uiso   1.00
N23    N     0.84634   0.92694   0.58784   0.01267  Uiso   1.00
N24    N     0.78557   0.97530   0.70075   0.01267  Uiso   1.00
N25    N     0.49184   0.93413   0.92887   0.01267  Uiso   1.00
N26    N     0.58784   0.84634   0.92694   0.01267  Uiso   1.00
N27    N     0.70075   0.78557   0.97530   0.01267  Uiso   1.00
N28    N     0.99474   0.06587   0.55771   0.01267  Uiso   1.00
N29    N     0.08060   0.15366   0.74150   0.01267  Uiso   1.00
N30    N     0.18973   0.21443   0.91518   0.01267  Uiso   1.00
N31    N     0.50816   0.43703   0.44229   0.01267  Uiso   1.00
N32    N     0.41216   0.33910   0.25850   0.01267  Uiso   1.00
N33    N     0.29925   0.27455   0.08482   0.01267  Uiso   1.00
N34    N     0.00526   0.56297   0.07113   0.01267  Uiso   1.00
N35    N     0.91940   0.66090   0.07306   0.01267  Uiso   1.00
N36    N     0.81027   0.72545   0.02470   0.01267  Uiso   1.00
N37    N     0.00526   0.44229   0.93413   0.01267  Uiso   1.00
N38    N     0.91940   0.25850   0.84634   0.01267  Uiso   1.00
N39    N     0.81027   0.08482   0.78557   0.01267  Uiso   1.00
N40    N     0.50816   0.07113   0.06587   0.01267  Uiso   1.00
N41    N     0.41216   0.07306   0.15366   0.01267  Uiso   1.00
N42    N     0.29925   0.02470   0.21443   0.01267  Uiso   1.00
N43    N     0.99474   0.92887   0.43703   0.01267  Uiso   1.00
N44    N     0.08060   0.92694   0.33910   0.01267  Uiso   1.00
N45    N     0.18973   0.97530   0.27455   0.01267  Uiso   1.00
N46    N     0.49184   0.55771   0.56297   0.01267  Uiso   1.00
N47    N     0.58784   0.74150   0.66090   0.01267  Uiso   1.00
N48    N     0.70075   0.91518   0.72545   0.01267  Uiso   1.00
N49    N     0.92887   0.43703   0.99474   0.01267  Uiso   1.00
N50    N     0.92694   0.33910   0.08060   0.01267  Uiso   1.00
N51    N     0.97530   0.27455   0.18973   0.01267  Uiso   1.00
N52    N     0.55771   0.56297   0.49184   0.01267  Uiso   1.00
N53    N     0.74150   0.66090   0.58784   0.01267  Uiso   1.00
N54    N     0.91518   0.72545   0.70075   0.01267  Uiso   1.00
N55    N     0.44229   0.93413   0.00526   0.01267  Uiso   1.00
N56    N     0.25850   0.84634   0.91940   0.01267  Uiso   1.00
N57    N     0.08482   0.78557   0.81027   0.01267  Uiso   1.00
N58    N     0.07113   0.06587   0.50816   0.01267  Uiso   1.00
N59    N     0.07306   0.15366   0.41216   0.01267  Uiso   1.00
N60    N     0.02470   0.21443   0.29925   0.01267  Uiso   1.00
N61    N     0.06587   0.50816   0.07113   0.01267  Uiso   1.00
N62    N     0.15366   0.41216   0.07306   0.01267  Uiso   1.00
N63    N     0.21443   0.29925   0.02470   0.01267  Uiso   1.00
N64    N     0.93413   0.00526   0.44229   0.01267  Uiso   1.00
N65    N     0.84634   0.91940   0.25850   0.01267  Uiso   1.00
N66    N     0.78557   0.81027   0.08482   0.01267  Uiso   1.00
N67    N     0.56297   0.49184   0.55771   0.01267  Uiso   1.00
N68    N     0.66090   0.58784   0.74150   0.01267  Uiso   1.00
N69    N     0.72545   0.70075   0.91518   0.01267  Uiso   1.00
N70    N     0.43703   0.99474   0.92887   0.01267  Uiso   1.00
N71    N     0.33910   0.08060   0.92694   0.01267  Uiso   1.00
N72    N     0.27455   0.18973   0.97530   0.01267  Uiso   1.00
O1     O     0.73733   0.09375   0.23462   0.01267  Uiso   1.00
O2     O     0.85913   0.50271   0.76538   0.01267  Uiso   1.00
O3     O     0.14087   0.90625   0.64358   0.01267  Uiso   1.00
O4     O     0.26267   0.49729   0.35642   0.01267  Uiso   1.00
O5     O     0.64358   0.14087   0.90625   0.01267  Uiso   1.00
O6     O     0.35642   0.26267   0.49729   0.01267  Uiso   1.00
O7     O     0.23462   0.73733   0.09375   0.01267  Uiso   1.00
O8     O     0.76538   0.85913   0.50271   0.01267  Uiso   1.00
O9     O     0.50271   0.76538   0.85913   0.01267  Uiso   1.00
O10    O     0.09375   0.23462   0.73733   0.01267  Uiso   1.00
O11    O     0.49729   0.35642   0.26267   0.01267  Uiso   1.00
O12    O     0.90625   0.64358   0.14087   0.01267  Uiso   1.00
O13    O     0.90625   0.26267   0.76538   0.01267  Uiso   1.00
O14    O     0.49729   0.14087   0.23462   0.01267  Uiso   1.00
O15    O     0.09375   0.85913   0.35642   0.01267  Uiso   1.00
O16    O     0.50271   0.73733   0.64358   0.01267  Uiso   1.00
O17    O     0.85913   0.35642   0.09375   0.01267  Uiso   1.00
O18    O     0.73733   0.64358   0.50271   0.01267  Uiso   1.00
O19    O     0.26267   0.76538   0.90625   0.01267  Uiso   1.00
O20    O     0.14087   0.23462   0.49729   0.01267  Uiso   1.00
O21    O     0.23462   0.49729   0.14087   0.01267  Uiso   1.00
O22    O     0.76538   0.90625   0.26267   0.01267  Uiso   1.00
O23    O     0.64358   0.50271   0.73733   0.01267  Uiso   1.00
O24    O     0.35642   0.09375   0.85913   0.01267  Uiso   1.00
N73    N     0.66666   0.00000  -0.00000   0.01267  Uiso   1.00
O25    O     0.66768   0.97722   0.03172   0.01267  Uiso   1.00
O26    O     0.69046   0.05450   0.02278   0.01267  Uiso   1.00
O27    O     0.63596   0.96828   0.94550   0.01267  Uiso   1.00
N74    N     0.00000   0.66666   0.00000   0.01267  Uiso   1.00
O28    O     0.94550   0.63596   0.96828   0.01267  Uiso   1.00
O29    O     0.03172   0.66768   0.97722   0.01267  Uiso   1.00
O30    O     0.02278   0.69046   0.05450   0.01267  Uiso   1.00
N75    N     0.00000   0.00000   0.66666   0.01267  Uiso   1.00
O31    O     0.05450   0.02278   0.69046   0.01267  Uiso   1.00
O32    O     0.96828   0.94550   0.63596   0.01267  Uiso   1.00
O33    O     0.97722   0.03172   0.66768   0.01267  Uiso   1.00
N76    N     0.33334   0.33334   0.33334   0.01267  Uiso   1.00
O34    O     0.33232   0.36404   0.30954   0.01267  Uiso   1.00
O35    O     0.30954   0.33232   0.36404   0.01267  Uiso   1.00
O36    O     0.36404   0.30954   0.33232   0.01267  Uiso   1.00
N77    N     0.00000   0.33334   0.00000   0.01267  Uiso   1.00
O37    O     0.02278   0.33232   0.96828   0.01267  Uiso   1.00
O38    O     0.94550   0.30954   0.97722   0.01267  Uiso   1.00
O39    O     0.03172   0.36404   0.05450   0.01267  Uiso   1.00
N78    N     0.33334   0.00000  -0.00000   0.01267  Uiso   1.00
O40    O     0.36404   0.05450   0.03172   0.01267  Uiso   1.00
O41    O     0.33232   0.96828   0.02278   0.01267  Uiso   1.00
O42    O     0.30954   0.97722   0.94550   0.01267  Uiso   1.00
N79    N     0.00000   0.00000   0.33334   0.01267  Uiso   1.00
O43    O     0.97722   0.94550   0.30954   0.01267  Uiso   1.00
O44    O     0.05450   0.03172   0.36404   0.01267  Uiso   1.00
O45    O     0.96828   0.02278   0.33232   0.01267  Uiso   1.00
N80    N     0.66666   0.66666   0.66666   0.01267  Uiso   1.00
O46    O     0.63596   0.66768   0.69046   0.01267  Uiso   1.00
O47    O     0.66768   0.69046   0.63596   0.01267  Uiso   1.00
O48    O     0.69046   0.63596   0.66768   0.01267  Uiso   1.00
