data_image0
_cell_length_a       18.7073
_cell_length_b       18.7073
_cell_length_c       7.9797
_cell_angle_alpha    90
_cell_angle_beta     90
_cell_angle_gamma    120

_symmetry_space_group_name_H-M    "P 1"
_symmetry_int_tables_number       1

loop_
  _symmetry_equiv_pos_as_xyz
  'x, y, z'

loop_
  _atom_site_label
  _atom_site_occupancy
  _atom_site_fract_x
  _atom_site_fract_y
  _atom_site_fract_z
  _atom_site_thermal_displace_type
  _atom_site_B_iso_or_equiv
  _atom_site_type_symbol
  N1       1.0000 0.02868  0.10428  0.15310  Biso   1.000  N
  N2       1.0000 0.08566  0.23160  0.24910  Biso   1.000  N
  C1       1.0000 0.98743  0.10551  0.29460  Biso   1.000  C
  C2       1.0000 0.02279  0.18338  0.35620  Biso   1.000  C
  C3       1.0000 0.08768  0.18139  0.13000  Biso   1.000  C
  C4       1.0000 0.13860  0.32151  0.25790  Biso   1.000  C
  H1       1.0000 0.94000  0.05900  0.34100  Biso   1.000  H
  H2       1.0000 0.01100  0.20100  0.45800  Biso   1.000  H
  H3       1.0000 0.13000  0.20400  0.04200  Biso   1.000  H
  H4       1.0000 0.11000  0.35200  0.26300  Biso   1.000  H
  H5       1.0000 0.17400  0.33700  0.15500  Biso   1.000  H
  N3       1.0000 0.69535  0.43761  0.48643  Biso   1.000  N
  N4       1.0000 0.75233  0.56493  0.58243  Biso   1.000  N
  C5       1.0000 0.65410  0.43884  0.62793  Biso   1.000  C
  C6       1.0000 0.68946  0.51671  0.68953  Biso   1.000  C
  C7       1.0000 0.75435  0.51472  0.46333  Biso   1.000  C
  C8       1.0000 0.80527  0.65484  0.59123  Biso   1.000  C
  H6       1.0000 0.60667  0.39233  0.67433  Biso   1.000  H
  H7       1.0000 0.67767  0.53433  0.79133  Biso   1.000  H
  H8       1.0000 0.79667  0.53733  0.37533  Biso   1.000  H
  H9       1.0000 0.77667  0.68533  0.59633  Biso   1.000  H
  H10      1.0000 0.84067  0.67033  0.48833  Biso   1.000  H
  N5       1.0000 0.36201  0.77095  0.81977  Biso   1.000  N
  N6       1.0000 0.41899  0.89827  0.91577  Biso   1.000  N
  C9       1.0000 0.32076  0.77218  0.96127  Biso   1.000  C
  C10      1.0000 0.35612  0.85005  0.02287  Biso   1.000  C
  C11      1.0000 0.42101  0.84806  0.79667  Biso   1.000  C
  C12      1.0000 0.47193  0.98818  0.92457  Biso   1.000  C
  H11      1.0000 0.27333  0.72567  0.00767  Biso   1.000  H
  H12      1.0000 0.34433  0.86767  0.12467  Biso   1.000  H
  H13      1.0000 0.46333  0.87067  0.70867  Biso   1.000  H
  H14      1.0000 0.44333  0.01867  0.92967  Biso   1.000  H
  H15      1.0000 0.50733  0.00367  0.82167  Biso   1.000  H
  N7       1.0000 0.89572  0.92440  0.15310  Biso   1.000  N
  N8       1.0000 0.76840  0.85406  0.24910  Biso   1.000  N
  C13      1.0000 0.89449  0.88192  0.29460  Biso   1.000  C
  C14      1.0000 0.81662  0.83941  0.35620  Biso   1.000  C
  C15      1.0000 0.81861  0.90629  0.13000  Biso   1.000  C
  C16      1.0000 0.67849  0.81709  0.25790  Biso   1.000  C
  H16      1.0000 0.94100  0.88100  0.34100  Biso   1.000  H
  H17      1.0000 0.79900  0.81000  0.45800  Biso   1.000  H
  H18      1.0000 0.79600  0.92600  0.04200  Biso   1.000  H
  H19      1.0000 0.64800  0.75800  0.26300  Biso   1.000  H
  H20      1.0000 0.66300  0.83700  0.15500  Biso   1.000  H
  N9       1.0000 0.56239  0.25773  0.48643  Biso   1.000  N
  N10      1.0000 0.43507  0.18739  0.58243  Biso   1.000  N
  C17      1.0000 0.56116  0.21525  0.62793  Biso   1.000  C
  C18      1.0000 0.48329  0.17274  0.68953  Biso   1.000  C
  C19      1.0000 0.48528  0.23962  0.46333  Biso   1.000  C
  C20      1.0000 0.34516  0.15042  0.59123  Biso   1.000  C
  H21      1.0000 0.60767  0.21433  0.67433  Biso   1.000  H
  H22      1.0000 0.46567  0.14333  0.79133  Biso   1.000  H
  H23      1.0000 0.46267  0.25933  0.37533  Biso   1.000  H
  H24      1.0000 0.31467  0.09133  0.59633  Biso   1.000  H
  H25      1.0000 0.32967  0.17033  0.48833  Biso   1.000  H
  N11      1.0000 0.22905  0.59107  0.81977  Biso   1.000  N
  N12      1.0000 0.10173  0.52073  0.91577  Biso   1.000  N
  C21      1.0000 0.22782  0.54859  0.96127  Biso   1.000  C
  C22      1.0000 0.14995  0.50608  0.02287  Biso   1.000  C
  C23      1.0000 0.15194  0.57296  0.79667  Biso   1.000  C
  C24      1.0000 0.01182  0.48376  0.92457  Biso   1.000  C
  H26      1.0000 0.27433  0.54767  0.00767  Biso   1.000  H
  H27      1.0000 0.13233  0.47667  0.12467  Biso   1.000  H
  H28      1.0000 0.12933  0.59267  0.70867  Biso   1.000  H
  H29      1.0000 0.98133  0.42467  0.92967  Biso   1.000  H
  H30      1.0000 0.99633  0.50367  0.82167  Biso   1.000  H
  N13      1.0000 0.07560  0.97132  0.15310  Biso   1.000  N
  N14      1.0000 0.14594  0.91434  0.24910  Biso   1.000  N
  C25      1.0000 0.11808  0.01257  0.29460  Biso   1.000  C
  C26      1.0000 0.16059  0.97721  0.35620  Biso   1.000  C
  C27      1.0000 0.09371  0.91232  0.13000  Biso   1.000  C
  C28      1.0000 0.18291  0.86140  0.25790  Biso   1.000  C
  H31      1.0000 0.11900  0.06000  0.34100  Biso   1.000  H
  H32      1.0000 0.19000  0.98900  0.45800  Biso   1.000  H
  H33      1.0000 0.07400  0.87000  0.04200  Biso   1.000  H
  H34      1.0000 0.24200  0.89000  0.26300  Biso   1.000  H
  H35      1.0000 0.16300  0.82600  0.15500  Biso   1.000  H
  N15      1.0000 0.74227  0.30465  0.48643  Biso   1.000  N
  N16      1.0000 0.81261  0.24767  0.58243  Biso   1.000  N
  C29      1.0000 0.78475  0.34590  0.62793  Biso   1.000  C
  C30      1.0000 0.82726  0.31054  0.68953  Biso   1.000  C
  C31      1.0000 0.76038  0.24565  0.46333  Biso   1.000  C
  C32      1.0000 0.84958  0.19473  0.59123  Biso   1.000  C
  H36      1.0000 0.78567  0.39333  0.67433  Biso   1.000  H
  H37      1.0000 0.85667  0.32233  0.79133  Biso   1.000  H
  H38      1.0000 0.74067  0.20333  0.37533  Biso   1.000  H
  H39      1.0000 0.90867  0.22333  0.59633  Biso   1.000  H
  H40      1.0000 0.82967  0.15933  0.48833  Biso   1.000  H
  N17      1.0000 0.40893  0.63799  0.81977  Biso   1.000  N
  N18      1.0000 0.47927  0.58101  0.91577  Biso   1.000  N
  C33      1.0000 0.45141  0.67924  0.96127  Biso   1.000  C
  C34      1.0000 0.49392  0.64388  0.02287  Biso   1.000  C
  C35      1.0000 0.42704  0.57899  0.79667  Biso   1.000  C
  C36      1.0000 0.51624  0.52807  0.92457  Biso   1.000  C
  H41      1.0000 0.45233  0.72667  0.00767  Biso   1.000  H
  H42      1.0000 0.52333  0.65567  0.12467  Biso   1.000  H
  H43      1.0000 0.40733  0.53667  0.70867  Biso   1.000  H
  H44      1.0000 0.57533  0.55667  0.92967  Biso   1.000  H
  H45      1.0000 0.49633  0.49267  0.82167  Biso   1.000  H
  N19      1.0000 0.97132  0.89572  0.84690  Biso   1.000  N
  N20      1.0000 0.91434  0.76840  0.75090  Biso   1.000  N
  C37      1.0000 0.01257  0.89449  0.70540  Biso   1.000  C
  C38      1.0000 0.97721  0.81662  0.64380  Biso   1.000  C
  C39      1.0000 0.91232  0.81861  0.87000  Biso   1.000  C
  C40      1.0000 0.86140  0.67849  0.74210  Biso   1.000  C
  H46      1.0000 0.06000  0.94100  0.65900  Biso   1.000  H
  H47      1.0000 0.98900  0.79900  0.54200  Biso   1.000  H
  H48      1.0000 0.87000  0.79600  0.95800  Biso   1.000  H
  H49      1.0000 0.89000  0.64800  0.73700  Biso   1.000  H
  H50      1.0000 0.82600  0.66300  0.84500  Biso   1.000  H
  N21      1.0000 0.63799  0.22905  0.18023  Biso   1.000  N
  N22      1.0000 0.58101  0.10173  0.08423  Biso   1.000  N
  C41      1.0000 0.67924  0.22782  0.03873  Biso   1.000  C
  C42      1.0000 0.64388  0.14995  0.97713  Biso   1.000  C
  C43      1.0000 0.57899  0.15194  0.20333  Biso   1.000  C
  C44      1.0000 0.52807  0.01182  0.07543  Biso   1.000  C
  H51      1.0000 0.72667  0.27433  0.99233  Biso   1.000  H
  H52      1.0000 0.65567  0.13233  0.87533  Biso   1.000  H
  H53      1.0000 0.53667  0.12933  0.29133  Biso   1.000  H
  H54      1.0000 0.55667  0.98133  0.07033  Biso   1.000  H
  H55      1.0000 0.49267  0.99633  0.17833  Biso   1.000  H
  N23      1.0000 0.30465  0.56239  0.51357  Biso   1.000  N
  N24      1.0000 0.24767  0.43507  0.41757  Biso   1.000  N
  C45      1.0000 0.34590  0.56116  0.37207  Biso   1.000  C
  C46      1.0000 0.31054  0.48329  0.31047  Biso   1.000  C
  C47      1.0000 0.24565  0.48528  0.53667  Biso   1.000  C
  C48      1.0000 0.19473  0.34516  0.40877  Biso   1.000  C
  H56      1.0000 0.39333  0.60767  0.32567  Biso   1.000  H
  H57      1.0000 0.32233  0.46567  0.20867  Biso   1.000  H
  H58      1.0000 0.20333  0.46267  0.62467  Biso   1.000  H
  H59      1.0000 0.22333  0.31467  0.40367  Biso   1.000  H
  H60      1.0000 0.15933  0.32967  0.51167  Biso   1.000  H
  N25      1.0000 0.10428  0.07560  0.84690  Biso   1.000  N
  N26      1.0000 0.23160  0.14594  0.75090  Biso   1.000  N
  C49      1.0000 0.10551  0.11808  0.70540  Biso   1.000  C
  C50      1.0000 0.18338  0.16059  0.64380  Biso   1.000  C
  C51      1.0000 0.18139  0.09371  0.87000  Biso   1.000  C
  C52      1.0000 0.32151  0.18291  0.74210  Biso   1.000  C
  H61      1.0000 0.05900  0.11900  0.65900  Biso   1.000  H
  H62      1.0000 0.20100  0.19000  0.54200  Biso   1.000  H
  H63      1.0000 0.20400  0.07400  0.95800  Biso   1.000  H
  H64      1.0000 0.35200  0.24200  0.73700  Biso   1.000  H
  H65      1.0000 0.33700  0.16300  0.84500  Biso   1.000  H
  N27      1.0000 0.77095  0.40893  0.18023  Biso   1.000  N
  N28      1.0000 0.89827  0.47927  0.08423  Biso   1.000  N
  C53      1.0000 0.77218  0.45141  0.03873  Biso   1.000  C
  C54      1.0000 0.85005  0.49392  0.97713  Biso   1.000  C
  C55      1.0000 0.84806  0.42704  0.20333  Biso   1.000  C
  C56      1.0000 0.98818  0.51624  0.07543  Biso   1.000  C
  H66      1.0000 0.72567  0.45233  0.99233  Biso   1.000  H
  H67      1.0000 0.86767  0.52333  0.87533  Biso   1.000  H
  H68      1.0000 0.87067  0.40733  0.29133  Biso   1.000  H
  H69      1.0000 0.01867  0.57533  0.07033  Biso   1.000  H
  H70      1.0000 0.00367  0.49633  0.17833  Biso   1.000  H
  N29      1.0000 0.43761  0.74227  0.51357  Biso   1.000  N
  N30      1.0000 0.56493  0.81261  0.41757  Biso   1.000  N
  C57      1.0000 0.43884  0.78475  0.37207  Biso   1.000  C
  C58      1.0000 0.51671  0.82726  0.31047  Biso   1.000  C
  C59      1.0000 0.51472  0.76038  0.53667  Biso   1.000  C
  C60      1.0000 0.65484  0.84958  0.40877  Biso   1.000  C
  H71      1.0000 0.39233  0.78567  0.32567  Biso   1.000  H
  H72      1.0000 0.53433  0.85667  0.20867  Biso   1.000  H
  H73      1.0000 0.53733  0.74067  0.62467  Biso   1.000  H
  H74      1.0000 0.68533  0.90867  0.40367  Biso   1.000  H
  H75      1.0000 0.67033  0.82967  0.51167  Biso   1.000  H
  N31      1.0000 0.92440  0.02868  0.84690  Biso   1.000  N
  N32      1.0000 0.85406  0.08566  0.75090  Biso   1.000  N
  C61      1.0000 0.88192  0.98743  0.70540  Biso   1.000  C
  C62      1.0000 0.83941  0.02279  0.64380  Biso   1.000  C
  C63      1.0000 0.90629  0.08768  0.87000  Biso   1.000  C
  C64      1.0000 0.81709  0.13860  0.74210  Biso   1.000  C
  H76      1.0000 0.88100  0.94000  0.65900  Biso   1.000  H
  H77      1.0000 0.81000  0.01100  0.54200  Biso   1.000  H
  H78      1.0000 0.92600  0.13000  0.95800  Biso   1.000  H
  H79      1.0000 0.75800  0.11000  0.73700  Biso   1.000  H
  H80      1.0000 0.83700  0.17400  0.84500  Biso   1.000  H
  N33      1.0000 0.59107  0.36201  0.18023  Biso   1.000  N
  N34      1.0000 0.52073  0.41899  0.08423  Biso   1.000  N
  C65      1.0000 0.54859  0.32076  0.03873  Biso   1.000  C
  C66      1.0000 0.50608  0.35612  0.97713  Biso   1.000  C
  C67      1.0000 0.57296  0.42101  0.20333  Biso   1.000  C
  C68      1.0000 0.48376  0.47193  0.07543  Biso   1.000  C
  H81      1.0000 0.54767  0.27333  0.99233  Biso   1.000  H
  H82      1.0000 0.47667  0.34433  0.87533  Biso   1.000  H
  H83      1.0000 0.59267  0.46333  0.29133  Biso   1.000  H
  H84      1.0000 0.42467  0.44333  0.07033  Biso   1.000  H
  H85      1.0000 0.50367  0.50733  0.17833  Biso   1.000  H
  N35      1.0000 0.25773  0.69535  0.51357  Biso   1.000  N
  N36      1.0000 0.18739  0.75233  0.41757  Biso   1.000  N
  C69      1.0000 0.21525  0.65410  0.37207  Biso   1.000  C
  C70      1.0000 0.17274  0.68946  0.31047  Biso   1.000  C
  C71      1.0000 0.23962  0.75435  0.53667  Biso   1.000  C
  C72      1.0000 0.15042  0.80527  0.40877  Biso   1.000  C
  H86      1.0000 0.21433  0.60667  0.32567  Biso   1.000  H
  H87      1.0000 0.14333  0.67767  0.20867  Biso   1.000  H
  H88      1.0000 0.25933  0.79667  0.62467  Biso   1.000  H
  H89      1.0000 0.09133  0.77667  0.40367  Biso   1.000  H
  H90      1.0000 0.17033  0.84067  0.51167  Biso   1.000  H
  Ni1      1.0000 0.00000  0.00000  0.00000  Biso   1.000  Ni
  Ni2      1.0000 0.66667  0.33333  0.33333  Biso   1.000  Ni
  Ni3      1.0000 0.33333  0.66667  0.66667  Biso   1.000  Ni
