data_TATSIS_clean
_audit_creation_date              2014-07-02
_audit_creation_method            'Materials Studio'
_symmetry_space_group_name_H-M    'P1'
_symmetry_Int_Tables_number       1
_symmetry_cell_setting            triclinic
loop_
_symmetry_equiv_pos_as_xyz
  x,y,z
_cell_length_a                    9.8190
_cell_length_b                    11.0731
_cell_length_c                    12.6499
_cell_angle_alpha                 90.0000
_cell_angle_beta                  90.0000
_cell_angle_gamma                 99.8520
loop_
_atom_site_label
_atom_site_type_symbol
_atom_site_fract_x
_atom_site_fract_y
_atom_site_fract_z
_atom_site_U_iso_or_equiv
_atom_site_adp_type
_atom_site_occupancy
Co1    Co    0.87280   0.75077   0.56632   0.01267  Uiso   1.00
Co2    Co    0.37640   0.74812   0.56436   0.01267  Uiso   1.00
Co3    Co    0.12720   0.24923   0.06632   0.01267  Uiso   1.00
Co4    Co    0.62360   0.25188   0.06436   0.01267  Uiso   1.00
H1     H     0.10340   0.36740   0.45860   0.01267  Uiso   1.00
H2     H     0.85150   0.01590   0.51550   0.01267  Uiso   1.00
H3     H     0.45440   0.00780   0.73500   0.01267  Uiso   1.00
H4     H     0.10290   0.24130   0.31270   0.01267  Uiso   1.00
H5     H     0.60290   0.51260   0.83940   0.01267  Uiso   1.00
H6     H     0.10550   0.64690   0.25880   0.01267  Uiso   1.00
H7     H     0.44540   0.13140   0.88480   0.01267  Uiso   1.00
H8     H     0.84110   0.14820   0.37700   0.01267  Uiso   1.00
H9     H     0.12090   0.51920   0.12330   0.01267  Uiso   1.00
H10    H     0.19470   0.62720   0.74580   0.01267  Uiso   1.00
H11    H     0.58790   0.64180   0.69820   0.01267  Uiso   1.00
H12    H     0.85280   0.00780   0.80010   0.01267  Uiso   1.00
H13    H     0.87160   0.86880   0.18190   0.01267  Uiso   1.00
H14    H     0.87180   0.74560   0.32320   0.01267  Uiso   1.00
H15    H     0.19230   0.49420   0.88090   0.01267  Uiso   1.00
H16    H     0.83650   0.13530   0.93980   0.01267  Uiso   1.00
H17    H     0.89660   0.63260   0.95860   0.01267  Uiso   1.00
H18    H     0.14850   0.98410   0.01550   0.01267  Uiso   1.00
H19    H     0.54560   0.99220   0.23500   0.01267  Uiso   1.00
H20    H     0.89710   0.75870   0.81270   0.01267  Uiso   1.00
H21    H     0.39710   0.48740   0.33940   0.01267  Uiso   1.00
H22    H     0.89450   0.35310   0.75880   0.01267  Uiso   1.00
H23    H     0.55460   0.86860   0.38480   0.01267  Uiso   1.00
H24    H     0.15890   0.85180   0.87700   0.01267  Uiso   1.00
H25    H     0.87910   0.48080   0.62330   0.01267  Uiso   1.00
H26    H     0.80530   0.37280   0.24580   0.01267  Uiso   1.00
H27    H     0.41210   0.35820   0.19820   0.01267  Uiso   1.00
H28    H     0.14720   0.99220   0.30010   0.01267  Uiso   1.00
H29    H     0.12840   0.13120   0.68190   0.01267  Uiso   1.00
H30    H     0.12820   0.25440   0.82320   0.01267  Uiso   1.00
H31    H     0.80770   0.50580   0.38090   0.01267  Uiso   1.00
H32    H     0.16350   0.86470   0.43980   0.01267  Uiso   1.00
C1     C     0.65210   0.89780   0.66480   0.01267  Uiso   1.00
C2     C     0.65210   0.98920   0.75410   0.01267  Uiso   1.00
C3     C     0.10460   0.39970   0.39070   0.01267  Uiso   1.00
C4     C     0.85310   0.98570   0.44700   0.01267  Uiso   1.00
C5     C     0.53230   0.03000   0.77700   0.01267  Uiso   1.00
C6     C     0.10720   0.32490   0.30160   0.01267  Uiso   1.00
C7     C     0.40740   0.39820   0.96690   0.01267  Uiso   1.00
C8     C     0.09290   0.60480   0.46650   0.01267  Uiso   1.00
C9     C     0.39750   0.48690   0.87500   0.01267  Uiso   1.00
C10    C     0.10390   0.52390   0.37410   0.01267  Uiso   1.00
C11    C     0.51850   0.53330   0.82020   0.01267  Uiso   1.00
C12    C     0.10790   0.56480   0.27240   0.01267  Uiso   1.00
C13    C     0.52840   0.10710   0.86640   0.01267  Uiso   1.00
C14    C     0.84740   0.06670   0.36400   0.01267  Uiso   1.00
C15    C     0.11540   0.48690   0.19130   0.01267  Uiso   1.00
C16    C     0.27720   0.60170   0.76370   0.01267  Uiso   1.00
C17    C     0.50830   0.61130   0.73630   0.01267  Uiso   1.00
C18    C     0.76860   0.03150   0.81570   0.01267  Uiso   1.00
C19    C     0.86410   0.90130   0.24900   0.01267  Uiso   1.00
C20    C     0.86630   0.82770   0.33390   0.01267  Uiso   1.00
C21    C     0.27430   0.52320   0.84540   0.01267  Uiso   1.00
C22    C     0.84660   0.10900   0.16760   0.01267  Uiso   1.00
C23    C     0.75800   0.10830   0.89940   0.01267  Uiso   1.00
C24    C     0.85130   0.02260   0.25830   0.01267  Uiso   1.00
C25    C     0.34790   0.10220   0.16480   0.01267  Uiso   1.00
C26    C     0.34790   0.01080   0.25410   0.01267  Uiso   1.00
C27    C     0.89540   0.60030   0.89070   0.01267  Uiso   1.00
C28    C     0.14690   0.01430   0.94700   0.01267  Uiso   1.00
C29    C     0.46770   0.97000   0.27700   0.01267  Uiso   1.00
C30    C     0.89280   0.67510   0.80160   0.01267  Uiso   1.00
C31    C     0.59260   0.60180   0.46690   0.01267  Uiso   1.00
C32    C     0.90710   0.39520   0.96650   0.01267  Uiso   1.00
C33    C     0.60250   0.51310   0.37500   0.01267  Uiso   1.00
C34    C     0.89610   0.47610   0.87410   0.01267  Uiso   1.00
C35    C     0.48150   0.46670   0.32020   0.01267  Uiso   1.00
C36    C     0.89210   0.43520   0.77240   0.01267  Uiso   1.00
C37    C     0.47160   0.89290   0.36640   0.01267  Uiso   1.00
C38    C     0.15260   0.93330   0.86400   0.01267  Uiso   1.00
C39    C     0.88460   0.51310   0.69130   0.01267  Uiso   1.00
C40    C     0.72280   0.39830   0.26370   0.01267  Uiso   1.00
C41    C     0.49170   0.38870   0.23630   0.01267  Uiso   1.00
C42    C     0.23140   0.96850   0.31570   0.01267  Uiso   1.00
C43    C     0.13590   0.09870   0.74900   0.01267  Uiso   1.00
C44    C     0.13370   0.17230   0.83390   0.01267  Uiso   1.00
C45    C     0.72570   0.47680   0.34540   0.01267  Uiso   1.00
C46    C     0.15340   0.89100   0.66760   0.01267  Uiso   1.00
C47    C     0.24200   0.89170   0.39940   0.01267  Uiso   1.00
C48    C     0.14870   0.97740   0.75830   0.01267  Uiso   1.00
N1     N     0.11540   0.36520   0.20200   0.01267  Uiso   1.00
N2     N     0.38790   0.64540   0.70700   0.01267  Uiso   1.00
N3     N     0.86070   0.86970   0.43500   0.01267  Uiso   1.00
N4     N     0.64180   0.14570   0.92510   0.01267  Uiso   1.00
N5     N     0.88460   0.63480   0.70200   0.01267  Uiso   1.00
N6     N     0.61210   0.35460   0.20700   0.01267  Uiso   1.00
N7     N     0.13930   0.13030   0.93500   0.01267  Uiso   1.00
N8     N     0.35820   0.85430   0.42510   0.01267  Uiso   1.00
O1     O     0.55520   0.87520   0.60550   0.01267  Uiso   1.00
O2     O     0.29900   0.37090   0.02080   0.01267  Uiso   1.00
O3     O     0.98480   0.64560   0.47440   0.01267  Uiso   1.00
O4     O     0.51820   0.36470   0.98080   0.01267  Uiso   1.00
O5     O     0.19380   0.62570   0.53230   0.01267  Uiso   1.00
O6     O     0.73400   0.14720   0.15960   0.01267  Uiso   1.00
O7     O     0.94750   0.12630   0.10890   0.01267  Uiso   1.00
O8     O     0.76770   0.85160   0.66450   0.01267  Uiso   1.00
O9     O     0.44480   0.12480   0.10550   0.01267  Uiso   1.00
O10    O     0.70100   0.62910   0.52080   0.01267  Uiso   1.00
O11    O     0.01520   0.35440   0.97440   0.01267  Uiso   1.00
O12    O     0.48180   0.63530   0.48080   0.01267  Uiso   1.00
O13    O     0.80620   0.37430   0.03230   0.01267  Uiso   1.00
O14    O     0.26600   0.85280   0.65960   0.01267  Uiso   1.00
O15    O     0.05250   0.87370   0.60890   0.01267  Uiso   1.00
O16    O     0.23230   0.14840   0.16450   0.01267  Uiso   1.00
