data_image0
_cell_length_a       9.81
_cell_length_b       12.753
_cell_length_c       10.917
_cell_angle_alpha    90
_cell_angle_beta     100.63
_cell_angle_gamma    90

_symmetry_space_group_name_H-M    "P 1"
_symmetry_int_tables_number       1

loop_
  _symmetry_equiv_pos_as_xyz
  'x, y, z'

loop_
  _atom_site_label
  _atom_site_occupancy
  _atom_site_fract_x
  _atom_site_fract_y
  _atom_site_fract_z
  _atom_site_thermal_displace_type
  _atom_site_B_iso_or_equiv
  _atom_site_type_symbol
  C1       1.0000 0.13600  0.51480  0.67750  Biso   1.000  C
  H1       1.0000 0.13260  0.52380  0.76140  Biso   1.000  H
  N1       1.0000 0.13950  0.41680  0.63260  Biso   1.000  N
  C2       1.0000 0.14580  0.40440  0.51410  Biso   1.000  C
  H2       1.0000 0.14680  0.33680  0.48220  Biso   1.000  H
  O1       1.0000 0.26650  0.69260  0.35710  Biso   1.000  O
  N2       1.0000 0.64120  0.42410  0.64600  Biso   1.000  N
  C3       1.0000 0.52990  0.48420  0.60860  Biso   1.000  C
  H3       1.0000 0.44740  0.46650  0.63400  Biso   1.000  H
  O2       1.0000 0.01830  0.37510  0.85570  Biso   1.000  O
  O3       1.0000 0.81200  0.31640  0.87750  Biso   1.000  O
  N3       1.0000 0.61120  0.14370  0.85330  Biso   1.000  N
  Co1      1.0000 0.37664  0.78334  0.24877  Biso   1.000  Co
  Co2      1.0000 0.87266  0.78184  0.25041  Biso   1.000  Co
  O4       1.0000 0.76860  0.68850  0.35640  Biso   1.000  O
  O5       1.0000 0.47880  0.86920  0.13390  Biso   1.000  O
  O6       1.0000 0.04980  0.74580  0.37690  Biso   1.000  O
  C4       1.0000 0.15360  0.68220  0.39790  Biso   1.000  C
  C5       1.0000 0.65870  0.68290  0.40440  Biso   1.000  C
  O7       1.0000 0.55460  0.74870  0.37800  Biso   1.000  O
  C6       1.0000 0.59910  0.97000  0.00880  Biso   1.000  C
  C7       1.0000 0.65480  0.59650  0.49260  Biso   1.000  C
  C8       1.0000 0.14780  0.59020  0.47890  Biso   1.000  C
  O8       1.0000 0.69430  0.82670  0.12590  Biso   1.000  O
  C9       1.0000 0.48140  0.02830  0.96290  Biso   1.000  C
  H4       1.0000 0.39690  0.01010  0.98400  Biso   1.000  H
  C10      1.0000 0.72190  0.99800  0.97330  Biso   1.000  C
  H5       1.0000 0.80210  0.95920  0.00000  Biso   1.000  H
  N4       1.0000 0.88490  0.64740  0.13560  Biso   1.000  N
  C11      1.0000 0.72400  0.08510  0.89710  Biso   1.000  C
  H6       1.0000 0.80790  0.10400  0.87510  Biso   1.000  H
  C12      1.0000 0.89000  0.54780  0.17940  Biso   1.000  C
  H7       1.0000 0.88990  0.53730  0.26370  Biso   1.000  H
  C13      1.0000 0.89150  0.57460  0.93150  Biso   1.000  C
  H8       1.0000 0.89330  0.58580  0.84760  Biso   1.000  H
  C14      1.0000 0.13720  0.60220  0.60370  Biso   1.000  C
  H9       1.0000 0.13100  0.66880  0.63690  Biso   1.000  H
  C15      1.0000 0.88490  0.65830  0.01130  Biso   1.000  C
  H10      1.0000 0.88020  0.72570  0.97820  Biso   1.000  H
  C16      1.0000 0.15100  0.48940  0.43480  Biso   1.000  C
  H11      1.0000 0.15660  0.47790  0.35180  Biso   1.000  H
  C17      1.0000 0.77020  0.53530  0.53470  Biso   1.000  C
  H12      1.0000 0.85470  0.55080  0.51180  Biso   1.000  H
  C18      1.0000 0.75830  0.44990  0.61220  Biso   1.000  C
  H13      1.0000 0.83670  0.40970  0.64100  Biso   1.000  H
  C19      1.0000 0.89530  0.46040  0.10370  Biso   1.000  C
  H14      1.0000 0.89880  0.39350  0.13790  Biso   1.000  H
  C20      1.0000 0.89540  0.47310  0.97990  Biso   1.000  C
  C21      1.0000 0.48920  0.11290  0.88660  Biso   1.000  C
  H15      1.0000 0.40880  0.15070  0.85650  Biso   1.000  H
  C22      1.0000 0.53140  0.57170  0.53370  Biso   1.000  C
  H16      1.0000 0.45260  0.61300  0.51130  Biso   1.000  H
  C23      1.0000 0.90810  0.37680  0.89460  Biso   1.000  C
  C24      1.0000 0.59140  0.87840  0.10040  Biso   1.000  C
  C25      1.0000 0.86400  0.01480  0.32250  Biso   1.000  C
  H17      1.0000 0.86740  0.02380  0.23860  Biso   1.000  H
  N5       1.0000 0.86050  0.91680  0.36740  Biso   1.000  N
  C26      1.0000 0.85420  0.90440  0.48590  Biso   1.000  C
  H18      1.0000 0.85320  0.83680  0.51780  Biso   1.000  H
  O9       1.0000 0.73350  0.19260  0.64290  Biso   1.000  O
  N6       1.0000 0.35880  0.92410  0.35400  Biso   1.000  N
  C27      1.0000 0.47010  0.98420  0.39140  Biso   1.000  C
  H19      1.0000 0.55260  0.96650  0.36600  Biso   1.000  H
  O10      1.0000 0.98170  0.87510  0.14430  Biso   1.000  O
  O11      1.0000 0.18800  0.81640  0.12250  Biso   1.000  O
  N7       1.0000 0.38880  0.64370  0.14670  Biso   1.000  N
  Co3      1.0000 0.62336  0.28334  0.75123  Biso   1.000  Co
  Co4      1.0000 0.12734  0.28184  0.74959  Biso   1.000  Co
  O12      1.0000 0.23140  0.18850  0.64360  Biso   1.000  O
  O13      1.0000 0.52120  0.36920  0.86610  Biso   1.000  O
  O14      1.0000 0.95020  0.24580  0.62310  Biso   1.000  O
  C28      1.0000 0.84640  0.18220  0.60210  Biso   1.000  C
  C29      1.0000 0.34130  0.18290  0.59560  Biso   1.000  C
  O15      1.0000 0.44540  0.24870  0.62200  Biso   1.000  O
  C30      1.0000 0.40090  0.47000  0.99120  Biso   1.000  C
  C31      1.0000 0.34520  0.09650  0.50740  Biso   1.000  C
  C32      1.0000 0.85220  0.09020  0.52110  Biso   1.000  C
  O16      1.0000 0.30570  0.32670  0.87410  Biso   1.000  O
  C33      1.0000 0.51860  0.52830  0.03710  Biso   1.000  C
  H20      1.0000 0.60310  0.51010  0.01600  Biso   1.000  H
  C34      1.0000 0.27810  0.49800  0.02670  Biso   1.000  C
  H21      1.0000 0.19790  0.45920  0.00000  Biso   1.000  H
  N8       1.0000 0.11510  0.14740  0.86440  Biso   1.000  N
  C35      1.0000 0.27600  0.58510  0.10290  Biso   1.000  C
  H22      1.0000 0.19210  0.60400  0.12490  Biso   1.000  H
  C36      1.0000 0.11000  0.04780  0.82060  Biso   1.000  C
  H23      1.0000 0.11010  0.03730  0.73630  Biso   1.000  H
  C37      1.0000 0.10850  0.07460  0.06850  Biso   1.000  C
  H24      1.0000 0.10670  0.08580  0.15240  Biso   1.000  H
  C38      1.0000 0.86280  0.10220  0.39630  Biso   1.000  C
  H25      1.0000 0.86900  0.16880  0.36310  Biso   1.000  H
  C39      1.0000 0.11510  0.15830  0.98870  Biso   1.000  C
  H26      1.0000 0.11980  0.22570  0.02180  Biso   1.000  H
  C40      1.0000 0.84900  0.98940  0.56520  Biso   1.000  C
  H27      1.0000 0.84340  0.97790  0.64820  Biso   1.000  H
  C41      1.0000 0.22980  0.03530  0.46530  Biso   1.000  C
  H28      1.0000 0.14530  0.05080  0.48820  Biso   1.000  H
  C42      1.0000 0.24170  0.94990  0.38780  Biso   1.000  C
  H29      1.0000 0.16330  0.90970  0.35900  Biso   1.000  H
  C43      1.0000 0.10470  0.96040  0.89630  Biso   1.000  C
  H30      1.0000 0.10120  0.89350  0.86210  Biso   1.000  H
  C44      1.0000 0.10460  0.97310  0.02010  Biso   1.000  C
  C45      1.0000 0.51080  0.61290  0.11340  Biso   1.000  C
  H31      1.0000 0.59120  0.65070  0.14350  Biso   1.000  H
  C46      1.0000 0.46860  0.07170  0.46630  Biso   1.000  C
  H32      1.0000 0.54740  0.11300  0.48870  Biso   1.000  H
  C47      1.0000 0.09190  0.87680  0.10540  Biso   1.000  C
  C48      1.0000 0.40860  0.37840  0.89960  Biso   1.000  C
