data_image0
_cell_length_a       17.3088
_cell_length_b       17.4277
_cell_length_c       7.8949
_cell_angle_alpha    90
_cell_angle_beta     90
_cell_angle_gamma    90

_symmetry_space_group_name_H-M    "P 1"
_symmetry_int_tables_number       1

loop_
  _symmetry_equiv_pos_as_xyz
  'x, y, z'

loop_
  _atom_site_label
  _atom_site_occupancy
  _atom_site_fract_x
  _atom_site_fract_y
  _atom_site_fract_z
  _atom_site_thermal_displace_type
  _atom_site_B_iso_or_equiv
  _atom_site_type_symbol
  Ca1      1.0000 0.91951  0.30382  0.17959  Biso   1.000  Ca
  O1       1.0000 0.92750  0.62770  0.54770  Biso   1.000  O
  O2       1.0000 0.97820  0.61030  0.80410  Biso   1.000  O
  O3       1.0000 0.84327  0.36129  0.98340  Biso   1.000  O
  O4       1.0000 0.82114  0.28608  0.68460  Biso   1.000  O
  O5       1.0000 0.84481  0.35802  0.38310  Biso   1.000  O
  C1       1.0000 0.94120  0.58570  0.67800  Biso   1.000  C
  C2       1.0000 0.91020  0.50630  0.68000  Biso   1.000  C
  C3       1.0000 0.89560  0.46990  0.83560  Biso   1.000  C
  H1       1.0000 0.90760  0.49470  0.93650  Biso   1.000  H
  C4       1.0000 0.86300  0.39630  0.83870  Biso   1.000  C
  C5       1.0000 0.84920  0.35840  0.68220  Biso   1.000  C
  C6       1.0000 0.86330  0.39470  0.52680  Biso   1.000  C
  C7       1.0000 0.89430  0.46900  0.52790  Biso   1.000  C
  H2       1.0000 0.90440  0.49370  0.42590  Biso   1.000  H
  O6       1.0000 0.99240  0.25510  0.92660  Biso   1.000  O
  K1       1.0000 0.78394  0.48207  0.18251  Biso   1.000  K
  O7       1.0000 0.73240  0.59180  0.94160  Biso   1.000  O
  Ca2      1.0000 0.58049  0.19618  0.17959  Biso   1.000  Ca
  O8       1.0000 0.57250  0.87230  0.54770  Biso   1.000  O
  O9       1.0000 0.52180  0.88970  0.80410  Biso   1.000  O
  O10      1.0000 0.65673  0.13871  0.98340  Biso   1.000  O
  O11      1.0000 0.67886  0.21392  0.68460  Biso   1.000  O
  O12      1.0000 0.65519  0.14198  0.38310  Biso   1.000  O
  C8       1.0000 0.55880  0.91430  0.67800  Biso   1.000  C
  C9       1.0000 0.58980  0.99370  0.68000  Biso   1.000  C
  C10      1.0000 0.60440  0.03010  0.83560  Biso   1.000  C
  H3       1.0000 0.59240  0.00530  0.93650  Biso   1.000  H
  C11      1.0000 0.63700  0.10370  0.83870  Biso   1.000  C
  C12      1.0000 0.65080  0.14160  0.68220  Biso   1.000  C
  C13      1.0000 0.63670  0.10530  0.52680  Biso   1.000  C
  C14      1.0000 0.60570  0.03100  0.52790  Biso   1.000  C
  H4       1.0000 0.59560  0.00630  0.42590  Biso   1.000  H
  O13      1.0000 0.50760  0.24490  0.92660  Biso   1.000  O
  K2       1.0000 0.71606  0.01793  0.18251  Biso   1.000  K
  O14      1.0000 0.76760  0.90820  0.94160  Biso   1.000  O
  Ca3      1.0000 0.08049  0.80382  0.32041  Biso   1.000  Ca
  O15      1.0000 0.07250  0.12770  0.95230  Biso   1.000  O
  O16      1.0000 0.02180  0.11030  0.69590  Biso   1.000  O
  O17      1.0000 0.15673  0.86129  0.51660  Biso   1.000  O
  O18      1.0000 0.17886  0.78608  0.81540  Biso   1.000  O
  O19      1.0000 0.15519  0.85802  0.11690  Biso   1.000  O
  C15      1.0000 0.05880  0.08570  0.82200  Biso   1.000  C
  C16      1.0000 0.08980  0.00630  0.82000  Biso   1.000  C
  C17      1.0000 0.10440  0.96990  0.66440  Biso   1.000  C
  H5       1.0000 0.09240  0.99470  0.56350  Biso   1.000  H
  C18      1.0000 0.13700  0.89630  0.66130  Biso   1.000  C
  C19      1.0000 0.15080  0.85840  0.81780  Biso   1.000  C
  C20      1.0000 0.13670  0.89470  0.97320  Biso   1.000  C
  C21      1.0000 0.10570  0.96900  0.97210  Biso   1.000  C
  H6       1.0000 0.09560  0.99370  0.07410  Biso   1.000  H
  O20      1.0000 0.00760  0.75510  0.57340  Biso   1.000  O
  K3       1.0000 0.21606  0.98207  0.31749  Biso   1.000  K
  O21      1.0000 0.26760  0.09180  0.55840  Biso   1.000  O
  Ca4      1.0000 0.41951  0.69618  0.32041  Biso   1.000  Ca
  O22      1.0000 0.42750  0.37230  0.95230  Biso   1.000  O
  O23      1.0000 0.47820  0.38970  0.69590  Biso   1.000  O
  O24      1.0000 0.34327  0.63871  0.51660  Biso   1.000  O
  O25      1.0000 0.32114  0.71392  0.81540  Biso   1.000  O
  O26      1.0000 0.34481  0.64198  0.11690  Biso   1.000  O
  C22      1.0000 0.44120  0.41430  0.82200  Biso   1.000  C
  C23      1.0000 0.41020  0.49370  0.82000  Biso   1.000  C
  C24      1.0000 0.39560  0.53010  0.66440  Biso   1.000  C
  H7       1.0000 0.40760  0.50530  0.56350  Biso   1.000  H
  C25      1.0000 0.36300  0.60370  0.66130  Biso   1.000  C
  C26      1.0000 0.34920  0.64160  0.81780  Biso   1.000  C
  C27      1.0000 0.36330  0.60530  0.97320  Biso   1.000  C
  C28      1.0000 0.39430  0.53100  0.97210  Biso   1.000  C
  H8       1.0000 0.40440  0.50630  0.07410  Biso   1.000  H
  O27      1.0000 0.49240  0.74490  0.57340  Biso   1.000  O
  K4       1.0000 0.28394  0.51793  0.31749  Biso   1.000  K
  O28      1.0000 0.23240  0.40820  0.55840  Biso   1.000  O
  Ca5      1.0000 0.08049  0.69618  0.82041  Biso   1.000  Ca
  O29      1.0000 0.07250  0.37230  0.45230  Biso   1.000  O
  O30      1.0000 0.02180  0.38970  0.19590  Biso   1.000  O
  O31      1.0000 0.15673  0.63871  0.01660  Biso   1.000  O
  O32      1.0000 0.17886  0.71392  0.31540  Biso   1.000  O
  O33      1.0000 0.15519  0.64198  0.61690  Biso   1.000  O
  C29      1.0000 0.05880  0.41430  0.32200  Biso   1.000  C
  C30      1.0000 0.08980  0.49370  0.32000  Biso   1.000  C
  C31      1.0000 0.10440  0.53010  0.16440  Biso   1.000  C
  H9       1.0000 0.09240  0.50530  0.06350  Biso   1.000  H
  C32      1.0000 0.13700  0.60370  0.16130  Biso   1.000  C
  C33      1.0000 0.15080  0.64160  0.31780  Biso   1.000  C
  C34      1.0000 0.13670  0.60530  0.47320  Biso   1.000  C
  C35      1.0000 0.10570  0.53100  0.47210  Biso   1.000  C
  H10      1.0000 0.09560  0.50630  0.57410  Biso   1.000  H
  O34      1.0000 0.00760  0.74490  0.07340  Biso   1.000  O
  K5       1.0000 0.21606  0.51793  0.81749  Biso   1.000  K
  O35      1.0000 0.26760  0.40820  0.05840  Biso   1.000  O
  Ca6      1.0000 0.41951  0.80382  0.82041  Biso   1.000  Ca
  O36      1.0000 0.42750  0.12770  0.45230  Biso   1.000  O
  O37      1.0000 0.47820  0.11030  0.19590  Biso   1.000  O
  O38      1.0000 0.34327  0.86129  0.01660  Biso   1.000  O
  O39      1.0000 0.32114  0.78608  0.31540  Biso   1.000  O
  O40      1.0000 0.34481  0.85802  0.61690  Biso   1.000  O
  C36      1.0000 0.44120  0.08570  0.32200  Biso   1.000  C
  C37      1.0000 0.41020  0.00630  0.32000  Biso   1.000  C
  C38      1.0000 0.39560  0.96990  0.16440  Biso   1.000  C
  H11      1.0000 0.40760  0.99470  0.06350  Biso   1.000  H
  C39      1.0000 0.36300  0.89630  0.16130  Biso   1.000  C
  C40      1.0000 0.34920  0.85840  0.31780  Biso   1.000  C
  C41      1.0000 0.36330  0.89470  0.47320  Biso   1.000  C
  C42      1.0000 0.39430  0.96900  0.47210  Biso   1.000  C
  H12      1.0000 0.40440  0.99370  0.57410  Biso   1.000  H
  O41      1.0000 0.49240  0.75510  0.07340  Biso   1.000  O
  K6       1.0000 0.28394  0.98207  0.81749  Biso   1.000  K
  O42      1.0000 0.23240  0.09180  0.05840  Biso   1.000  O
  Ca7      1.0000 0.91951  0.19618  0.67959  Biso   1.000  Ca
  O43      1.0000 0.92750  0.87230  0.04770  Biso   1.000  O
  O44      1.0000 0.97820  0.88970  0.30410  Biso   1.000  O
  O45      1.0000 0.84327  0.13871  0.48340  Biso   1.000  O
  O46      1.0000 0.82114  0.21392  0.18460  Biso   1.000  O
  O47      1.0000 0.84481  0.14198  0.88310  Biso   1.000  O
  C43      1.0000 0.94120  0.91430  0.17800  Biso   1.000  C
  C44      1.0000 0.91020  0.99370  0.18000  Biso   1.000  C
  C45      1.0000 0.89560  0.03010  0.33560  Biso   1.000  C
  H13      1.0000 0.90760  0.00530  0.43650  Biso   1.000  H
  C46      1.0000 0.86300  0.10370  0.33870  Biso   1.000  C
  C47      1.0000 0.84920  0.14160  0.18220  Biso   1.000  C
  C48      1.0000 0.86330  0.10530  0.02680  Biso   1.000  C
  C49      1.0000 0.89430  0.03100  0.02790  Biso   1.000  C
  H14      1.0000 0.90440  0.00630  0.92590  Biso   1.000  H
  O48      1.0000 0.99240  0.24490  0.42660  Biso   1.000  O
  K7       1.0000 0.78394  0.01793  0.68251  Biso   1.000  K
  O49      1.0000 0.73240  0.90820  0.44160  Biso   1.000  O
  Ca8      1.0000 0.58049  0.30382  0.67959  Biso   1.000  Ca
  O50      1.0000 0.57250  0.62770  0.04770  Biso   1.000  O
  O51      1.0000 0.52180  0.61030  0.30410  Biso   1.000  O
  O52      1.0000 0.65673  0.36129  0.48340  Biso   1.000  O
  O53      1.0000 0.67886  0.28608  0.18460  Biso   1.000  O
  O54      1.0000 0.65519  0.35802  0.88310  Biso   1.000  O
  C50      1.0000 0.55880  0.58570  0.17800  Biso   1.000  C
  C51      1.0000 0.58980  0.50630  0.18000  Biso   1.000  C
  C52      1.0000 0.60440  0.46990  0.33560  Biso   1.000  C
  H15      1.0000 0.59240  0.49470  0.43650  Biso   1.000  H
  C53      1.0000 0.63700  0.39630  0.33870  Biso   1.000  C
  C54      1.0000 0.65080  0.35840  0.18220  Biso   1.000  C
  C55      1.0000 0.63670  0.39470  0.02680  Biso   1.000  C
  C56      1.0000 0.60570  0.46900  0.02790  Biso   1.000  C
  H16      1.0000 0.59560  0.49370  0.92590  Biso   1.000  H
  O55      1.0000 0.50760  0.25510  0.42660  Biso   1.000  O
  K8       1.0000 0.71606  0.48207  0.68251  Biso   1.000  K
  O56      1.0000 0.76760  0.59180  0.44160  Biso   1.000  O
  Ca9      1.0000 0.75000  0.25000  0.93378  Biso   1.000  Ca
  Ca10     1.0000 0.25000  0.75000  0.56622  Biso   1.000  Ca
  Ca11     1.0000 0.25000  0.75000  0.06622  Biso   1.000  Ca
  Ca12     1.0000 0.75000  0.25000  0.43378  Biso   1.000  Ca
