data_image0
_cell_length_a       11.6025
_cell_length_b       16.398
_cell_length_c       16.796
_cell_angle_alpha    90
_cell_angle_beta     109.3
_cell_angle_gamma    90

_symmetry_space_group_name_H-M    "P 1"
_symmetry_int_tables_number       1

loop_
  _symmetry_equiv_pos_as_xyz
  'x, y, z'

loop_
  _atom_site_label
  _atom_site_occupancy
  _atom_site_fract_x
  _atom_site_fract_y
  _atom_site_fract_z
  _atom_site_thermal_displace_type
  _atom_site_B_iso_or_equiv
  _atom_site_type_symbol
  Zn1      1.0000 0.33270  0.49086  0.22535  Biso   1.000  Zn
  N1       1.0000 0.18670  0.44470  0.12930  Biso   1.000  N
  N2       1.0000 0.72140  0.27900  0.85990  Biso   1.000  N
  H1       1.0000 0.73270  0.30790  0.81970  Biso   1.000  H
  O1       1.0000 0.78540  0.27180  0.00550  Biso   1.000  O
  C1       1.0000 0.08080  0.41780  0.98390  Biso   1.000  C
  H2       1.0000 0.07720  0.42400  0.92750  Biso   1.000  H
  O2       1.0000 0.76730  0.77190  0.94408  Biso   1.000  O
  N3       1.0000 0.89320  0.34540  0.93660  Biso   1.000  N
  H3       1.0000 0.89260  0.35910  0.88650  Biso   1.000  H
  N4       1.0000 0.82570  0.77220  0.08910  Biso   1.000  N
  H4       1.0000 0.88100  0.79170  0.13360  Biso   1.000  H
  N5       1.0000 0.93780  0.84270  0.02410  Biso   1.000  N
  H5       1.0000 0.97220  0.86170  0.07480  Biso   1.000  H
  O3       1.0000 0.17400  0.88602  0.73312  Biso   1.000  O
  C2       1.0000 0.47810  0.56990  0.16870  Biso   1.000  C
  C3       1.0000 0.73580  0.72290  0.10390  Biso   1.000  C
  O4       1.0000 0.42620  0.51450  0.11780  Biso   1.000  O
  O5       1.0000 0.45790  0.58070  0.23680  Biso   1.000  O
  C4       1.0000 0.65600  0.67350  0.04300  Biso   1.000  C
  H6       1.0000 0.65700  0.67350  0.98730  Biso   1.000  H
  C5       1.0000 0.56960  0.62340  0.14710  Biso   1.000  C
  C6       1.0000 0.17650  0.44980  0.04790  Biso   1.000  C
  H7       1.0000 0.23840  0.47690  0.03380  Biso   1.000  H
  C7       1.0000 0.57400  0.62360  0.06630  Biso   1.000  C
  H8       1.0000 0.52060  0.58960  0.02550  Biso   1.000  H
  C8       1.0000 0.99130  0.86570  0.96450  Biso   1.000  C
  C9       1.0000 0.64900  0.67340  0.20690  Biso   1.000  C
  H9       1.0000 0.64700  0.67410  0.26240  Biso   1.000  H
  C10      1.0000 0.62830  0.22270  0.83500  Biso   1.000  C
  C11      1.0000 0.79850  0.29570  0.93980  Biso   1.000  C
  C12      1.0000 0.15210  0.94240  0.93670  Biso   1.000  C
  H10      1.0000 0.21690  0.97990  0.95470  Biso   1.000  H
  C13      1.0000 0.18960  0.92850  0.79730  Biso   1.000  C
  C14      1.0000 0.99900  0.36960  0.08710  Biso   1.000  C
  H11      1.0000 0.93950  0.34160  0.10310  Biso   1.000  H
  C15      1.0000 0.95570  0.83530  0.88230  Biso   1.000  C
  H12      1.0000 0.88720  0.80100  0.86280  Biso   1.000  H
  C16      1.0000 0.12000  0.90890  0.85630  Biso   1.000  C
  C17      1.0000 0.83690  0.79340  0.01280  Biso   1.000  C
  C18      1.0000 0.08900  0.92060  0.99000  Biso   1.000  C
  H13      1.0000 0.11210  0.94300  0.04460  Biso   1.000  H
  C19      1.0000 0.98850  0.37590  0.00310  Biso   1.000  C
  C20      1.0000 0.73100  0.72210  0.18550  Biso   1.000  C
  H14      1.0000 0.78470  0.75550  0.22680  Biso   1.000  H
  C21      1.0000 0.02060  0.85550  0.82990  Biso   1.000  C
  H15      1.0000 0.99770  0.83290  0.77540  Biso   1.000  H
  C22      1.0000 0.56160  0.21700  0.75140  Biso   1.000  C
  H16      1.0000 0.57820  0.25270  0.71270  Biso   1.000  H
  C23      1.0000 0.47050  0.15980  0.72300  Biso   1.000  C
  H17      1.0000 0.42530  0.15840  0.66510  Biso   1.000  H
  C24      1.0000 0.50160  0.11630  0.85940  Biso   1.000  C
  H18      1.0000 0.47690  0.08310  0.89640  Biso   1.000  H
  C25      1.0000 0.59440  0.17250  0.89340  Biso   1.000  C
  H19      1.0000 0.63300  0.17740  0.95200  Biso   1.000  H
  C26      1.0000 0.09710  0.40460  0.14720  Biso   1.000  C
  H20      1.0000 0.10190  0.40040  0.20410  Biso   1.000  H
  O6       1.0000 0.26220  0.98899  0.81660  Biso   1.000  O
  N6       1.0000 0.44350  0.10670  0.77310  Biso   1.000  N
  Zn2      1.0000 0.33270  0.00914  0.72535  Biso   1.000  Zn
  N7       1.0000 0.18670  0.05530  0.62930  Biso   1.000  N
  N8       1.0000 0.72140  0.22100  0.35990  Biso   1.000  N
  H21      1.0000 0.73270  0.19210  0.31970  Biso   1.000  H
  O7       1.0000 0.78540  0.22820  0.50550  Biso   1.000  O
  C27      1.0000 0.08080  0.08220  0.48390  Biso   1.000  C
  H22      1.0000 0.07720  0.07600  0.42750  Biso   1.000  H
  O8       1.0000 0.76730  0.72810  0.44408  Biso   1.000  O
  N9       1.0000 0.89320  0.15460  0.43660  Biso   1.000  N
  H23      1.0000 0.89260  0.14090  0.38650  Biso   1.000  H
  N10      1.0000 0.82570  0.72780  0.58910  Biso   1.000  N
  H24      1.0000 0.88100  0.70830  0.63360  Biso   1.000  H
  N11      1.0000 0.93780  0.65730  0.52410  Biso   1.000  N
  H25      1.0000 0.97220  0.63830  0.57480  Biso   1.000  H
  O9       1.0000 0.17400  0.61398  0.23312  Biso   1.000  O
  C28      1.0000 0.47810  0.93010  0.66870  Biso   1.000  C
  C29      1.0000 0.73580  0.77710  0.60390  Biso   1.000  C
  O10      1.0000 0.42620  0.98550  0.61780  Biso   1.000  O
  O11      1.0000 0.45790  0.91930  0.73680  Biso   1.000  O
  C30      1.0000 0.65600  0.82650  0.54300  Biso   1.000  C
  H26      1.0000 0.65700  0.82650  0.48730  Biso   1.000  H
  C31      1.0000 0.56960  0.87660  0.64710  Biso   1.000  C
  C32      1.0000 0.17650  0.05020  0.54790  Biso   1.000  C
  H27      1.0000 0.23840  0.02310  0.53380  Biso   1.000  H
  C33      1.0000 0.57400  0.87640  0.56630  Biso   1.000  C
  H28      1.0000 0.52060  0.91040  0.52550  Biso   1.000  H
  C34      1.0000 0.99130  0.63430  0.46450  Biso   1.000  C
  C35      1.0000 0.64900  0.82660  0.70690  Biso   1.000  C
  H29      1.0000 0.64700  0.82590  0.76240  Biso   1.000  H
  C36      1.0000 0.62830  0.27730  0.33500  Biso   1.000  C
  C37      1.0000 0.79850  0.20430  0.43980  Biso   1.000  C
  C38      1.0000 0.15210  0.55760  0.43670  Biso   1.000  C
  H30      1.0000 0.21690  0.52010  0.45470  Biso   1.000  H
  C39      1.0000 0.18960  0.57150  0.29730  Biso   1.000  C
  C40      1.0000 0.99900  0.13040  0.58710  Biso   1.000  C
  H31      1.0000 0.93950  0.15840  0.60310  Biso   1.000  H
  C41      1.0000 0.95570  0.66470  0.38230  Biso   1.000  C
  H32      1.0000 0.88720  0.69900  0.36280  Biso   1.000  H
  C42      1.0000 0.12000  0.59110  0.35630  Biso   1.000  C
  C43      1.0000 0.83690  0.70660  0.51280  Biso   1.000  C
  C44      1.0000 0.08900  0.57940  0.49000  Biso   1.000  C
  H33      1.0000 0.11210  0.55700  0.54460  Biso   1.000  H
  C45      1.0000 0.98850  0.12410  0.50310  Biso   1.000  C
  C46      1.0000 0.73100  0.77790  0.68550  Biso   1.000  C
  H34      1.0000 0.78470  0.74450  0.72680  Biso   1.000  H
  C47      1.0000 0.02060  0.64450  0.32990  Biso   1.000  C
  H35      1.0000 0.99770  0.66710  0.27540  Biso   1.000  H
  C48      1.0000 0.56160  0.28300  0.25140  Biso   1.000  C
  H36      1.0000 0.57820  0.24730  0.21270  Biso   1.000  H
  C49      1.0000 0.47050  0.34020  0.22300  Biso   1.000  C
  H37      1.0000 0.42530  0.34160  0.16510  Biso   1.000  H
  C50      1.0000 0.50160  0.38370  0.35940  Biso   1.000  C
  H38      1.0000 0.47690  0.41690  0.39640  Biso   1.000  H
  C51      1.0000 0.59440  0.32750  0.39340  Biso   1.000  C
  H39      1.0000 0.63300  0.32260  0.45200  Biso   1.000  H
  C52      1.0000 0.09710  0.09540  0.64720  Biso   1.000  C
  H40      1.0000 0.10190  0.09960  0.70410  Biso   1.000  H
  O12      1.0000 0.26220  0.51101  0.31660  Biso   1.000  O
  N12      1.0000 0.44350  0.39330  0.27310  Biso   1.000  N
  Zn3      1.0000 0.66730  0.99086  0.27465  Biso   1.000  Zn
  N13      1.0000 0.81330  0.94470  0.37070  Biso   1.000  N
  N14      1.0000 0.27860  0.77900  0.64010  Biso   1.000  N
  H41      1.0000 0.26730  0.80790  0.68030  Biso   1.000  H
  O13      1.0000 0.21460  0.77180  0.49450  Biso   1.000  O
  C53      1.0000 0.91920  0.91780  0.51610  Biso   1.000  C
  H42      1.0000 0.92280  0.92400  0.57250  Biso   1.000  H
  O14      1.0000 0.23270  0.27190  0.55592  Biso   1.000  O
  N15      1.0000 0.10680  0.84540  0.56340  Biso   1.000  N
  H43      1.0000 0.10740  0.85910  0.61350  Biso   1.000  H
  N16      1.0000 0.17430  0.27220  0.41090  Biso   1.000  N
  H44      1.0000 0.11900  0.29170  0.36640  Biso   1.000  H
  N17      1.0000 0.06220  0.34270  0.47590  Biso   1.000  N
  H45      1.0000 0.02780  0.36170  0.42520  Biso   1.000  H
  O15      1.0000 0.82600  0.38602  0.76688  Biso   1.000  O
  C54      1.0000 0.52190  0.06990  0.33130  Biso   1.000  C
  C55      1.0000 0.26420  0.22290  0.39610  Biso   1.000  C
  O16      1.0000 0.57380  0.01450  0.38220  Biso   1.000  O
  O17      1.0000 0.54210  0.08070  0.26320  Biso   1.000  O
  C56      1.0000 0.34400  0.17350  0.45700  Biso   1.000  C
  H46      1.0000 0.34300  0.17350  0.51270  Biso   1.000  H
  C57      1.0000 0.43040  0.12340  0.35290  Biso   1.000  C
  C58      1.0000 0.82350  0.94980  0.45210  Biso   1.000  C
  H47      1.0000 0.76160  0.97690  0.46620  Biso   1.000  H
  C59      1.0000 0.42600  0.12360  0.43370  Biso   1.000  C
  H48      1.0000 0.47940  0.08960  0.47450  Biso   1.000  H
  C60      1.0000 0.00870  0.36570  0.53550  Biso   1.000  C
  C61      1.0000 0.35100  0.17340  0.29310  Biso   1.000  C
  H49      1.0000 0.35300  0.17410  0.23760  Biso   1.000  H
  C62      1.0000 0.37170  0.72270  0.66500  Biso   1.000  C
  C63      1.0000 0.20150  0.79570  0.56020  Biso   1.000  C
  C64      1.0000 0.84790  0.44240  0.56330  Biso   1.000  C
  H50      1.0000 0.78310  0.47990  0.54530  Biso   1.000  H
  C65      1.0000 0.81040  0.42850  0.70270  Biso   1.000  C
  C66      1.0000 0.00100  0.86960  0.41290  Biso   1.000  C
  H51      1.0000 0.06050  0.84160  0.39690  Biso   1.000  H
  C67      1.0000 0.04430  0.33530  0.61770  Biso   1.000  C
  H52      1.0000 0.11280  0.30100  0.63720  Biso   1.000  H
  C68      1.0000 0.88000  0.40890  0.64370  Biso   1.000  C
  C69      1.0000 0.16310  0.29340  0.48720  Biso   1.000  C
  C70      1.0000 0.91100  0.42060  0.51000  Biso   1.000  C
  H53      1.0000 0.88790  0.44300  0.45540  Biso   1.000  H
  C71      1.0000 0.01150  0.87590  0.49690  Biso   1.000  C
  C72      1.0000 0.26900  0.22210  0.31450  Biso   1.000  C
  H54      1.0000 0.21530  0.25550  0.27320  Biso   1.000  H
  C73      1.0000 0.97940  0.35550  0.67010  Biso   1.000  C
  H55      1.0000 0.00230  0.33290  0.72460  Biso   1.000  H
  C74      1.0000 0.43840  0.71700  0.74860  Biso   1.000  C
  H56      1.0000 0.42180  0.75270  0.78730  Biso   1.000  H
  C75      1.0000 0.52950  0.65980  0.77700  Biso   1.000  C
  H57      1.0000 0.57470  0.65840  0.83490  Biso   1.000  H
  C76      1.0000 0.49840  0.61630  0.64060  Biso   1.000  C
  H58      1.0000 0.52310  0.58310  0.60360  Biso   1.000  H
  C77      1.0000 0.40560  0.67250  0.60660  Biso   1.000  C
  H59      1.0000 0.36700  0.67740  0.54800  Biso   1.000  H
  C78      1.0000 0.90290  0.90460  0.35280  Biso   1.000  C
  H60      1.0000 0.89810  0.90040  0.29590  Biso   1.000  H
  O18      1.0000 0.73780  0.48899  0.68340  Biso   1.000  O
  N18      1.0000 0.55650  0.60670  0.72690  Biso   1.000  N
  Zn4      1.0000 0.66730  0.50914  0.77465  Biso   1.000  Zn
  N19      1.0000 0.81330  0.55530  0.87070  Biso   1.000  N
  N20      1.0000 0.27860  0.72100  0.14010  Biso   1.000  N
  H61      1.0000 0.26730  0.69210  0.18030  Biso   1.000  H
  O19      1.0000 0.21460  0.72820  0.99450  Biso   1.000  O
  C79      1.0000 0.91920  0.58220  0.01610  Biso   1.000  C
  H62      1.0000 0.92280  0.57600  0.07250  Biso   1.000  H
  O20      1.0000 0.23270  0.22810  0.05592  Biso   1.000  O
  N21      1.0000 0.10680  0.65460  0.06340  Biso   1.000  N
  H63      1.0000 0.10740  0.64090  0.11350  Biso   1.000  H
  N22      1.0000 0.17430  0.22780  0.91090  Biso   1.000  N
  H64      1.0000 0.11900  0.20830  0.86640  Biso   1.000  H
  N23      1.0000 0.06220  0.15730  0.97590  Biso   1.000  N
  H65      1.0000 0.02780  0.13830  0.92520  Biso   1.000  H
  O21      1.0000 0.82600  0.11398  0.26688  Biso   1.000  O
  C80      1.0000 0.52190  0.43010  0.83130  Biso   1.000  C
  C81      1.0000 0.26420  0.27710  0.89610  Biso   1.000  C
  O22      1.0000 0.57380  0.48550  0.88220  Biso   1.000  O
  O23      1.0000 0.54210  0.41930  0.76320  Biso   1.000  O
  C82      1.0000 0.34400  0.32650  0.95700  Biso   1.000  C
  H66      1.0000 0.34300  0.32650  0.01270  Biso   1.000  H
  C83      1.0000 0.43040  0.37660  0.85290  Biso   1.000  C
  C84      1.0000 0.82350  0.55020  0.95210  Biso   1.000  C
  H67      1.0000 0.76160  0.52310  0.96620  Biso   1.000  H
  C85      1.0000 0.42600  0.37640  0.93370  Biso   1.000  C
  H68      1.0000 0.47940  0.41040  0.97450  Biso   1.000  H
  C86      1.0000 0.00870  0.13430  0.03550  Biso   1.000  C
  C87      1.0000 0.35100  0.32660  0.79310  Biso   1.000  C
  H69      1.0000 0.35300  0.32590  0.73760  Biso   1.000  H
  C88      1.0000 0.37170  0.77730  0.16500  Biso   1.000  C
  C89      1.0000 0.20150  0.70430  0.06020  Biso   1.000  C
  C90      1.0000 0.84790  0.05760  0.06330  Biso   1.000  C
  H70      1.0000 0.78310  0.02010  0.04530  Biso   1.000  H
  C91      1.0000 0.81040  0.07150  0.20270  Biso   1.000  C
  C92      1.0000 0.00100  0.63040  0.91290  Biso   1.000  C
  H71      1.0000 0.06050  0.65840  0.89690  Biso   1.000  H
  C93      1.0000 0.04430  0.16470  0.11770  Biso   1.000  C
  H72      1.0000 0.11280  0.19900  0.13720  Biso   1.000  H
  C94      1.0000 0.88000  0.09110  0.14370  Biso   1.000  C
  C95      1.0000 0.16310  0.20660  0.98720  Biso   1.000  C
  C96      1.0000 0.91100  0.07940  0.01000  Biso   1.000  C
  H73      1.0000 0.88790  0.05700  0.95540  Biso   1.000  H
  C97      1.0000 0.01150  0.62410  0.99690  Biso   1.000  C
  C98      1.0000 0.26900  0.27790  0.81450  Biso   1.000  C
  H74      1.0000 0.21530  0.24450  0.77320  Biso   1.000  H
  C99      1.0000 0.97940  0.14450  0.17010  Biso   1.000  C
  H75      1.0000 0.00230  0.16710  0.22460  Biso   1.000  H
  C100     1.0000 0.43840  0.78300  0.24860  Biso   1.000  C
  H76      1.0000 0.42180  0.74730  0.28730  Biso   1.000  H
  C101     1.0000 0.52950  0.84020  0.27700  Biso   1.000  C
  H77      1.0000 0.57470  0.84160  0.33490  Biso   1.000  H
  C102     1.0000 0.49840  0.88370  0.14060  Biso   1.000  C
  H78      1.0000 0.52310  0.91690  0.10360  Biso   1.000  H
  C103     1.0000 0.40560  0.82750  0.10660  Biso   1.000  C
  H79      1.0000 0.36700  0.82260  0.04800  Biso   1.000  H
  C104     1.0000 0.90290  0.59540  0.85280  Biso   1.000  C
  H80      1.0000 0.89810  0.59960  0.79590  Biso   1.000  H
  O24      1.0000 0.73780  0.01101  0.18340  Biso   1.000  O
  N24      1.0000 0.55650  0.89330  0.22690  Biso   1.000  N
