data_image0
_cell_length_a       9.4049
_cell_length_b       12.7739
_cell_length_c       8.5805
_cell_angle_alpha    90
_cell_angle_beta     112.796
_cell_angle_gamma    90

_symmetry_space_group_name_H-M    "P 1"
_symmetry_int_tables_number       1

loop_
  _symmetry_equiv_pos_as_xyz
  'x, y, z'

loop_
  _atom_site_label
  _atom_site_occupancy
  _atom_site_fract_x
  _atom_site_fract_y
  _atom_site_fract_z
  _atom_site_thermal_displace_type
  _atom_site_B_iso_or_equiv
  _atom_site_type_symbol
  Al1      1.0000 0.43610  0.09890  0.40840  Biso   1.000  Al
  Al2      1.0000 0.12630  0.38230  0.18030  Biso   1.000  Al
  P1       1.0000 0.21590  0.95010  0.48180  Biso   1.000  P
  P2       1.0000 0.29410  0.21120  0.04700  Biso   1.000  P
  F1       1.0000 0.48870  0.96350  0.36630  Biso   1.000  F
  O1       1.0000 0.38000  0.14670  0.19410  Biso   1.000  O
  O2       1.0000 0.40580  0.27580  0.00540  Biso   1.000  O
  O3       1.0000 0.16900  0.28010  0.07580  Biso   1.000  O
  O4       1.0000 0.23770  0.03290  0.36920  Biso   1.000  O
  O5       1.0000 0.34660  0.87500  0.53760  Biso   1.000  O
  O6       1.0000 0.06680  0.88800  0.37540  Biso   1.000  O
  O7       1.0000 0.19880  0.99700  0.63790  Biso   1.000  O
  O8       1.0000 0.20350  0.14080  0.89550  Biso   1.000  O
  Al3      1.0000 0.56390  0.59890  0.09160  Biso   1.000  Al
  Al4      1.0000 0.87370  0.88230  0.31970  Biso   1.000  Al
  P3       1.0000 0.78410  0.45010  0.01820  Biso   1.000  P
  P4       1.0000 0.70590  0.71120  0.45300  Biso   1.000  P
  F2       1.0000 0.51130  0.46350  0.13370  Biso   1.000  F
  O9       1.0000 0.62000  0.64670  0.30590  Biso   1.000  O
  O10      1.0000 0.59420  0.77580  0.49460  Biso   1.000  O
  O11      1.0000 0.83100  0.78010  0.42420  Biso   1.000  O
  O12      1.0000 0.76230  0.53290  0.13080  Biso   1.000  O
  O13      1.0000 0.65340  0.37500  0.96240  Biso   1.000  O
  O14      1.0000 0.93320  0.38800  0.12460  Biso   1.000  O
  O15      1.0000 0.80120  0.49700  0.86210  Biso   1.000  O
  O16      1.0000 0.79650  0.64080  0.60450  Biso   1.000  O
  Al5      1.0000 0.56390  0.90110  0.59160  Biso   1.000  Al
  Al6      1.0000 0.87370  0.61770  0.81970  Biso   1.000  Al
  P5       1.0000 0.78410  0.04990  0.51820  Biso   1.000  P
  P6       1.0000 0.70590  0.78880  0.95300  Biso   1.000  P
  F3       1.0000 0.51130  0.03650  0.63370  Biso   1.000  F
  O17      1.0000 0.62000  0.85330  0.80590  Biso   1.000  O
  O18      1.0000 0.59420  0.72420  0.99460  Biso   1.000  O
  O19      1.0000 0.83100  0.71990  0.92420  Biso   1.000  O
  O20      1.0000 0.76230  0.96710  0.63080  Biso   1.000  O
  O21      1.0000 0.65340  0.12500  0.46240  Biso   1.000  O
  O22      1.0000 0.93320  0.11200  0.62460  Biso   1.000  O
  O23      1.0000 0.80120  0.00300  0.36210  Biso   1.000  O
  O24      1.0000 0.79650  0.85920  0.10450  Biso   1.000  O
  Al7      1.0000 0.43610  0.40110  0.90840  Biso   1.000  Al
  Al8      1.0000 0.12630  0.11770  0.68030  Biso   1.000  Al
  P7       1.0000 0.21590  0.54990  0.98180  Biso   1.000  P
  P8       1.0000 0.29410  0.28880  0.54700  Biso   1.000  P
  F4       1.0000 0.48870  0.53650  0.86630  Biso   1.000  F
  O25      1.0000 0.38000  0.35330  0.69410  Biso   1.000  O
  O26      1.0000 0.40580  0.22420  0.50540  Biso   1.000  O
  O27      1.0000 0.16900  0.21990  0.57580  Biso   1.000  O
  O28      1.0000 0.23770  0.46710  0.86920  Biso   1.000  O
  O29      1.0000 0.34660  0.62500  0.03760  Biso   1.000  O
  O30      1.0000 0.06680  0.61200  0.87540  Biso   1.000  O
  O31      1.0000 0.19880  0.50300  0.13790  Biso   1.000  O
  O32      1.0000 0.20350  0.35920  0.39550  Biso   1.000  O
