data_image0
_cell_length_a       10.0583
_cell_length_b       18.085
_cell_length_c       15.6192
_cell_angle_alpha    90
_cell_angle_beta     90
_cell_angle_gamma    90

_symmetry_space_group_name_H-M    "P 1"
_symmetry_int_tables_number       1

loop_
  _symmetry_equiv_pos_as_xyz
  'x, y, z'

loop_
  _atom_site_label
  _atom_site_occupancy
  _atom_site_fract_x
  _atom_site_fract_y
  _atom_site_fract_z
  _atom_site_thermal_displace_type
  _atom_site_B_iso_or_equiv
  _atom_site_type_symbol
  P1       1.0000 0.14720  0.32870  0.31692  Biso   1.000  P
  P2       1.0000 0.38130  0.31518  0.55893  Biso   1.000  P
  P3       1.0000 0.14030  0.57538  0.48647  Biso   1.000  P
  Al1      1.0000 0.18160  0.21658  0.46414  Biso   1.000  Al
  Al2      1.0000 0.33440  0.32547  0.14991  Biso   1.000  Al
  Al3      1.0000 0.15000  0.40296  0.49510  Biso   1.000  Al
  O1       1.0000 0.00020  0.33620  0.29110  Biso   1.000  O
  O2       1.0000 0.17810  0.25120  0.34970  Biso   1.000  O
  O3       1.0000 0.18270  0.38870  0.38280  Biso   1.000  O
  O4       1.0000 0.23380  0.34660  0.23890  Biso   1.000  O
  O5       1.0000 0.36200  0.27240  0.64290  Biso   1.000  O
  O6       1.0000 0.34300  0.26660  0.48290  Biso   1.000  O
  O7       1.0000 0.29240  0.38440  0.56230  Biso   1.000  O
  O8       1.0000 0.52490  0.33980  0.54950  Biso   1.000  O
  O9       1.0000 0.37410  0.09980  0.58050  Biso   1.000  O
  O10      1.0000 0.27930  0.13160  0.43410  Biso   1.000  O
  O11      1.0000 0.20690  0.50030  0.48210  Biso   1.000  O
  O12      1.0000 0.00070  0.42910  0.55090  Biso   1.000  O
  O13      1.0000 0.09330  0.30270  0.49900  Biso   1.000  O
  O14      1.0000 0.18140  0.18720  0.58050  Biso   1.000  O
  H1       1.0000 0.04690  0.29710  0.54840  Biso   1.000  H
  P4       1.0000 0.35280  0.67130  0.81692  Biso   1.000  P
  P5       1.0000 0.11870  0.68482  0.05893  Biso   1.000  P
  P6       1.0000 0.35970  0.42462  0.98647  Biso   1.000  P
  Al4      1.0000 0.31840  0.78342  0.96414  Biso   1.000  Al
  Al5      1.0000 0.16560  0.67453  0.64991  Biso   1.000  Al
  Al6      1.0000 0.35000  0.59704  0.99510  Biso   1.000  Al
  O15      1.0000 0.49980  0.66380  0.79110  Biso   1.000  O
  O16      1.0000 0.32190  0.74880  0.84970  Biso   1.000  O
  O17      1.0000 0.31730  0.61130  0.88280  Biso   1.000  O
  O18      1.0000 0.26620  0.65340  0.73890  Biso   1.000  O
  O19      1.0000 0.13800  0.72760  0.14290  Biso   1.000  O
  O20      1.0000 0.15700  0.73340  0.98290  Biso   1.000  O
  O21      1.0000 0.20760  0.61560  0.06230  Biso   1.000  O
  O22      1.0000 0.97510  0.66020  0.04950  Biso   1.000  O
  O23      1.0000 0.12590  0.90020  0.08050  Biso   1.000  O
  O24      1.0000 0.22070  0.86840  0.93410  Biso   1.000  O
  O25      1.0000 0.29310  0.49970  0.98210  Biso   1.000  O
  O26      1.0000 0.49930  0.57090  0.05090  Biso   1.000  O
  O27      1.0000 0.40670  0.69730  0.99900  Biso   1.000  O
  O28      1.0000 0.31860  0.81280  0.08050  Biso   1.000  O
  H2       1.0000 0.45310  0.70290  0.04840  Biso   1.000  H
  P7       1.0000 0.85280  0.82870  0.18308  Biso   1.000  P
  P8       1.0000 0.61870  0.81518  0.94107  Biso   1.000  P
  P9       1.0000 0.85970  0.07538  0.01353  Biso   1.000  P
  Al7      1.0000 0.81840  0.71658  0.03586  Biso   1.000  Al
  Al8      1.0000 0.66560  0.82547  0.35009  Biso   1.000  Al
  Al9      1.0000 0.85000  0.90296  0.00490  Biso   1.000  Al
  O29      1.0000 0.99980  0.83620  0.20890  Biso   1.000  O
  O30      1.0000 0.82190  0.75120  0.15030  Biso   1.000  O
  O31      1.0000 0.81730  0.88870  0.11720  Biso   1.000  O
  O32      1.0000 0.76620  0.84660  0.26110  Biso   1.000  O
  O33      1.0000 0.63800  0.77240  0.85710  Biso   1.000  O
  O34      1.0000 0.65700  0.76660  0.01710  Biso   1.000  O
  O35      1.0000 0.70760  0.88440  0.93770  Biso   1.000  O
  O36      1.0000 0.47510  0.83980  0.95050  Biso   1.000  O
  O37      1.0000 0.62590  0.59980  0.91950  Biso   1.000  O
  O38      1.0000 0.72070  0.63160  0.06590  Biso   1.000  O
  O39      1.0000 0.79310  0.00030  0.01790  Biso   1.000  O
  O40      1.0000 0.99930  0.92910  0.94910  Biso   1.000  O
  O41      1.0000 0.90670  0.80270  0.00100  Biso   1.000  O
  O42      1.0000 0.81860  0.68720  0.91950  Biso   1.000  O
  H3       1.0000 0.95310  0.79710  0.95160  Biso   1.000  H
  P10      1.0000 0.64720  0.17130  0.68308  Biso   1.000  P
  P11      1.0000 0.88130  0.18482  0.44107  Biso   1.000  P
  P12      1.0000 0.64030  0.92462  0.51353  Biso   1.000  P
  Al10     1.0000 0.68160  0.28342  0.53586  Biso   1.000  Al
  Al11     1.0000 0.83440  0.17453  0.85009  Biso   1.000  Al
  Al12     1.0000 0.65000  0.09704  0.50490  Biso   1.000  Al
  O43      1.0000 0.50020  0.16380  0.70890  Biso   1.000  O
  O44      1.0000 0.67810  0.24880  0.65030  Biso   1.000  O
  O45      1.0000 0.68270  0.11130  0.61720  Biso   1.000  O
  O46      1.0000 0.73380  0.15340  0.76110  Biso   1.000  O
  O47      1.0000 0.86200  0.22760  0.35710  Biso   1.000  O
  O48      1.0000 0.84300  0.23340  0.51710  Biso   1.000  O
  O49      1.0000 0.79240  0.11560  0.43770  Biso   1.000  O
  O50      1.0000 0.02490  0.16020  0.45050  Biso   1.000  O
  O51      1.0000 0.87410  0.40020  0.41950  Biso   1.000  O
  O52      1.0000 0.77930  0.36840  0.56590  Biso   1.000  O
  O53      1.0000 0.70690  0.99970  0.51790  Biso   1.000  O
  O54      1.0000 0.50070  0.07090  0.44910  Biso   1.000  O
  O55      1.0000 0.59330  0.19730  0.50100  Biso   1.000  O
  O56      1.0000 0.68140  0.31280  0.41950  Biso   1.000  O
  H4       1.0000 0.54690  0.20290  0.45160  Biso   1.000  H
  P13      1.0000 0.85280  0.67130  0.68308  Biso   1.000  P
  P14      1.0000 0.61870  0.68482  0.44107  Biso   1.000  P
  P15      1.0000 0.85970  0.42462  0.51353  Biso   1.000  P
  Al13     1.0000 0.81840  0.78342  0.53586  Biso   1.000  Al
  Al14     1.0000 0.66560  0.67453  0.85009  Biso   1.000  Al
  Al15     1.0000 0.85000  0.59704  0.50490  Biso   1.000  Al
  O57      1.0000 0.99980  0.66380  0.70890  Biso   1.000  O
  O58      1.0000 0.82190  0.74880  0.65030  Biso   1.000  O
  O59      1.0000 0.81730  0.61130  0.61720  Biso   1.000  O
  O60      1.0000 0.76620  0.65340  0.76110  Biso   1.000  O
  O61      1.0000 0.63800  0.72760  0.35710  Biso   1.000  O
  O62      1.0000 0.65700  0.73340  0.51710  Biso   1.000  O
  O63      1.0000 0.70760  0.61560  0.43770  Biso   1.000  O
  O64      1.0000 0.47510  0.66020  0.45050  Biso   1.000  O
  O65      1.0000 0.62590  0.90020  0.41950  Biso   1.000  O
  O66      1.0000 0.72070  0.86840  0.56590  Biso   1.000  O
  O67      1.0000 0.79310  0.49970  0.51790  Biso   1.000  O
  O68      1.0000 0.99930  0.57090  0.44910  Biso   1.000  O
  O69      1.0000 0.90670  0.69730  0.50100  Biso   1.000  O
  O70      1.0000 0.81860  0.81280  0.41950  Biso   1.000  O
  H5       1.0000 0.95310  0.70290  0.45160  Biso   1.000  H
  P16      1.0000 0.64720  0.32870  0.18308  Biso   1.000  P
  P17      1.0000 0.88130  0.31518  0.94107  Biso   1.000  P
  P18      1.0000 0.64030  0.57538  0.01353  Biso   1.000  P
  Al16     1.0000 0.68160  0.21658  0.03586  Biso   1.000  Al
  Al17     1.0000 0.83440  0.32547  0.35009  Biso   1.000  Al
  Al18     1.0000 0.65000  0.40296  0.00490  Biso   1.000  Al
  O71      1.0000 0.50020  0.33620  0.20890  Biso   1.000  O
  O72      1.0000 0.67810  0.25120  0.15030  Biso   1.000  O
  O73      1.0000 0.68270  0.38870  0.11720  Biso   1.000  O
  O74      1.0000 0.73380  0.34660  0.26110  Biso   1.000  O
  O75      1.0000 0.86200  0.27240  0.85710  Biso   1.000  O
  O76      1.0000 0.84300  0.26660  0.01710  Biso   1.000  O
  O77      1.0000 0.79240  0.38440  0.93770  Biso   1.000  O
  O78      1.0000 0.02490  0.33980  0.95050  Biso   1.000  O
  O79      1.0000 0.87410  0.09980  0.91950  Biso   1.000  O
  O80      1.0000 0.77930  0.13160  0.06590  Biso   1.000  O
  O81      1.0000 0.70690  0.50030  0.01790  Biso   1.000  O
  O82      1.0000 0.50070  0.42910  0.94910  Biso   1.000  O
  O83      1.0000 0.59330  0.30270  0.00100  Biso   1.000  O
  O84      1.0000 0.68140  0.18720  0.91950  Biso   1.000  O
  H6       1.0000 0.54690  0.29710  0.95160  Biso   1.000  H
  P19      1.0000 0.14720  0.17130  0.81692  Biso   1.000  P
  P20      1.0000 0.38130  0.18482  0.05893  Biso   1.000  P
  P21      1.0000 0.14030  0.92462  0.98647  Biso   1.000  P
  Al19     1.0000 0.18160  0.28342  0.96414  Biso   1.000  Al
  Al20     1.0000 0.33440  0.17453  0.64991  Biso   1.000  Al
  Al21     1.0000 0.15000  0.09704  0.99510  Biso   1.000  Al
  O85      1.0000 0.00020  0.16380  0.79110  Biso   1.000  O
  O86      1.0000 0.17810  0.24880  0.84970  Biso   1.000  O
  O87      1.0000 0.18270  0.11130  0.88280  Biso   1.000  O
  O88      1.0000 0.23380  0.15340  0.73890  Biso   1.000  O
  O89      1.0000 0.36200  0.22760  0.14290  Biso   1.000  O
  O90      1.0000 0.34300  0.23340  0.98290  Biso   1.000  O
  O91      1.0000 0.29240  0.11560  0.06230  Biso   1.000  O
  O92      1.0000 0.52490  0.16020  0.04950  Biso   1.000  O
  O93      1.0000 0.37410  0.40020  0.08050  Biso   1.000  O
  O94      1.0000 0.27930  0.36840  0.93410  Biso   1.000  O
  O95      1.0000 0.20690  0.99970  0.98210  Biso   1.000  O
  O96      1.0000 0.00070  0.07090  0.05090  Biso   1.000  O
  O97      1.0000 0.09330  0.19730  0.99900  Biso   1.000  O
  O98      1.0000 0.18140  0.31280  0.08050  Biso   1.000  O
  H7       1.0000 0.04690  0.20290  0.04840  Biso   1.000  H
  P22      1.0000 0.35280  0.82870  0.31692  Biso   1.000  P
  P23      1.0000 0.11870  0.81518  0.55893  Biso   1.000  P
  P24      1.0000 0.35970  0.07538  0.48647  Biso   1.000  P
  Al22     1.0000 0.31840  0.71658  0.46414  Biso   1.000  Al
  Al23     1.0000 0.16560  0.82547  0.14991  Biso   1.000  Al
  Al24     1.0000 0.35000  0.90296  0.49510  Biso   1.000  Al
  O99      1.0000 0.49980  0.83620  0.29110  Biso   1.000  O
  O100     1.0000 0.32190  0.75120  0.34970  Biso   1.000  O
  O101     1.0000 0.31730  0.88870  0.38280  Biso   1.000  O
  O102     1.0000 0.26620  0.84660  0.23890  Biso   1.000  O
  O103     1.0000 0.13800  0.77240  0.64290  Biso   1.000  O
  O104     1.0000 0.15700  0.76660  0.48290  Biso   1.000  O
  O105     1.0000 0.20760  0.88440  0.56230  Biso   1.000  O
  O106     1.0000 0.97510  0.83980  0.54950  Biso   1.000  O
  O107     1.0000 0.12590  0.59980  0.58050  Biso   1.000  O
  O108     1.0000 0.22070  0.63160  0.43410  Biso   1.000  O
  O109     1.0000 0.29310  0.00030  0.48210  Biso   1.000  O
  O110     1.0000 0.49930  0.92910  0.55090  Biso   1.000  O
  O111     1.0000 0.40670  0.80270  0.49900  Biso   1.000  O
  O112     1.0000 0.31860  0.68720  0.58050  Biso   1.000  O
  H8       1.0000 0.45310  0.79710  0.54840  Biso   1.000  H
