data_image0
_cell_length_a       8.0831
_cell_length_b       16.8841
_cell_length_c       15.4044
_cell_angle_alpha    90
_cell_angle_beta     90.768
_cell_angle_gamma    90

_symmetry_space_group_name_H-M    "P 1"
_symmetry_int_tables_number       1

loop_
  _symmetry_equiv_pos_as_xyz
  'x, y, z'

loop_
  _atom_site_label
  _atom_site_occupancy
  _atom_site_fract_x
  _atom_site_fract_y
  _atom_site_fract_z
  _atom_site_thermal_displace_type
  _atom_site_B_iso_or_equiv
  _atom_site_type_symbol
  Zn1      1.0000 0.65162  0.14919  0.24172  Biso   1.000  Zn
  Zn2      1.0000 0.85398  0.04055  0.60781  Biso   1.000  Zn
  Zn3      1.0000 0.93329  0.05407  0.88355  Biso   1.000  Zn
  P1       1.0000 0.76771  0.05920  0.06915  Biso   1.000  P
  H1       1.0000 0.61800  0.04290  0.05130  Biso   1.000  H
  P2       1.0000 0.79757  0.05698  0.40541  Biso   1.000  P
  H2       1.0000 0.68300  0.98530  0.37380  Biso   1.000  H
  P3       1.0000 0.64733  0.97606  0.77010  Biso   1.000  P
  H3       1.0000 0.51720  0.02520  0.80980  Biso   1.000  H
  P4       1.0000 0.04817  0.15919  0.73151  Biso   1.000  P
  H4       1.0000 0.18770  0.10750  0.73970  Biso   1.000  H
  O1       1.0000 0.78010  0.11990  0.14100  Biso   1.000  O
  O2       1.0000 0.57040  0.89340  0.77260  Biso   1.000  O
  O3       1.0000 0.13070  0.23820  0.72290  Biso   1.000  O
  O4       1.0000 0.74890  0.12860  0.35220  Biso   1.000  O
  O5       1.0000 0.74950  0.06940  0.49890  Biso   1.000  O
  O6       1.0000 0.94020  0.14220  0.65220  Biso   1.000  O
  O7       1.0000 0.97860  0.03810  0.39530  Biso   1.000  O
  O8       1.0000 0.67430  0.00550  0.68060  Biso   1.000  O
  O9       1.0000 0.79880  0.97510  0.82810  Biso   1.000  O
  O10      1.0000 0.95380  0.15020  0.81490  Biso   1.000  O
  O11      1.0000 0.84390  0.98040  0.08890  Biso   1.000  O
  O12      1.0000 0.83640  0.09760  0.98820  Biso   1.000  O
  Zn4      1.0000 0.84838  0.64919  0.25828  Biso   1.000  Zn
  Zn5      1.0000 0.64602  0.54055  0.89219  Biso   1.000  Zn
  Zn6      1.0000 0.56671  0.55407  0.61645  Biso   1.000  Zn
  P5       1.0000 0.73229  0.55920  0.43085  Biso   1.000  P
  H5       1.0000 0.88200  0.54290  0.44870  Biso   1.000  H
  P6       1.0000 0.70243  0.55698  0.09459  Biso   1.000  P
  H6       1.0000 0.81700  0.48530  0.12620  Biso   1.000  H
  P7       1.0000 0.85267  0.47606  0.72990  Biso   1.000  P
  H7       1.0000 0.98280  0.52520  0.69020  Biso   1.000  H
  P8       1.0000 0.45183  0.65919  0.76849  Biso   1.000  P
  H8       1.0000 0.31230  0.60750  0.76030  Biso   1.000  H
  O13      1.0000 0.71990  0.61990  0.35900  Biso   1.000  O
  O14      1.0000 0.92960  0.39340  0.72740  Biso   1.000  O
  O15      1.0000 0.36930  0.73820  0.77710  Biso   1.000  O
  O16      1.0000 0.75110  0.62860  0.14780  Biso   1.000  O
  O17      1.0000 0.75050  0.56940  0.00110  Biso   1.000  O
  O18      1.0000 0.55980  0.64220  0.84780  Biso   1.000  O
  O19      1.0000 0.52140  0.53810  0.10470  Biso   1.000  O
  O20      1.0000 0.82570  0.50550  0.81940  Biso   1.000  O
  O21      1.0000 0.70120  0.47510  0.67190  Biso   1.000  O
  O22      1.0000 0.54620  0.65020  0.68510  Biso   1.000  O
  O23      1.0000 0.65610  0.48040  0.41110  Biso   1.000  O
  O24      1.0000 0.66360  0.59760  0.51180  Biso   1.000  O
  Zn7      1.0000 0.34838  0.85081  0.75828  Biso   1.000  Zn
  Zn8      1.0000 0.14602  0.95945  0.39219  Biso   1.000  Zn
  Zn9      1.0000 0.06671  0.94593  0.11645  Biso   1.000  Zn
  P9       1.0000 0.23229  0.94080  0.93085  Biso   1.000  P
  H9       1.0000 0.38200  0.95710  0.94870  Biso   1.000  H
  P10      1.0000 0.20243  0.94302  0.59459  Biso   1.000  P
  H10      1.0000 0.31700  0.01470  0.62620  Biso   1.000  H
  P11      1.0000 0.35267  0.02394  0.22990  Biso   1.000  P
  H11      1.0000 0.48280  0.97480  0.19020  Biso   1.000  H
  P12      1.0000 0.95183  0.84081  0.26849  Biso   1.000  P
  H12      1.0000 0.81230  0.89250  0.26030  Biso   1.000  H
  O25      1.0000 0.21990  0.88010  0.85900  Biso   1.000  O
  O26      1.0000 0.42960  0.10660  0.22740  Biso   1.000  O
  O27      1.0000 0.86930  0.76180  0.27710  Biso   1.000  O
  O28      1.0000 0.25110  0.87140  0.64780  Biso   1.000  O
  O29      1.0000 0.25050  0.93060  0.50110  Biso   1.000  O
  O30      1.0000 0.05980  0.85780  0.34780  Biso   1.000  O
  O31      1.0000 0.02140  0.96190  0.60470  Biso   1.000  O
  O32      1.0000 0.32570  0.99450  0.31940  Biso   1.000  O
  O33      1.0000 0.20120  0.02490  0.17190  Biso   1.000  O
  O34      1.0000 0.04620  0.84980  0.18510  Biso   1.000  O
  O35      1.0000 0.15610  0.01960  0.91110  Biso   1.000  O
  O36      1.0000 0.16360  0.90240  0.01180  Biso   1.000  O
  Zn10     1.0000 0.15162  0.35081  0.74172  Biso   1.000  Zn
  Zn11     1.0000 0.35398  0.45945  0.10781  Biso   1.000  Zn
  Zn12     1.0000 0.43329  0.44593  0.38355  Biso   1.000  Zn
  P13      1.0000 0.26771  0.44080  0.56915  Biso   1.000  P
  H13      1.0000 0.11800  0.45710  0.55130  Biso   1.000  H
  P14      1.0000 0.29757  0.44302  0.90541  Biso   1.000  P
  H14      1.0000 0.18300  0.51470  0.87380  Biso   1.000  H
  P15      1.0000 0.14733  0.52394  0.27010  Biso   1.000  P
  H15      1.0000 0.01720  0.47480  0.30980  Biso   1.000  H
  P16      1.0000 0.54817  0.34081  0.23151  Biso   1.000  P
  H16      1.0000 0.68770  0.39250  0.23970  Biso   1.000  H
  O37      1.0000 0.28010  0.38010  0.64100  Biso   1.000  O
  O38      1.0000 0.07040  0.60660  0.27260  Biso   1.000  O
  O39      1.0000 0.63070  0.26180  0.22290  Biso   1.000  O
  O40      1.0000 0.24890  0.37140  0.85220  Biso   1.000  O
  O41      1.0000 0.24950  0.43060  0.99890  Biso   1.000  O
  O42      1.0000 0.44020  0.35780  0.15220  Biso   1.000  O
  O43      1.0000 0.47860  0.46190  0.89530  Biso   1.000  O
  O44      1.0000 0.17430  0.49450  0.18060  Biso   1.000  O
  O45      1.0000 0.29880  0.52490  0.32810  Biso   1.000  O
  O46      1.0000 0.45380  0.34980  0.31490  Biso   1.000  O
  O47      1.0000 0.34390  0.51960  0.58890  Biso   1.000  O
  O48      1.0000 0.33640  0.40240  0.48820  Biso   1.000  O
