data_image0
_cell_length_a       18.777
_cell_length_b       8.7423
_cell_length_c       29.733
_cell_angle_alpha    90
_cell_angle_beta     90.225
_cell_angle_gamma    90

_symmetry_space_group_name_H-M    "P 1"
_symmetry_int_tables_number       1

loop_
  _symmetry_equiv_pos_as_xyz
  'x, y, z'

loop_
  _atom_site_label
  _atom_site_occupancy
  _atom_site_fract_x
  _atom_site_fract_y
  _atom_site_fract_z
  _atom_site_thermal_displace_type
  _atom_site_B_iso_or_equiv
  _atom_site_type_symbol
  Zn1      1.0000 0.18267  0.72069  0.24934  Biso   1.000  Zn
  O1       1.0000 0.10890  0.41880  0.23759  Biso   1.000  O
  C1       1.0000 0.12770  0.47440  0.20210  Biso   1.000  C
  O2       1.0000 0.14720  0.61310  0.19594  Biso   1.000  O
  C2       1.0000 0.13060  0.37850  0.15920  Biso   1.000  C
  H1       1.0000 0.10610  0.43290  0.13530  Biso   1.000  H
  H2       1.0000 0.17990  0.36620  0.15030  Biso   1.000  H
  O3       1.0000 0.09910  0.23120  0.16432  Biso   1.000  O
  C3       1.0000 0.02590  0.22590  0.16480  Biso   1.000  C
  O4       1.0000 0.28870  0.67040  0.23904  Biso   1.000  O
  C4       1.0000 0.98120  0.35110  0.16150  Biso   1.000  C
  H3       1.0000 0.00020  0.44930  0.16100  Biso   1.000  H
  O5       1.0000 0.28500  0.43080  0.26437  Biso   1.000  O
  C5       1.0000 0.90760  0.33100  0.15900  Biso   1.000  C
  O6       1.0000 0.41920  0.38220  0.24594  Biso   1.000  O
  C6       1.0000 0.87890  0.18400  0.16090  Biso   1.000  C
  O7       1.0000 0.67370  0.78090  0.92648  Biso   1.000  O
  C7       1.0000 0.92340  0.05690  0.16750  Biso   1.000  C
  O8       1.0000 0.68260  0.63590  0.84646  Biso   1.000  O
  C8       1.0000 0.99700  0.07900  0.16880  Biso   1.000  C
  H4       1.0000 0.02710  0.99540  0.17230  Biso   1.000  H
  O9       1.0000 0.66590  0.85670  0.80962  Biso   1.000  O
  C9       1.0000 0.86130  0.46880  0.15320  Biso   1.000  C
  H5       1.0000 0.89060  0.55710  0.14810  Biso   1.000  H
  H6       1.0000 0.83350  0.48380  0.17980  Biso   1.000  H
  H7       1.0000 0.83020  0.45380  0.12790  Biso   1.000  H
  C10      1.0000 0.89500  0.89520  0.17200  Biso   1.000  C
  H8       1.0000 0.88010  0.85850  0.14300  Biso   1.000  H
  H9       1.0000 0.85510  0.89470  0.19210  Biso   1.000  H
  H10      1.0000 0.93170  0.82980  0.18370  Biso   1.000  H
  C11      1.0000 0.80130  0.15870  0.15020  Biso   1.000  C
  C12      1.0000 0.74500  0.20470  0.17750  Biso   1.000  C
  H11      1.0000 0.75490  0.24980  0.20520  Biso   1.000  H
  C13      1.0000 0.67510  0.18490  0.16440  Biso   1.000  C
  C14      1.0000 0.66070  0.11250  0.12280  Biso   1.000  C
  H12      1.0000 0.61380  0.09590  0.11400  Biso   1.000  H
  C15      1.0000 0.71640  0.06560  0.09490  Biso   1.000  C
  C16      1.0000 0.78630  0.08810  0.10890  Biso   1.000  C
  H13      1.0000 0.82360  0.05600  0.09070  Biso   1.000  H
  C17      1.0000 0.61250  0.23890  0.19090  Biso   1.000  C
  C18      1.0000 0.59820  0.39530  0.19340  Biso   1.000  C
  C19      1.0000 0.53310  0.44700  0.21240  Biso   1.000  C
  H14      1.0000 0.52290  0.55100  0.21390  Biso   1.000  H
  C20      1.0000 0.48560  0.34140  0.22860  Biso   1.000  C
  C21      1.0000 0.50050  0.18590  0.22830  Biso   1.000  C
  H15      1.0000 0.46830  0.11660  0.24040  Biso   1.000  H
  C22      1.0000 0.56440  0.13410  0.20960  Biso   1.000  C
  C23      1.0000 0.57810  0.96220  0.20920  Biso   1.000  C
  H16      1.0000 0.55880  0.91860  0.18220  Biso   1.000  H
  H17      1.0000 0.55570  0.91620  0.23480  Biso   1.000  H
  H18      1.0000 0.62850  0.94360  0.21050  Biso   1.000  H
  C24      1.0000 0.64870  0.51340  0.17500  Biso   1.000  C
  H19      1.0000 0.65980  0.48930  0.14430  Biso   1.000  H
  H20      1.0000 0.69170  0.51370  0.19260  Biso   1.000  H
  H21      1.0000 0.62680  0.61260  0.17640  Biso   1.000  H
  C25      1.0000 0.39510  0.53190  0.23570  Biso   1.000  C
  H22      1.0000 0.40200  0.55300  0.20400  Biso   1.000  H
  H23      1.0000 0.42200  0.60640  0.25290  Biso   1.000  H
  C26      1.0000 0.31630  0.54350  0.24730  Biso   1.000  C
  C27      1.0000 0.70280  0.99210  0.04990  Biso   1.000  C
  C28      1.0000 0.70930  0.83190  0.04480  Biso   1.000  C
  C29      1.0000 0.69900  0.76620  0.00300  Biso   1.000  C
  H24      1.0000 0.70360  0.66100  0.99950  Biso   1.000  H
  C30      1.0000 0.68160  0.85730  0.96590  Biso   1.000  C
  C31      1.0000 0.67390  0.01450  0.97090  Biso   1.000  C
  H25      1.0000 0.66180  0.07480  0.94630  Biso   1.000  H
  C32      1.0000 0.68440  0.08200  0.01330  Biso   1.000  C
  C33      1.0000 0.67850  0.25450  0.01670  Biso   1.000  C
  H26      1.0000 0.66630  0.29610  0.98780  Biso   1.000  H
  H27      1.0000 0.72330  0.29610  0.02650  Biso   1.000  H
  H28      1.0000 0.64220  0.28060  0.03800  Biso   1.000  H
  C34      1.0000 0.73050  0.73440  0.08470  Biso   1.000  C
  H29      1.0000 0.72860  0.62830  0.07640  Biso   1.000  H
  H30      1.0000 0.69820  0.75280  0.10910  Biso   1.000  H
  H31      1.0000 0.77800  0.76030  0.09400  Biso   1.000  H
  C35      1.0000 0.66340  0.87290  0.88690  Biso   1.000  C
  H32      1.0000 0.69840  0.95450  0.88630  Biso   1.000  H
  H33      1.0000 0.61640  0.91880  0.88740  Biso   1.000  H
  C36      1.0000 0.67110  0.77420  0.84520  Biso   1.000  C
  Zn2      1.0000 0.31733  0.22069  0.25066  Biso   1.000  Zn
  O10      1.0000 0.39110  0.91880  0.26241  Biso   1.000  O
  C37      1.0000 0.37230  0.97440  0.29790  Biso   1.000  C
  O11      1.0000 0.35280  0.11310  0.30406  Biso   1.000  O
  C38      1.0000 0.36940  0.87850  0.34080  Biso   1.000  C
  H34      1.0000 0.39390  0.93290  0.36470  Biso   1.000  H
  H35      1.0000 0.32010  0.86620  0.34970  Biso   1.000  H
  O12      1.0000 0.40090  0.73120  0.33568  Biso   1.000  O
  C39      1.0000 0.47410  0.72590  0.33520  Biso   1.000  C
  O13      1.0000 0.21130  0.17040  0.26096  Biso   1.000  O
  C40      1.0000 0.51880  0.85110  0.33850  Biso   1.000  C
  H36      1.0000 0.49980  0.94930  0.33900  Biso   1.000  H
  O14      1.0000 0.21500  0.93080  0.23563  Biso   1.000  O
  C41      1.0000 0.59240  0.83100  0.34100  Biso   1.000  C
  O15      1.0000 0.08080  0.88220  0.25406  Biso   1.000  O
  C42      1.0000 0.62110  0.68400  0.33910  Biso   1.000  C
  O16      1.0000 0.82630  0.28090  0.57352  Biso   1.000  O
  C43      1.0000 0.57660  0.55690  0.33250  Biso   1.000  C
  O17      1.0000 0.81740  0.13590  0.65354  Biso   1.000  O
  C44      1.0000 0.50300  0.57900  0.33120  Biso   1.000  C
  H37      1.0000 0.47290  0.49540  0.32770  Biso   1.000  H
  O18      1.0000 0.83410  0.35670  0.69038  Biso   1.000  O
  C45      1.0000 0.63870  0.96880  0.34680  Biso   1.000  C
  H38      1.0000 0.60940  0.05710  0.35190  Biso   1.000  H
  H39      1.0000 0.66650  0.98380  0.32020  Biso   1.000  H
  H40      1.0000 0.66980  0.95380  0.37210  Biso   1.000  H
  C46      1.0000 0.60500  0.39520  0.32800  Biso   1.000  C
  H41      1.0000 0.61990  0.35850  0.35700  Biso   1.000  H
  H42      1.0000 0.64490  0.39470  0.30790  Biso   1.000  H
  H43      1.0000 0.56830  0.32980  0.31630  Biso   1.000  H
  C47      1.0000 0.69870  0.65870  0.34980  Biso   1.000  C
  C48      1.0000 0.75500  0.70470  0.32250  Biso   1.000  C
  H44      1.0000 0.74510  0.74980  0.29480  Biso   1.000  H
  C49      1.0000 0.82490  0.68490  0.33560  Biso   1.000  C
  C50      1.0000 0.83930  0.61250  0.37720  Biso   1.000  C
  H45      1.0000 0.88620  0.59590  0.38600  Biso   1.000  H
  C51      1.0000 0.78360  0.56560  0.40510  Biso   1.000  C
  C52      1.0000 0.71370  0.58810  0.39110  Biso   1.000  C
  H46      1.0000 0.67640  0.55600  0.40930  Biso   1.000  H
  C53      1.0000 0.88750  0.73890  0.30910  Biso   1.000  C
  C54      1.0000 0.90180  0.89530  0.30660  Biso   1.000  C
  C55      1.0000 0.96690  0.94700  0.28760  Biso   1.000  C
  H47      1.0000 0.97710  0.05100  0.28610  Biso   1.000  H
  C56      1.0000 0.01440  0.84140  0.27140  Biso   1.000  C
  C57      1.0000 0.99950  0.68590  0.27170  Biso   1.000  C
  H48      1.0000 0.03170  0.61660  0.25960  Biso   1.000  H
  C58      1.0000 0.93560  0.63410  0.29040  Biso   1.000  C
  C59      1.0000 0.92190  0.46220  0.29080  Biso   1.000  C
  H49      1.0000 0.94120  0.41860  0.31780  Biso   1.000  H
  H50      1.0000 0.94430  0.41620  0.26520  Biso   1.000  H
  H51      1.0000 0.87150  0.44360  0.28950  Biso   1.000  H
  C60      1.0000 0.85130  0.01340  0.32500  Biso   1.000  C
  H52      1.0000 0.84020  0.98930  0.35570  Biso   1.000  H
  H53      1.0000 0.80830  0.01370  0.30740  Biso   1.000  H
  H54      1.0000 0.87320  0.11260  0.32360  Biso   1.000  H
  C61      1.0000 0.10490  0.03190  0.26430  Biso   1.000  C
  H55      1.0000 0.09800  0.05300  0.29600  Biso   1.000  H
  H56      1.0000 0.07800  0.10640  0.24710  Biso   1.000  H
  C62      1.0000 0.18370  0.04350  0.25270  Biso   1.000  C
  C63      1.0000 0.79720  0.49210  0.45010  Biso   1.000  C
  C64      1.0000 0.79070  0.33190  0.45520  Biso   1.000  C
  C65      1.0000 0.80100  0.26620  0.49700  Biso   1.000  C
  H57      1.0000 0.79640  0.16100  0.50050  Biso   1.000  H
  C66      1.0000 0.81840  0.35730  0.53410  Biso   1.000  C
  C67      1.0000 0.82610  0.51450  0.52910  Biso   1.000  C
  H58      1.0000 0.83820  0.57480  0.55370  Biso   1.000  H
  C68      1.0000 0.81560  0.58200  0.48670  Biso   1.000  C
  C69      1.0000 0.82150  0.75450  0.48330  Biso   1.000  C
  H59      1.0000 0.83370  0.79610  0.51220  Biso   1.000  H
  H60      1.0000 0.77670  0.79610  0.47350  Biso   1.000  H
  H61      1.0000 0.85780  0.78060  0.46200  Biso   1.000  H
  C70      1.0000 0.76950  0.23440  0.41530  Biso   1.000  C
  H62      1.0000 0.77140  0.12830  0.42360  Biso   1.000  H
  H63      1.0000 0.80180  0.25280  0.39090  Biso   1.000  H
  H64      1.0000 0.72200  0.26030  0.40600  Biso   1.000  H
  C71      1.0000 0.83660  0.37290  0.61310  Biso   1.000  C
  H65      1.0000 0.80160  0.45450  0.61370  Biso   1.000  H
  H66      1.0000 0.88360  0.41880  0.61260  Biso   1.000  H
  C72      1.0000 0.82890  0.27420  0.65480  Biso   1.000  C
  Zn3      1.0000 0.81733  0.27931  0.75066  Biso   1.000  Zn
  O19      1.0000 0.89110  0.58120  0.76241  Biso   1.000  O
  C73      1.0000 0.87230  0.52560  0.79790  Biso   1.000  C
  O20      1.0000 0.85280  0.38690  0.80406  Biso   1.000  O
  C74      1.0000 0.86940  0.62150  0.84080  Biso   1.000  C
  H67      1.0000 0.89390  0.56710  0.86470  Biso   1.000  H
  H68      1.0000 0.82010  0.63380  0.84970  Biso   1.000  H
  O21      1.0000 0.90090  0.76880  0.83568  Biso   1.000  O
  C75      1.0000 0.97410  0.77410  0.83520  Biso   1.000  C
  O22      1.0000 0.71130  0.32960  0.76096  Biso   1.000  O
  C76      1.0000 0.01880  0.64890  0.83850  Biso   1.000  C
  H69      1.0000 0.99980  0.55070  0.83900  Biso   1.000  H
  O23      1.0000 0.71500  0.56920  0.73563  Biso   1.000  O
  C77      1.0000 0.09240  0.66900  0.84100  Biso   1.000  C
  O24      1.0000 0.58080  0.61780  0.75406  Biso   1.000  O
  C78      1.0000 0.12110  0.81600  0.83910  Biso   1.000  C
  O25      1.0000 0.32630  0.21910  0.07352  Biso   1.000  O
  C79      1.0000 0.07660  0.94310  0.83250  Biso   1.000  C
  O26      1.0000 0.31740  0.36410  0.15354  Biso   1.000  O
  C80      1.0000 0.00300  0.92100  0.83120  Biso   1.000  C
  H70      1.0000 0.97290  0.00460  0.82770  Biso   1.000  H
  O27      1.0000 0.33410  0.14330  0.19038  Biso   1.000  O
  C81      1.0000 0.13870  0.53120  0.84680  Biso   1.000  C
  H71      1.0000 0.10940  0.44290  0.85190  Biso   1.000  H
  H72      1.0000 0.16650  0.51620  0.82020  Biso   1.000  H
  H73      1.0000 0.16980  0.54620  0.87210  Biso   1.000  H
  C82      1.0000 0.10500  0.10480  0.82800  Biso   1.000  C
  H74      1.0000 0.11990  0.14150  0.85700  Biso   1.000  H
  H75      1.0000 0.14490  0.10530  0.80790  Biso   1.000  H
  H76      1.0000 0.06830  0.17020  0.81630  Biso   1.000  H
  C83      1.0000 0.19870  0.84130  0.84980  Biso   1.000  C
  C84      1.0000 0.25500  0.79530  0.82250  Biso   1.000  C
  H77      1.0000 0.24510  0.75020  0.79480  Biso   1.000  H
  C85      1.0000 0.32490  0.81510  0.83560  Biso   1.000  C
  C86      1.0000 0.33930  0.88750  0.87720  Biso   1.000  C
  H78      1.0000 0.38620  0.90410  0.88600  Biso   1.000  H
  C87      1.0000 0.28360  0.93440  0.90510  Biso   1.000  C
  C88      1.0000 0.21370  0.91190  0.89110  Biso   1.000  C
  H79      1.0000 0.17640  0.94400  0.90930  Biso   1.000  H
  C89      1.0000 0.38750  0.76110  0.80910  Biso   1.000  C
  C90      1.0000 0.40180  0.60470  0.80660  Biso   1.000  C
  C91      1.0000 0.46690  0.55300  0.78760  Biso   1.000  C
  H80      1.0000 0.47710  0.44900  0.78610  Biso   1.000  H
  C92      1.0000 0.51440  0.65860  0.77140  Biso   1.000  C
  C93      1.0000 0.49950  0.81410  0.77170  Biso   1.000  C
  H81      1.0000 0.53170  0.88340  0.75960  Biso   1.000  H
  C94      1.0000 0.43560  0.86590  0.79040  Biso   1.000  C
  C95      1.0000 0.42190  0.03780  0.79080  Biso   1.000  C
  H82      1.0000 0.44120  0.08140  0.81780  Biso   1.000  H
  H83      1.0000 0.44430  0.08380  0.76520  Biso   1.000  H
  H84      1.0000 0.37150  0.05640  0.78950  Biso   1.000  H
  C96      1.0000 0.35130  0.48660  0.82500  Biso   1.000  C
  H85      1.0000 0.34020  0.51070  0.85570  Biso   1.000  H
  H86      1.0000 0.30830  0.48630  0.80740  Biso   1.000  H
  H87      1.0000 0.37320  0.38740  0.82360  Biso   1.000  H
  C97      1.0000 0.60490  0.46810  0.76430  Biso   1.000  C
  H88      1.0000 0.59800  0.44700  0.79600  Biso   1.000  H
  H89      1.0000 0.57800  0.39360  0.74710  Biso   1.000  H
  C98      1.0000 0.68370  0.45650  0.75270  Biso   1.000  C
  C99      1.0000 0.29720  0.00790  0.95010  Biso   1.000  C
  C100     1.0000 0.29070  0.16810  0.95520  Biso   1.000  C
  C101     1.0000 0.30100  0.23380  0.99700  Biso   1.000  C
  H90      1.0000 0.29640  0.33900  0.00050  Biso   1.000  H
  C102     1.0000 0.31840  0.14270  0.03410  Biso   1.000  C
  C103     1.0000 0.32610  0.98550  0.02910  Biso   1.000  C
  H91      1.0000 0.33820  0.92520  0.05370  Biso   1.000  H
  C104     1.0000 0.31560  0.91800  0.98670  Biso   1.000  C
  C105     1.0000 0.32150  0.74550  0.98330  Biso   1.000  C
  H92      1.0000 0.33370  0.70390  0.01220  Biso   1.000  H
  H93      1.0000 0.27670  0.70390  0.97350  Biso   1.000  H
  H94      1.0000 0.35780  0.71940  0.96200  Biso   1.000  H
  C106     1.0000 0.26950  0.26560  0.91530  Biso   1.000  C
  H95      1.0000 0.27140  0.37170  0.92360  Biso   1.000  H
  H96      1.0000 0.30180  0.24720  0.89090  Biso   1.000  H
  H97      1.0000 0.22200  0.23970  0.90600  Biso   1.000  H
  C107     1.0000 0.33660  0.12710  0.11310  Biso   1.000  C
  H98      1.0000 0.30160  0.04550  0.11370  Biso   1.000  H
  H99      1.0000 0.38360  0.08120  0.11260  Biso   1.000  H
  C108     1.0000 0.32890  0.22580  0.15480  Biso   1.000  C
  Zn4      1.0000 0.68267  0.77931  0.74934  Biso   1.000  Zn
  O28      1.0000 0.60890  0.08120  0.73759  Biso   1.000  O
  C109     1.0000 0.62770  0.02560  0.70210  Biso   1.000  C
  O29      1.0000 0.64720  0.88690  0.69594  Biso   1.000  O
  C110     1.0000 0.63060  0.12150  0.65920  Biso   1.000  C
  H100     1.0000 0.60610  0.06710  0.63530  Biso   1.000  H
  H101     1.0000 0.67990  0.13380  0.65030  Biso   1.000  H
  O30      1.0000 0.59910  0.26880  0.66432  Biso   1.000  O
  C111     1.0000 0.52590  0.27410  0.66480  Biso   1.000  C
  O31      1.0000 0.78870  0.82960  0.73904  Biso   1.000  O
  C112     1.0000 0.48120  0.14890  0.66150  Biso   1.000  C
  H102     1.0000 0.50020  0.05070  0.66100  Biso   1.000  H
  O32      1.0000 0.78500  0.06920  0.76437  Biso   1.000  O
  C113     1.0000 0.40760  0.16900  0.65900  Biso   1.000  C
  O33      1.0000 0.91920  0.11780  0.74594  Biso   1.000  O
  C114     1.0000 0.37890  0.31600  0.66090  Biso   1.000  C
  O34      1.0000 0.17370  0.71910  0.42648  Biso   1.000  O
  C115     1.0000 0.42340  0.44310  0.66750  Biso   1.000  C
  O35      1.0000 0.18260  0.86410  0.34646  Biso   1.000  O
  C116     1.0000 0.49700  0.42100  0.66880  Biso   1.000  C
  H103     1.0000 0.52710  0.50460  0.67230  Biso   1.000  H
  O36      1.0000 0.16590  0.64330  0.30962  Biso   1.000  O
  C117     1.0000 0.36130  0.03120  0.65320  Biso   1.000  C
  H104     1.0000 0.39060  0.94290  0.64810  Biso   1.000  H
  H105     1.0000 0.33350  0.01620  0.67980  Biso   1.000  H
  H106     1.0000 0.33020  0.04620  0.62790  Biso   1.000  H
  C118     1.0000 0.39500  0.60480  0.67200  Biso   1.000  C
  H107     1.0000 0.38010  0.64150  0.64300  Biso   1.000  H
  H108     1.0000 0.35510  0.60530  0.69210  Biso   1.000  H
  H109     1.0000 0.43170  0.67020  0.68370  Biso   1.000  H
  C119     1.0000 0.30130  0.34130  0.65020  Biso   1.000  C
  C120     1.0000 0.24500  0.29530  0.67750  Biso   1.000  C
  H110     1.0000 0.25490  0.25020  0.70520  Biso   1.000  H
  C121     1.0000 0.17510  0.31510  0.66440  Biso   1.000  C
  C122     1.0000 0.16070  0.38750  0.62280  Biso   1.000  C
  H111     1.0000 0.11380  0.40410  0.61400  Biso   1.000  H
  C123     1.0000 0.21640  0.43440  0.59490  Biso   1.000  C
  C124     1.0000 0.28630  0.41190  0.60890  Biso   1.000  C
  H112     1.0000 0.32360  0.44400  0.59070  Biso   1.000  H
  C125     1.0000 0.11250  0.26110  0.69090  Biso   1.000  C
  C126     1.0000 0.09820  0.10470  0.69340  Biso   1.000  C
  C127     1.0000 0.03310  0.05300  0.71240  Biso   1.000  C
  H113     1.0000 0.02290  0.94900  0.71390  Biso   1.000  H
  C128     1.0000 0.98560  0.15860  0.72860  Biso   1.000  C
  C129     1.0000 0.00050  0.31410  0.72830  Biso   1.000  C
  H114     1.0000 0.96830  0.38340  0.74040  Biso   1.000  H
  C130     1.0000 0.06440  0.36590  0.70960  Biso   1.000  C
  C131     1.0000 0.07810  0.53780  0.70920  Biso   1.000  C
  H115     1.0000 0.05880  0.58140  0.68220  Biso   1.000  H
  H116     1.0000 0.05570  0.58380  0.73480  Biso   1.000  H
  H117     1.0000 0.12850  0.55640  0.71050  Biso   1.000  H
  C132     1.0000 0.14870  0.98660  0.67500  Biso   1.000  C
  H118     1.0000 0.15980  0.01070  0.64430  Biso   1.000  H
  H119     1.0000 0.19170  0.98630  0.69260  Biso   1.000  H
  H120     1.0000 0.12680  0.88740  0.67640  Biso   1.000  H
  C133     1.0000 0.89510  0.96810  0.73570  Biso   1.000  C
  H121     1.0000 0.90200  0.94700  0.70400  Biso   1.000  H
  H122     1.0000 0.92200  0.89360  0.75290  Biso   1.000  H
  C134     1.0000 0.81630  0.95650  0.74730  Biso   1.000  C
  C135     1.0000 0.20280  0.50790  0.54990  Biso   1.000  C
  C136     1.0000 0.20930  0.66810  0.54480  Biso   1.000  C
  C137     1.0000 0.19900  0.73380  0.50300  Biso   1.000  C
  H123     1.0000 0.20360  0.83900  0.49950  Biso   1.000  H
  C138     1.0000 0.18160  0.64270  0.46590  Biso   1.000  C
  C139     1.0000 0.17390  0.48550  0.47090  Biso   1.000  C
  H124     1.0000 0.16180  0.42520  0.44630  Biso   1.000  H
  C140     1.0000 0.18440  0.41800  0.51330  Biso   1.000  C
  C141     1.0000 0.17850  0.24550  0.51670  Biso   1.000  C
  H125     1.0000 0.16630  0.20390  0.48780  Biso   1.000  H
  H126     1.0000 0.22330  0.20390  0.52650  Biso   1.000  H
  H127     1.0000 0.14220  0.21940  0.53800  Biso   1.000  H
  C142     1.0000 0.23050  0.76560  0.58470  Biso   1.000  C
  H128     1.0000 0.22860  0.87170  0.57640  Biso   1.000  H
  H129     1.0000 0.19820  0.74720  0.60910  Biso   1.000  H
  H130     1.0000 0.27800  0.73970  0.59400  Biso   1.000  H
  C143     1.0000 0.16340  0.62710  0.38690  Biso   1.000  C
  H131     1.0000 0.19840  0.54550  0.38630  Biso   1.000  H
  H132     1.0000 0.11640  0.58120  0.38740  Biso   1.000  H
  C144     1.0000 0.17110  0.72580  0.34520  Biso   1.000  C
