data_TAYNEN_clean
_audit_creation_date              2014-07-02
_audit_creation_method            'Materials Studio'
_symmetry_space_group_name_H-M    'P1'
_symmetry_Int_Tables_number       1
_symmetry_cell_setting            triclinic
loop_
_symmetry_equiv_pos_as_xyz
  x,y,z
_cell_length_a                    11.9669
_cell_length_b                    11.9669
_cell_length_c                    19.0262
_cell_angle_alpha                 102.4480
_cell_angle_beta                  102.4480
_cell_angle_gamma                 91.7087
loop_
_atom_site_label
_atom_site_type_symbol
_atom_site_fract_x
_atom_site_fract_y
_atom_site_fract_z
_atom_site_U_iso_or_equiv
_atom_site_adp_type
_atom_site_occupancy
Cd1    Cd    0.97261   0.77207   0.44360   0.01267  Uiso   1.00
Cd2    Cd    0.77207   0.97261   0.94360   0.01267  Uiso   1.00
H1     H     0.88240   0.90120   0.20470   0.01267  Uiso   1.00
H2     H     0.65860   0.14120   0.16640   0.01267  Uiso   1.00
H3     H     0.72070   0.05290   0.36430   0.01267  Uiso   1.00
H4     H     0.71480   0.79420   0.46670   0.01267  Uiso   1.00
H5     H     0.54180   0.69660   0.44870   0.01267  Uiso   1.00
H6     H     0.42050   0.51870   0.41870   0.01267  Uiso   1.00
H7     H     0.48610   0.40350   0.41050   0.01267  Uiso   1.00
H8     H     0.39810   0.50450   0.28920   0.01267  Uiso   1.00
H9     H     0.45480   0.38420   0.28300   0.01267  Uiso   1.00
H10    H     0.29670   0.31170   0.33030   0.01267  Uiso   1.00
H11    H     0.25490   0.33730   0.24980   0.01267  Uiso   1.00
H12    H     0.16460   0.51720   0.24380   0.01267  Uiso   1.00
H13    H     0.04850   0.65650   0.28900   0.01267  Uiso   1.00
H14    H     0.10010   0.54450   0.47320   0.01267  Uiso   1.00
H15    H     0.21560   0.41480   0.42880   0.01267  Uiso   1.00
H16    H     0.67120   0.41140   0.35550   0.01267  Uiso   1.00
H17    H     0.83940   0.52160   0.37270   0.01267  Uiso   1.00
H18    H     0.12870   0.96050   0.51160   0.01267  Uiso   1.00
H19    H     0.57710   0.21790   0.25580   0.01267  Uiso   1.00
H20    H     0.90120   0.88240   0.70470   0.01267  Uiso   1.00
H21    H     0.14120   0.65860   0.66640   0.01267  Uiso   1.00
H22    H     0.05290   0.72070   0.86430   0.01267  Uiso   1.00
H23    H     0.79420   0.71480   0.96670   0.01267  Uiso   1.00
H24    H     0.69660   0.54180   0.94870   0.01267  Uiso   1.00
H25    H     0.51870   0.42050   0.91870   0.01267  Uiso   1.00
H26    H     0.40350   0.48610   0.91050   0.01267  Uiso   1.00
H27    H     0.50450   0.39810   0.78920   0.01267  Uiso   1.00
H28    H     0.38420   0.45480   0.78300   0.01267  Uiso   1.00
H29    H     0.31170   0.29670   0.83030   0.01267  Uiso   1.00
H30    H     0.33730   0.25490   0.74980   0.01267  Uiso   1.00
H31    H     0.51720   0.16460   0.74380   0.01267  Uiso   1.00
H32    H     0.65650   0.04850   0.78900   0.01267  Uiso   1.00
H33    H     0.54450   0.10010   0.97320   0.01267  Uiso   1.00
H34    H     0.41480   0.21560   0.92880   0.01267  Uiso   1.00
H35    H     0.41140   0.67120   0.85550   0.01267  Uiso   1.00
H36    H     0.52160   0.83940   0.87270   0.01267  Uiso   1.00
H37    H     0.96050   0.12870   0.01160   0.01267  Uiso   1.00
H38    H     0.21790   0.57710   0.75580   0.01267  Uiso   1.00
C1     C     0.87570   0.90230   0.34420   0.01267  Uiso   1.00
C2     C     0.78340   0.00040   0.09480   0.01267  Uiso   1.00
C3     C     0.81270   0.96730   0.29270   0.01267  Uiso   1.00
C4     C     0.82980   0.95320   0.22090   0.01267  Uiso   1.00
C5     C     0.76930   0.01550   0.17300   0.01267  Uiso   1.00
C6     C     0.69600   0.09540   0.19800   0.01267  Uiso   1.00
C7     C     0.67730   0.10810   0.26840   0.01267  Uiso   1.00
C8     C     0.73440   0.04440   0.31610   0.01267  Uiso   1.00
C9     C     0.70570   0.71530   0.44240   0.01267  Uiso   1.00
C10    C     0.60240   0.65680   0.43250   0.01267  Uiso   1.00
C11    C     0.58330   0.54330   0.40020   0.01267  Uiso   1.00
C12    C     0.47030   0.47250   0.39030   0.01267  Uiso   1.00
C13    C     0.40820   0.43620   0.31070   0.01267  Uiso   1.00
C14    C     0.28790   0.37310   0.30250   0.01267  Uiso   1.00
C15    C     0.20750   0.45730   0.33180   0.01267  Uiso   1.00
C16    C     0.15510   0.52450   0.29290   0.01267  Uiso   1.00
C17    C     0.08400   0.60880   0.31990   0.01267  Uiso   1.00
C18    C     0.11510   0.54370   0.42610   0.01267  Uiso   1.00
C19    C     0.18320   0.46580   0.39940   0.01267  Uiso   1.00
C20    C     0.67680   0.49100   0.37780   0.01267  Uiso   1.00
C21    C     0.77690   0.55810   0.38890   0.01267  Uiso   1.00
C22    C     0.90230   0.87570   0.84420   0.01267  Uiso   1.00
C23    C     0.00040   0.78340   0.59480   0.01267  Uiso   1.00
C24    C     0.96730   0.81270   0.79270   0.01267  Uiso   1.00
C25    C     0.95320   0.82980   0.72090   0.01267  Uiso   1.00
C26    C     0.01550   0.76930   0.67300   0.01267  Uiso   1.00
C27    C     0.09540   0.69600   0.69800   0.01267  Uiso   1.00
C28    C     0.10810   0.67730   0.76840   0.01267  Uiso   1.00
C29    C     0.04440   0.73440   0.81610   0.01267  Uiso   1.00
C30    C     0.71530   0.70570   0.94240   0.01267  Uiso   1.00
C31    C     0.65680   0.60240   0.93250   0.01267  Uiso   1.00
C32    C     0.54330   0.58330   0.90020   0.01267  Uiso   1.00
C33    C     0.47250   0.47030   0.89030   0.01267  Uiso   1.00
C34    C     0.43620   0.40820   0.81070   0.01267  Uiso   1.00
C35    C     0.37310   0.28790   0.80250   0.01267  Uiso   1.00
C36    C     0.45730   0.20750   0.83180   0.01267  Uiso   1.00
C37    C     0.52450   0.15510   0.79290   0.01267  Uiso   1.00
C38    C     0.60880   0.08400   0.81990   0.01267  Uiso   1.00
C39    C     0.54370   0.11510   0.92610   0.01267  Uiso   1.00
C40    C     0.46580   0.18320   0.89940   0.01267  Uiso   1.00
C41    C     0.49100   0.67680   0.87780   0.01267  Uiso   1.00
C42    C     0.55810   0.77690   0.88890   0.01267  Uiso   1.00
N1     N     0.79410   0.66870   0.42010   0.01267  Uiso   1.00
N2     N     0.06620   0.62220   0.38800   0.01267  Uiso   1.00
N3     N     0.66870   0.79410   0.92010   0.01267  Uiso   1.00
N4     N     0.62220   0.06620   0.88800   0.01267  Uiso   1.00
O1     O     0.85920   0.91700   0.40860   0.01267  Uiso   1.00
O2     O     0.13310   0.90970   0.47440   0.01267  Uiso   1.00
O3     O     0.94430   0.83230   0.32260   0.01267  Uiso   1.00
O4     O     0.93040   0.85180   0.57360   0.01267  Uiso   1.00
O5     O     0.05320   0.72600   0.55290   0.01267  Uiso   1.00
O6     O     0.60420   0.18640   0.29050   0.01267  Uiso   1.00
O7     O     0.91700   0.85920   0.90860   0.01267  Uiso   1.00
O8     O     0.90970   0.13310   0.97440   0.01267  Uiso   1.00
O9     O     0.83230   0.94430   0.82260   0.01267  Uiso   1.00
O10    O     0.85180   0.93040   0.07360   0.01267  Uiso   1.00
O11    O     0.72600   0.05320   0.05290   0.01267  Uiso   1.00
O12    O     0.18640   0.60420   0.79050   0.01267  Uiso   1.00
Cd3    Cd    0.22793   0.02739   0.05640   0.01267  Uiso   1.00
Cd4    Cd    0.02739   0.22793   0.55640   0.01267  Uiso   1.00
H39    H     0.09880   0.11760   0.29530   0.01267  Uiso   1.00
H40    H     0.85880   0.34140   0.33360   0.01267  Uiso   1.00
H41    H     0.94710   0.27930   0.13570   0.01267  Uiso   1.00
H42    H     0.20580   0.28520   0.03330   0.01267  Uiso   1.00
H43    H     0.30340   0.45820   0.05130   0.01267  Uiso   1.00
H44    H     0.48130   0.57950   0.08130   0.01267  Uiso   1.00
H45    H     0.59650   0.51390   0.08950   0.01267  Uiso   1.00
H46    H     0.49550   0.60190   0.21080   0.01267  Uiso   1.00
H47    H     0.61580   0.54520   0.21700   0.01267  Uiso   1.00
H48    H     0.68830   0.70330   0.16970   0.01267  Uiso   1.00
H49    H     0.66270   0.74510   0.25020   0.01267  Uiso   1.00
H50    H     0.48280   0.83540   0.25620   0.01267  Uiso   1.00
H51    H     0.34350   0.95150   0.21100   0.01267  Uiso   1.00
H52    H     0.45550   0.89990   0.02680   0.01267  Uiso   1.00
H53    H     0.58520   0.78440   0.07120   0.01267  Uiso   1.00
H54    H     0.58860   0.32880   0.14450   0.01267  Uiso   1.00
H55    H     0.47840   0.16060   0.12730   0.01267  Uiso   1.00
H56    H     0.03950   0.87130   0.98840   0.01267  Uiso   1.00
H57    H     0.78210   0.42290   0.24420   0.01267  Uiso   1.00
H58    H     0.11760   0.09880   0.79530   0.01267  Uiso   1.00
H59    H     0.34140   0.85880   0.83360   0.01267  Uiso   1.00
H60    H     0.27930   0.94710   0.63570   0.01267  Uiso   1.00
H61    H     0.28520   0.20580   0.53330   0.01267  Uiso   1.00
H62    H     0.45820   0.30340   0.55130   0.01267  Uiso   1.00
H63    H     0.57950   0.48130   0.58130   0.01267  Uiso   1.00
H64    H     0.51390   0.59650   0.58950   0.01267  Uiso   1.00
H65    H     0.60190   0.49550   0.71080   0.01267  Uiso   1.00
H66    H     0.54520   0.61580   0.71700   0.01267  Uiso   1.00
H67    H     0.70330   0.68830   0.66970   0.01267  Uiso   1.00
H68    H     0.74510   0.66270   0.75020   0.01267  Uiso   1.00
H69    H     0.83540   0.48280   0.75620   0.01267  Uiso   1.00
H70    H     0.95150   0.34350   0.71100   0.01267  Uiso   1.00
H71    H     0.89990   0.45550   0.52680   0.01267  Uiso   1.00
H72    H     0.78440   0.58520   0.57120   0.01267  Uiso   1.00
H73    H     0.32880   0.58860   0.64450   0.01267  Uiso   1.00
H74    H     0.16060   0.47840   0.62730   0.01267  Uiso   1.00
H75    H     0.87130   0.03950   0.48840   0.01267  Uiso   1.00
H76    H     0.42290   0.78210   0.74420   0.01267  Uiso   1.00
C43    C     0.09770   0.12430   0.15580   0.01267  Uiso   1.00
C44    C     0.99960   0.21660   0.40520   0.01267  Uiso   1.00
C45    C     0.03270   0.18730   0.20730   0.01267  Uiso   1.00
C46    C     0.04680   0.17020   0.27910   0.01267  Uiso   1.00
C47    C     0.98450   0.23070   0.32700   0.01267  Uiso   1.00
C48    C     0.90460   0.30400   0.30200   0.01267  Uiso   1.00
C49    C     0.89190   0.32270   0.23160   0.01267  Uiso   1.00
C50    C     0.95560   0.26560   0.18390   0.01267  Uiso   1.00
C51    C     0.28470   0.29430   0.05760   0.01267  Uiso   1.00
C52    C     0.34320   0.39760   0.06750   0.01267  Uiso   1.00
C53    C     0.45670   0.41670   0.09980   0.01267  Uiso   1.00
C54    C     0.52750   0.52970   0.10970   0.01267  Uiso   1.00
C55    C     0.56380   0.59180   0.18930   0.01267  Uiso   1.00
C56    C     0.62690   0.71210   0.19750   0.01267  Uiso   1.00
C57    C     0.54270   0.79250   0.16820   0.01267  Uiso   1.00
C58    C     0.47550   0.84490   0.20710   0.01267  Uiso   1.00
C59    C     0.39120   0.91600   0.18010   0.01267  Uiso   1.00
C60    C     0.45630   0.88490   0.07390   0.01267  Uiso   1.00
C61    C     0.53420   0.81680   0.10060   0.01267  Uiso   1.00
C62    C     0.50900   0.32320   0.12220   0.01267  Uiso   1.00
C63    C     0.44190   0.22310   0.11110   0.01267  Uiso   1.00
C64    C     0.12430   0.09770   0.65580   0.01267  Uiso   1.00
C65    C     0.21660   0.99960   0.90520   0.01267  Uiso   1.00
C66    C     0.18730   0.03270   0.70730   0.01267  Uiso   1.00
C67    C     0.17020   0.04680   0.77910   0.01267  Uiso   1.00
C68    C     0.23070   0.98450   0.82700   0.01267  Uiso   1.00
C69    C     0.30400   0.90460   0.80200   0.01267  Uiso   1.00
C70    C     0.32270   0.89190   0.73160   0.01267  Uiso   1.00
C71    C     0.26560   0.95560   0.68390   0.01267  Uiso   1.00
C72    C     0.29430   0.28470   0.55760   0.01267  Uiso   1.00
C73    C     0.39760   0.34320   0.56750   0.01267  Uiso   1.00
C74    C     0.41670   0.45670   0.59980   0.01267  Uiso   1.00
C75    C     0.52970   0.52750   0.60970   0.01267  Uiso   1.00
C76    C     0.59180   0.56380   0.68930   0.01267  Uiso   1.00
C77    C     0.71210   0.62690   0.69750   0.01267  Uiso   1.00
C78    C     0.79250   0.54270   0.66820   0.01267  Uiso   1.00
C79    C     0.84490   0.47550   0.70710   0.01267  Uiso   1.00
C80    C     0.91600   0.39120   0.68010   0.01267  Uiso   1.00
C81    C     0.88490   0.45630   0.57390   0.01267  Uiso   1.00
C82    C     0.81680   0.53420   0.60060   0.01267  Uiso   1.00
C83    C     0.32320   0.50900   0.62220   0.01267  Uiso   1.00
C84    C     0.22310   0.44190   0.61110   0.01267  Uiso   1.00
N5     N     0.33130   0.20590   0.07990   0.01267  Uiso   1.00
N6     N     0.37780   0.93380   0.11200   0.01267  Uiso   1.00
N7     N     0.20590   0.33130   0.57990   0.01267  Uiso   1.00
N8     N     0.93380   0.37780   0.61200   0.01267  Uiso   1.00
O13    O     0.08300   0.14080   0.09140   0.01267  Uiso   1.00
O14    O     0.09030   0.86690   0.02560   0.01267  Uiso   1.00
O15    O     0.16770   0.05570   0.17740   0.01267  Uiso   1.00
O16    O     0.14820   0.06960   0.92640   0.01267  Uiso   1.00
O17    O     0.27400   0.94680   0.94710   0.01267  Uiso   1.00
O18    O     0.81360   0.39580   0.20950   0.01267  Uiso   1.00
O19    O     0.14080   0.08300   0.59140   0.01267  Uiso   1.00
O20    O     0.86690   0.09030   0.52560   0.01267  Uiso   1.00
O21    O     0.05570   0.16770   0.67740   0.01267  Uiso   1.00
O22    O     0.06960   0.14820   0.42640   0.01267  Uiso   1.00
O23    O     0.94680   0.27400   0.44710   0.01267  Uiso   1.00
O24    O     0.39580   0.81360   0.70950   0.01267  Uiso   1.00
