data_TAZLIR_clean
_audit_creation_date              2014-07-02
_audit_creation_method            'Materials Studio'
_symmetry_space_group_name_H-M    'P1'
_symmetry_Int_Tables_number       1
_symmetry_cell_setting            triclinic
loop_
_symmetry_equiv_pos_as_xyz
  x,y,z
_cell_length_a                    19.4876
_cell_length_b                    19.4876
_cell_length_c                    26.3770
_cell_angle_alpha                 90.0000
_cell_angle_beta                  90.0000
_cell_angle_gamma                 90.0000
loop_
_atom_site_label
_atom_site_type_symbol
_atom_site_fract_x
_atom_site_fract_y
_atom_site_fract_z
_atom_site_U_iso_or_equiv
_atom_site_adp_type
_atom_site_occupancy
Sm1    Sm    0.44101   0.05899   0.80287   0.01267  Uiso   1.00
Sm2    Sm    0.05899   0.44101   0.80287   0.01267  Uiso   1.00
Sm3    Sm    0.44101   0.44101   0.30287   0.01267  Uiso   1.00
Sm4    Sm    0.05899   0.05899   0.30287   0.01267  Uiso   1.00
Sm5    Sm    0.55899   0.55899   0.69713   0.01267  Uiso   1.00
Sm6    Sm    0.94101   0.94101   0.69713   0.01267  Uiso   1.00
Sm7    Sm    0.55899   0.94101   0.19713   0.01267  Uiso   1.00
Sm8    Sm    0.94101   0.55899   0.19713   0.01267  Uiso   1.00
Cd1    Cd    0.52990   0.97010   0.69607   0.01267  Uiso   1.00
Cd2    Cd    0.97010   0.52990   0.69607   0.01267  Uiso   1.00
Cd3    Cd    0.52990   0.52990   0.19607   0.01267  Uiso   1.00
Cd4    Cd    0.97010   0.97010   0.19607   0.01267  Uiso   1.00
Cd5    Cd    0.47010   0.47010   0.80393   0.01267  Uiso   1.00
Cd6    Cd    0.02990   0.02990   0.80393   0.01267  Uiso   1.00
Cd7    Cd    0.47010   0.02990   0.30393   0.01267  Uiso   1.00
Cd8    Cd    0.02990   0.47010   0.30393   0.01267  Uiso   1.00
Cd9    Cd    0.75000   0.25000   0.50000   0.01267  Uiso   1.00
Cd10   Cd    0.25000   0.75000   0.00000   0.01267  Uiso   1.00
Cd11   Cd    0.25000   0.75000   0.50000   0.01267  Uiso   1.00
Cd12   Cd    0.75000   0.25000   0.00000   0.01267  Uiso   1.00
H1     H     0.48730   0.25120   0.73080   0.01267  Uiso   1.00
H2     H     0.59000   0.16710   0.61510   0.01267  Uiso   1.00
H3     H     0.59550   0.37040   0.63570   0.01267  Uiso   1.00
H4     H     0.01270   0.24880   0.73080   0.01267  Uiso   1.00
H5     H     0.91000   0.33290   0.61510   0.01267  Uiso   1.00
H6     H     0.90450   0.12960   0.63570   0.01267  Uiso   1.00
H7     H     0.24880   0.48730   0.23080   0.01267  Uiso   1.00
H8     H     0.33290   0.59000   0.11510   0.01267  Uiso   1.00
H9     H     0.12960   0.59550   0.13570   0.01267  Uiso   1.00
H10    H     0.25120   0.01270   0.23080   0.01267  Uiso   1.00
H11    H     0.16710   0.91000   0.11510   0.01267  Uiso   1.00
H12    H     0.37040   0.90450   0.13570   0.01267  Uiso   1.00
H13    H     0.51270   0.75120   0.76920   0.01267  Uiso   1.00
H14    H     0.41000   0.66710   0.88490   0.01267  Uiso   1.00
H15    H     0.40450   0.87040   0.86430   0.01267  Uiso   1.00
H16    H     0.98730   0.74880   0.76920   0.01267  Uiso   1.00
H17    H     0.09000   0.83290   0.88490   0.01267  Uiso   1.00
H18    H     0.09550   0.62960   0.86430   0.01267  Uiso   1.00
H19    H     0.75120   0.98730   0.26920   0.01267  Uiso   1.00
H20    H     0.66710   0.09000   0.38490   0.01267  Uiso   1.00
H21    H     0.87040   0.09550   0.36430   0.01267  Uiso   1.00
H22    H     0.74880   0.51270   0.26920   0.01267  Uiso   1.00
H23    H     0.83290   0.41000   0.38490   0.01267  Uiso   1.00
H24    H     0.62960   0.40450   0.36430   0.01267  Uiso   1.00
H25    H     0.51270   0.74880   0.26920   0.01267  Uiso   1.00
H26    H     0.41000   0.83290   0.38490   0.01267  Uiso   1.00
H27    H     0.40450   0.62960   0.36430   0.01267  Uiso   1.00
H28    H     0.98730   0.75120   0.26920   0.01267  Uiso   1.00
H29    H     0.09000   0.66710   0.38490   0.01267  Uiso   1.00
H30    H     0.09550   0.87040   0.36430   0.01267  Uiso   1.00
H31    H     0.75120   0.51270   0.76920   0.01267  Uiso   1.00
H32    H     0.66710   0.41000   0.88490   0.01267  Uiso   1.00
H33    H     0.87040   0.40450   0.86430   0.01267  Uiso   1.00
H34    H     0.74880   0.98730   0.76920   0.01267  Uiso   1.00
H35    H     0.83290   0.09000   0.88490   0.01267  Uiso   1.00
H36    H     0.62960   0.09550   0.86430   0.01267  Uiso   1.00
H37    H     0.48730   0.24880   0.23080   0.01267  Uiso   1.00
H38    H     0.59000   0.33290   0.11510   0.01267  Uiso   1.00
H39    H     0.59550   0.12960   0.13570   0.01267  Uiso   1.00
H40    H     0.01270   0.25120   0.23080   0.01267  Uiso   1.00
H41    H     0.91000   0.16710   0.11510   0.01267  Uiso   1.00
H42    H     0.90450   0.37040   0.13570   0.01267  Uiso   1.00
H43    H     0.24880   0.01270   0.73080   0.01267  Uiso   1.00
H44    H     0.33290   0.91000   0.61510   0.01267  Uiso   1.00
H45    H     0.12960   0.90450   0.63570   0.01267  Uiso   1.00
H46    H     0.25120   0.48730   0.73080   0.01267  Uiso   1.00
H47    H     0.16710   0.59000   0.61510   0.01267  Uiso   1.00
H48    H     0.37040   0.59550   0.63570   0.01267  Uiso   1.00
C1     C     0.51640   0.12860   0.69360   0.01267  Uiso   1.00
C2     C     0.53800   0.32030   0.68810   0.01267  Uiso   1.00
C3     C     0.64760   0.27500   0.57450   0.01267  Uiso   1.00
C4     C     0.53470   0.19910   0.67540   0.01267  Uiso   1.00
C5     C     0.59880   0.26960   0.61840   0.01267  Uiso   1.00
C6     C     0.51550   0.25590   0.70260   0.01267  Uiso   1.00
C7     C     0.57680   0.20580   0.63320   0.01267  Uiso   1.00
C8     C     0.58010   0.32730   0.64560   0.01267  Uiso   1.00
C9     C     0.51950   0.38180   0.71970   0.01267  Uiso   1.00
C10    C     0.98360   0.37140   0.69360   0.01267  Uiso   1.00
C11    C     0.96200   0.17970   0.68810   0.01267  Uiso   1.00
C12    C     0.85240   0.22500   0.57450   0.01267  Uiso   1.00
C13    C     0.96530   0.30090   0.67540   0.01267  Uiso   1.00
C14    C     0.90120   0.23040   0.61840   0.01267  Uiso   1.00
C15    C     0.98450   0.24410   0.70260   0.01267  Uiso   1.00
C16    C     0.92320   0.29420   0.63320   0.01267  Uiso   1.00
C17    C     0.91990   0.17270   0.64560   0.01267  Uiso   1.00
C18    C     0.98050   0.11820   0.71970   0.01267  Uiso   1.00
C19    C     0.37140   0.51640   0.19360   0.01267  Uiso   1.00
C20    C     0.17970   0.53800   0.18810   0.01267  Uiso   1.00
C21    C     0.22500   0.64760   0.07450   0.01267  Uiso   1.00
C22    C     0.30090   0.53470   0.17540   0.01267  Uiso   1.00
C23    C     0.23040   0.59880   0.11840   0.01267  Uiso   1.00
C24    C     0.24410   0.51550   0.20260   0.01267  Uiso   1.00
C25    C     0.29420   0.57680   0.13320   0.01267  Uiso   1.00
C26    C     0.17270   0.58010   0.14560   0.01267  Uiso   1.00
C27    C     0.11820   0.51950   0.21970   0.01267  Uiso   1.00
C28    C     0.12860   0.98360   0.19360   0.01267  Uiso   1.00
C29    C     0.32030   0.96200   0.18810   0.01267  Uiso   1.00
C30    C     0.27500   0.85240   0.07450   0.01267  Uiso   1.00
C31    C     0.19910   0.96530   0.17540   0.01267  Uiso   1.00
C32    C     0.26960   0.90120   0.11840   0.01267  Uiso   1.00
C33    C     0.25590   0.98450   0.20260   0.01267  Uiso   1.00
C34    C     0.20580   0.92320   0.13320   0.01267  Uiso   1.00
C35    C     0.32730   0.91990   0.14560   0.01267  Uiso   1.00
C36    C     0.38180   0.98050   0.21970   0.01267  Uiso   1.00
C37    C     0.48360   0.62860   0.80640   0.01267  Uiso   1.00
C38    C     0.46200   0.82030   0.81190   0.01267  Uiso   1.00
C39    C     0.35240   0.77500   0.92550   0.01267  Uiso   1.00
C40    C     0.46530   0.69910   0.82460   0.01267  Uiso   1.00
C41    C     0.40120   0.76960   0.88160   0.01267  Uiso   1.00
C42    C     0.48450   0.75590   0.79740   0.01267  Uiso   1.00
C43    C     0.42320   0.70580   0.86680   0.01267  Uiso   1.00
C44    C     0.41990   0.82730   0.85440   0.01267  Uiso   1.00
C45    C     0.48050   0.88180   0.78030   0.01267  Uiso   1.00
C46    C     0.01640   0.87140   0.80640   0.01267  Uiso   1.00
C47    C     0.03800   0.67970   0.81190   0.01267  Uiso   1.00
C48    C     0.14760   0.72500   0.92550   0.01267  Uiso   1.00
C49    C     0.03470   0.80090   0.82460   0.01267  Uiso   1.00
C50    C     0.09880   0.73040   0.88160   0.01267  Uiso   1.00
C51    C     0.01550   0.74410   0.79740   0.01267  Uiso   1.00
C52    C     0.07680   0.79420   0.86680   0.01267  Uiso   1.00
C53    C     0.08010   0.67270   0.85440   0.01267  Uiso   1.00
C54    C     0.01950   0.61820   0.78030   0.01267  Uiso   1.00
C55    C     0.62860   0.01640   0.30640   0.01267  Uiso   1.00
C56    C     0.82030   0.03800   0.31190   0.01267  Uiso   1.00
C57    C     0.77500   0.14760   0.42550   0.01267  Uiso   1.00
C58    C     0.69910   0.03470   0.32460   0.01267  Uiso   1.00
C59    C     0.76960   0.09880   0.38160   0.01267  Uiso   1.00
C60    C     0.75590   0.01550   0.29740   0.01267  Uiso   1.00
C61    C     0.70580   0.07680   0.36680   0.01267  Uiso   1.00
C62    C     0.82730   0.08010   0.35440   0.01267  Uiso   1.00
C63    C     0.88180   0.01950   0.28030   0.01267  Uiso   1.00
C64    C     0.87140   0.48360   0.30640   0.01267  Uiso   1.00
C65    C     0.67970   0.46200   0.31190   0.01267  Uiso   1.00
C66    C     0.72500   0.35240   0.42550   0.01267  Uiso   1.00
C67    C     0.80090   0.46530   0.32460   0.01267  Uiso   1.00
C68    C     0.73040   0.40120   0.38160   0.01267  Uiso   1.00
C69    C     0.74410   0.48450   0.29740   0.01267  Uiso   1.00
C70    C     0.79420   0.42320   0.36680   0.01267  Uiso   1.00
C71    C     0.67270   0.41990   0.35440   0.01267  Uiso   1.00
C72    C     0.61820   0.48050   0.28030   0.01267  Uiso   1.00
C73    C     0.48360   0.87140   0.30640   0.01267  Uiso   1.00
C74    C     0.46200   0.67970   0.31190   0.01267  Uiso   1.00
C75    C     0.35240   0.72500   0.42550   0.01267  Uiso   1.00
C76    C     0.46530   0.80090   0.32460   0.01267  Uiso   1.00
C77    C     0.40120   0.73040   0.38160   0.01267  Uiso   1.00
C78    C     0.48450   0.74410   0.29740   0.01267  Uiso   1.00
C79    C     0.42320   0.79420   0.36680   0.01267  Uiso   1.00
C80    C     0.41990   0.67270   0.35440   0.01267  Uiso   1.00
C81    C     0.48050   0.61820   0.28030   0.01267  Uiso   1.00
C82    C     0.01640   0.62860   0.30640   0.01267  Uiso   1.00
C83    C     0.03800   0.82030   0.31190   0.01267  Uiso   1.00
C84    C     0.14760   0.77500   0.42550   0.01267  Uiso   1.00
C85    C     0.03470   0.69910   0.32460   0.01267  Uiso   1.00
C86    C     0.09880   0.76960   0.38160   0.01267  Uiso   1.00
C87    C     0.01550   0.75590   0.29740   0.01267  Uiso   1.00
C88    C     0.07680   0.70580   0.36680   0.01267  Uiso   1.00
C89    C     0.08010   0.82730   0.35440   0.01267  Uiso   1.00
C90    C     0.01950   0.88180   0.28030   0.01267  Uiso   1.00
C91    C     0.62860   0.48360   0.80640   0.01267  Uiso   1.00
C92    C     0.82030   0.46200   0.81190   0.01267  Uiso   1.00
C93    C     0.77500   0.35240   0.92550   0.01267  Uiso   1.00
C94    C     0.69910   0.46530   0.82460   0.01267  Uiso   1.00
C95    C     0.76960   0.40120   0.88160   0.01267  Uiso   1.00
C96    C     0.75590   0.48450   0.79740   0.01267  Uiso   1.00
C97    C     0.70580   0.42320   0.86680   0.01267  Uiso   1.00
C98    C     0.82730   0.41990   0.85440   0.01267  Uiso   1.00
C99    C     0.88180   0.48050   0.78030   0.01267  Uiso   1.00
C100   C     0.87140   0.01640   0.80640   0.01267  Uiso   1.00
C101   C     0.67970   0.03800   0.81190   0.01267  Uiso   1.00
C102   C     0.72500   0.14760   0.92550   0.01267  Uiso   1.00
C103   C     0.80090   0.03470   0.82460   0.01267  Uiso   1.00
C104   C     0.73040   0.09880   0.88160   0.01267  Uiso   1.00
C105   C     0.74410   0.01550   0.79740   0.01267  Uiso   1.00
C106   C     0.79420   0.07680   0.86680   0.01267  Uiso   1.00
C107   C     0.67270   0.08010   0.85440   0.01267  Uiso   1.00
C108   C     0.61820   0.01950   0.78030   0.01267  Uiso   1.00
C109   C     0.51640   0.37140   0.19360   0.01267  Uiso   1.00
C110   C     0.53800   0.17970   0.18810   0.01267  Uiso   1.00
C111   C     0.64760   0.22500   0.07450   0.01267  Uiso   1.00
C112   C     0.53470   0.30090   0.17540   0.01267  Uiso   1.00
C113   C     0.59880   0.23040   0.11840   0.01267  Uiso   1.00
C114   C     0.51550   0.24410   0.20260   0.01267  Uiso   1.00
C115   C     0.57680   0.29420   0.13320   0.01267  Uiso   1.00
C116   C     0.58010   0.17270   0.14560   0.01267  Uiso   1.00
C117   C     0.51950   0.11820   0.21970   0.01267  Uiso   1.00
C118   C     0.98360   0.12860   0.19360   0.01267  Uiso   1.00
C119   C     0.96200   0.32030   0.18810   0.01267  Uiso   1.00
C120   C     0.85240   0.27500   0.07450   0.01267  Uiso   1.00
C121   C     0.96530   0.19910   0.17540   0.01267  Uiso   1.00
C122   C     0.90120   0.26960   0.11840   0.01267  Uiso   1.00
C123   C     0.98450   0.25590   0.20260   0.01267  Uiso   1.00
C124   C     0.92320   0.20580   0.13320   0.01267  Uiso   1.00
C125   C     0.91990   0.32730   0.14560   0.01267  Uiso   1.00
C126   C     0.98050   0.38180   0.21970   0.01267  Uiso   1.00
C127   C     0.37140   0.98360   0.69360   0.01267  Uiso   1.00
C128   C     0.17970   0.96200   0.68810   0.01267  Uiso   1.00
C129   C     0.22500   0.85240   0.57450   0.01267  Uiso   1.00
C130   C     0.30090   0.96530   0.67540   0.01267  Uiso   1.00
C131   C     0.23040   0.90120   0.61840   0.01267  Uiso   1.00
C132   C     0.24410   0.98450   0.70260   0.01267  Uiso   1.00
C133   C     0.29420   0.92320   0.63320   0.01267  Uiso   1.00
C134   C     0.17270   0.91990   0.64560   0.01267  Uiso   1.00
C135   C     0.11820   0.98050   0.71970   0.01267  Uiso   1.00
C136   C     0.12860   0.51640   0.69360   0.01267  Uiso   1.00
C137   C     0.32030   0.53800   0.68810   0.01267  Uiso   1.00
C138   C     0.27500   0.64760   0.57450   0.01267  Uiso   1.00
C139   C     0.19910   0.53470   0.67540   0.01267  Uiso   1.00
C140   C     0.26960   0.59880   0.61840   0.01267  Uiso   1.00
C141   C     0.25590   0.51550   0.70260   0.01267  Uiso   1.00
C142   C     0.20580   0.57680   0.63320   0.01267  Uiso   1.00
C143   C     0.32730   0.58010   0.64560   0.01267  Uiso   1.00
C144   C     0.38180   0.51950   0.71970   0.01267  Uiso   1.00
O1     O     0.47910   0.12330   0.73250   0.01267  Uiso   1.00
O2     O     0.53970   0.43770   0.70600   0.01267  Uiso   1.00
O3     O     0.66350   0.22140   0.55110   0.01267  Uiso   1.00
O4     O     0.67280   0.33230   0.56390   0.01267  Uiso   1.00
O5     O     0.53770   0.07870   0.66980   0.01267  Uiso   1.00
O6     O     0.48680   0.37360   0.75980   0.01267  Uiso   1.00
O7     O     0.02090   0.37670   0.73250   0.01267  Uiso   1.00
O8     O     0.96030   0.06230   0.70600   0.01267  Uiso   1.00
O9     O     0.83650   0.27860   0.55110   0.01267  Uiso   1.00
O10    O     0.82720   0.16770   0.56390   0.01267  Uiso   1.00
O11    O     0.96230   0.42130   0.66980   0.01267  Uiso   1.00
O12    O     0.01320   0.12640   0.75980   0.01267  Uiso   1.00
O13    O     0.37670   0.47910   0.23250   0.01267  Uiso   1.00
O14    O     0.06230   0.53970   0.20600   0.01267  Uiso   1.00
O15    O     0.27860   0.66350   0.05110   0.01267  Uiso   1.00
O16    O     0.16770   0.67280   0.06390   0.01267  Uiso   1.00
O17    O     0.42130   0.53770   0.16980   0.01267  Uiso   1.00
O18    O     0.12640   0.48680   0.25980   0.01267  Uiso   1.00
O19    O     0.12330   0.02090   0.23250   0.01267  Uiso   1.00
O20    O     0.43770   0.96030   0.20600   0.01267  Uiso   1.00
O21    O     0.22140   0.83650   0.05110   0.01267  Uiso   1.00
O22    O     0.33230   0.82720   0.06390   0.01267  Uiso   1.00
O23    O     0.07870   0.96230   0.16980   0.01267  Uiso   1.00
O24    O     0.37360   0.01320   0.25980   0.01267  Uiso   1.00
O25    O     0.52090   0.62330   0.76750   0.01267  Uiso   1.00
O26    O     0.46030   0.93770   0.79400   0.01267  Uiso   1.00
O27    O     0.33650   0.72140   0.94890   0.01267  Uiso   1.00
O28    O     0.32720   0.83230   0.93610   0.01267  Uiso   1.00
O29    O     0.46230   0.57870   0.83020   0.01267  Uiso   1.00
O30    O     0.51320   0.87360   0.74020   0.01267  Uiso   1.00
O31    O     0.97910   0.87670   0.76750   0.01267  Uiso   1.00
O32    O     0.03970   0.56230   0.79400   0.01267  Uiso   1.00
O33    O     0.16350   0.77860   0.94890   0.01267  Uiso   1.00
O34    O     0.17280   0.66770   0.93610   0.01267  Uiso   1.00
O35    O     0.03770   0.92130   0.83020   0.01267  Uiso   1.00
O36    O     0.98680   0.62640   0.74020   0.01267  Uiso   1.00
O37    O     0.62330   0.97910   0.26750   0.01267  Uiso   1.00
O38    O     0.93770   0.03970   0.29400   0.01267  Uiso   1.00
O39    O     0.72140   0.16350   0.44890   0.01267  Uiso   1.00
O40    O     0.83230   0.17280   0.43610   0.01267  Uiso   1.00
O41    O     0.57870   0.03770   0.33020   0.01267  Uiso   1.00
O42    O     0.87360   0.98680   0.24020   0.01267  Uiso   1.00
O43    O     0.87670   0.52090   0.26750   0.01267  Uiso   1.00
O44    O     0.56230   0.46030   0.29400   0.01267  Uiso   1.00
O45    O     0.77860   0.33650   0.44890   0.01267  Uiso   1.00
O46    O     0.66770   0.32720   0.43610   0.01267  Uiso   1.00
O47    O     0.92130   0.46230   0.33020   0.01267  Uiso   1.00
O48    O     0.62640   0.51320   0.24020   0.01267  Uiso   1.00
O49    O     0.52090   0.87670   0.26750   0.01267  Uiso   1.00
O50    O     0.46030   0.56230   0.29400   0.01267  Uiso   1.00
O51    O     0.33650   0.77860   0.44890   0.01267  Uiso   1.00
O52    O     0.32720   0.66770   0.43610   0.01267  Uiso   1.00
O53    O     0.46230   0.92130   0.33020   0.01267  Uiso   1.00
O54    O     0.51320   0.62640   0.24020   0.01267  Uiso   1.00
O55    O     0.97910   0.62330   0.26750   0.01267  Uiso   1.00
O56    O     0.03970   0.93770   0.29400   0.01267  Uiso   1.00
O57    O     0.16350   0.72140   0.44890   0.01267  Uiso   1.00
O58    O     0.17280   0.83230   0.43610   0.01267  Uiso   1.00
O59    O     0.03770   0.57870   0.33020   0.01267  Uiso   1.00
O60    O     0.98680   0.87360   0.24020   0.01267  Uiso   1.00
O61    O     0.62330   0.52090   0.76750   0.01267  Uiso   1.00
O62    O     0.93770   0.46030   0.79400   0.01267  Uiso   1.00
O63    O     0.72140   0.33650   0.94890   0.01267  Uiso   1.00
O64    O     0.83230   0.32720   0.93610   0.01267  Uiso   1.00
O65    O     0.57870   0.46230   0.83020   0.01267  Uiso   1.00
O66    O     0.87360   0.51320   0.74020   0.01267  Uiso   1.00
O67    O     0.87670   0.97910   0.76750   0.01267  Uiso   1.00
O68    O     0.56230   0.03970   0.79400   0.01267  Uiso   1.00
O69    O     0.77860   0.16350   0.94890   0.01267  Uiso   1.00
O70    O     0.66770   0.17280   0.93610   0.01267  Uiso   1.00
O71    O     0.92130   0.03770   0.83020   0.01267  Uiso   1.00
O72    O     0.62640   0.98680   0.74020   0.01267  Uiso   1.00
O73    O     0.47910   0.37670   0.23250   0.01267  Uiso   1.00
O74    O     0.53970   0.06230   0.20600   0.01267  Uiso   1.00
O75    O     0.66350   0.27860   0.05110   0.01267  Uiso   1.00
O76    O     0.67280   0.16770   0.06390   0.01267  Uiso   1.00
O77    O     0.53770   0.42130   0.16980   0.01267  Uiso   1.00
O78    O     0.48680   0.12640   0.25980   0.01267  Uiso   1.00
O79    O     0.02090   0.12330   0.23250   0.01267  Uiso   1.00
O80    O     0.96030   0.43770   0.20600   0.01267  Uiso   1.00
O81    O     0.83650   0.22140   0.05110   0.01267  Uiso   1.00
O82    O     0.82720   0.33230   0.06390   0.01267  Uiso   1.00
O83    O     0.96230   0.07870   0.16980   0.01267  Uiso   1.00
O84    O     0.01320   0.37360   0.25980   0.01267  Uiso   1.00
O85    O     0.37670   0.02090   0.73250   0.01267  Uiso   1.00
O86    O     0.06230   0.96030   0.70600   0.01267  Uiso   1.00
O87    O     0.27860   0.83650   0.55110   0.01267  Uiso   1.00
O88    O     0.16770   0.82720   0.56390   0.01267  Uiso   1.00
O89    O     0.42130   0.96230   0.66980   0.01267  Uiso   1.00
O90    O     0.12640   0.01320   0.75980   0.01267  Uiso   1.00
O91    O     0.12330   0.47910   0.73250   0.01267  Uiso   1.00
O92    O     0.43770   0.53970   0.70600   0.01267  Uiso   1.00
O93    O     0.22140   0.66350   0.55110   0.01267  Uiso   1.00
O94    O     0.33230   0.67280   0.56390   0.01267  Uiso   1.00
O95    O     0.07870   0.53770   0.66980   0.01267  Uiso   1.00
O96    O     0.37360   0.48680   0.75980   0.01267  Uiso   1.00
