data_image0
_cell_length_a       7.877
_cell_length_b       12.06
_cell_length_c       12.275
_cell_angle_alpha    112.12
_cell_angle_beta     89.98
_cell_angle_gamma    99.95

_symmetry_space_group_name_H-M    "P 1"
_symmetry_int_tables_number       1

loop_
  _symmetry_equiv_pos_as_xyz
  'x, y, z'

loop_
  _atom_site_label
  _atom_site_occupancy
  _atom_site_fract_x
  _atom_site_fract_y
  _atom_site_fract_z
  _atom_site_thermal_displace_type
  _atom_site_B_iso_or_equiv
  _atom_site_type_symbol
  Pr1      1.0000 0.99088  0.14557  0.85426  Biso   1.000  Pr
  Pr2      1.0000 0.49083  0.14516  0.75199  Biso   1.000  Pr
  C1       1.0000 0.63800  0.13800  0.02140  Biso   1.000  C
  C2       1.0000 0.61500  0.16700  0.14800  Biso   1.000  C
  H1       1.0000 0.53340  0.10140  0.15580  Biso   1.000  H
  H2       1.0000 0.56550  0.24030  0.17870  Biso   1.000  H
  C3       1.0000 0.78200  0.18730  0.22210  Biso   1.000  C
  H3       1.0000 0.86730  0.24750  0.20750  Biso   1.000  H
  H4       1.0000 0.75880  0.22120  0.30470  Biso   1.000  H
  C4       1.0000 0.85700  0.07800  0.20100  Biso   1.000  C
  C5       1.0000 0.64500  0.93000  0.64800  Biso   1.000  C
  C6       1.0000 0.71500  0.81100  0.58500  Biso   1.000  C
  H5       1.0000 0.62770  0.75290  0.52610  Biso   1.000  H
  H6       1.0000 0.73490  0.77610  0.64260  Biso   1.000  H
  C7       1.0000 0.24500  0.47300  0.86600  Biso   1.000  C
  H7       1.0000 0.12080  0.45020  0.84920  Biso   1.000  H
  H8       1.0000 0.28910  0.52390  0.82310  Biso   1.000  H
  C8       1.0000 0.32000  0.36300  0.82300  Biso   1.000  C
  C9       1.0000 0.86300  0.85500  0.42100  Biso   1.000  C
  C10      1.0000 0.89800  0.83100  0.52110  Biso   1.000  C
  H9       1.0000 0.97920  0.89930  0.57600  Biso   1.000  H
  H10      1.0000 0.94870  0.75910  0.49860  Biso   1.000  H
  C11      1.0000 0.28500  0.54400  0.99600  Biso   1.000  C
  C12      1.0000 0.18300  0.64100  0.04500  Biso   1.000  C
  O1       1.0000 0.22690  0.72170  0.15410  Biso   1.000  O
  O2       1.0000 0.05200  0.64720  0.99510  Biso   1.000  O
  O3       1.0000 0.76200  0.98220  0.20870  Biso   1.000  O
  O4       1.0000 0.01000  0.07360  0.17840  Biso   1.000  O
  O5       1.0000 0.45300  0.35830  0.75520  Biso   1.000  O
  O6       1.0000 0.27350  0.27770  0.85530  Biso   1.000  O
  O7       1.0000 0.51100  0.14880  0.96430  Biso   1.000  O
  O8       1.0000 0.77140  0.10240  0.98000  Biso   1.000  O
  O9       1.0000 0.98970  0.84490  0.34900  Biso   1.000  O
  O10      1.0000 0.72400  0.89050  0.39980  Biso   1.000  O
  O11      1.0000 0.73600  0.01730  0.72110  Biso   1.000  O
  O12      1.0000 0.49000  0.92750  0.61990  Biso   1.000  O
  Pr3      1.0000 0.00912  0.85443  0.14574  Biso   1.000  Pr
  Pr4      1.0000 0.50917  0.85484  0.24801  Biso   1.000  Pr
  C13      1.0000 0.36200  0.86200  0.97860  Biso   1.000  C
  C14      1.0000 0.38500  0.83300  0.85200  Biso   1.000  C
  H11      1.0000 0.46660  0.89860  0.84420  Biso   1.000  H
  H12      1.0000 0.43450  0.75970  0.82130  Biso   1.000  H
  C15      1.0000 0.21800  0.81270  0.77790  Biso   1.000  C
  H13      1.0000 0.13270  0.75250  0.79250  Biso   1.000  H
  H14      1.0000 0.24120  0.77880  0.69530  Biso   1.000  H
  C16      1.0000 0.14300  0.92200  0.79900  Biso   1.000  C
  C17      1.0000 0.35500  0.07000  0.35200  Biso   1.000  C
  C18      1.0000 0.28500  0.18900  0.41500  Biso   1.000  C
  H15      1.0000 0.37230  0.24710  0.47390  Biso   1.000  H
  H16      1.0000 0.26510  0.22390  0.35740  Biso   1.000  H
  C19      1.0000 0.75500  0.52700  0.13400  Biso   1.000  C
  H17      1.0000 0.87920  0.54980  0.15080  Biso   1.000  H
  H18      1.0000 0.71090  0.47610  0.17690  Biso   1.000  H
  C20      1.0000 0.68000  0.63700  0.17700  Biso   1.000  C
  C21      1.0000 0.13700  0.14500  0.57900  Biso   1.000  C
  C22      1.0000 0.10200  0.16900  0.47890  Biso   1.000  C
  H19      1.0000 0.02080  0.10070  0.42400  Biso   1.000  H
  H20      1.0000 0.05130  0.24090  0.50140  Biso   1.000  H
  C23      1.0000 0.71500  0.45600  0.00400  Biso   1.000  C
  C24      1.0000 0.81700  0.35900  0.95500  Biso   1.000  C
  O13      1.0000 0.77310  0.27830  0.84590  Biso   1.000  O
  O14      1.0000 0.94800  0.35280  0.00490  Biso   1.000  O
  O15      1.0000 0.23800  0.01780  0.79130  Biso   1.000  O
  O16      1.0000 0.99000  0.92640  0.82160  Biso   1.000  O
  O17      1.0000 0.54700  0.64170  0.24480  Biso   1.000  O
  O18      1.0000 0.72650  0.72230  0.14470  Biso   1.000  O
  O19      1.0000 0.48900  0.85120  0.03570  Biso   1.000  O
  O20      1.0000 0.22860  0.89760  0.02000  Biso   1.000  O
  O21      1.0000 0.01030  0.15510  0.65100  Biso   1.000  O
  O22      1.0000 0.27600  0.10950  0.60020  Biso   1.000  O
  O23      1.0000 0.26400  0.98270  0.27890  Biso   1.000  O
  O24      1.0000 0.51000  0.07250  0.38010  Biso   1.000  O
