data_image0
_cell_length_a       19.6065
_cell_length_b       19.6065
_cell_length_c       22.1808
_cell_angle_alpha    90
_cell_angle_beta     90
_cell_angle_gamma    90

_symmetry_space_group_name_H-M    "P 1"
_symmetry_int_tables_number       1

loop_
  _symmetry_equiv_pos_as_xyz
  'x, y, z'

loop_
  _atom_site_label
  _atom_site_occupancy
  _atom_site_fract_x
  _atom_site_fract_y
  _atom_site_fract_z
  _atom_site_thermal_displace_type
  _atom_site_B_iso_or_equiv
  _atom_site_type_symbol
  S1       1.0000 0.10739  0.96119  0.43858  Biso   1.000  S
  C1       1.0000 0.08265  0.96845  0.36850  Biso   1.000  C
  N1       1.0000 0.06556  0.97137  0.31835  Biso   1.000  N
  S2       1.0000 0.10679  0.84415  0.11317  Biso   1.000  S
  C2       1.0000 0.08149  0.90941  0.15337  Biso   1.000  C
  N2       1.0000 0.06550  0.95640  0.18158  Biso   1.000  N
  S3       1.0000 0.07477  0.23083  0.21185  Biso   1.000  S
  C3       1.0000 0.05813  0.15184  0.22998  Biso   1.000  C
  N3       1.0000 0.04750  0.09596  0.24354  Biso   1.000  N
  S4       1.0000 0.60739  0.46119  0.93858  Biso   1.000  S
  C4       1.0000 0.58265  0.46845  0.86850  Biso   1.000  C
  N4       1.0000 0.56556  0.47137  0.81835  Biso   1.000  N
  S5       1.0000 0.60679  0.34415  0.61317  Biso   1.000  S
  C5       1.0000 0.58149  0.40941  0.65337  Biso   1.000  C
  N5       1.0000 0.56550  0.45640  0.68158  Biso   1.000  N
  S6       1.0000 0.57477  0.73083  0.71185  Biso   1.000  S
  C6       1.0000 0.55813  0.65184  0.72998  Biso   1.000  C
  N6       1.0000 0.54750  0.59596  0.74354  Biso   1.000  N
  S7       1.0000 0.89261  0.03881  0.43858  Biso   1.000  S
  C7       1.0000 0.91735  0.03155  0.36850  Biso   1.000  C
  N7       1.0000 0.93444  0.02863  0.31835  Biso   1.000  N
  S8       1.0000 0.89321  0.15585  0.11317  Biso   1.000  S
  C8       1.0000 0.91851  0.09059  0.15337  Biso   1.000  C
  N8       1.0000 0.93450  0.04360  0.18158  Biso   1.000  N
  S9       1.0000 0.92523  0.76917  0.21185  Biso   1.000  S
  C9       1.0000 0.94187  0.84816  0.22998  Biso   1.000  C
  N9       1.0000 0.95250  0.90404  0.24354  Biso   1.000  N
  S10      1.0000 0.39261  0.53881  0.93858  Biso   1.000  S
  C10      1.0000 0.41735  0.53155  0.86850  Biso   1.000  C
  N10      1.0000 0.43444  0.52863  0.81835  Biso   1.000  N
  S11      1.0000 0.39321  0.65585  0.61317  Biso   1.000  S
  C11      1.0000 0.41851  0.59059  0.65337  Biso   1.000  C
  N11      1.0000 0.43450  0.54360  0.68158  Biso   1.000  N
  S12      1.0000 0.42523  0.26917  0.71185  Biso   1.000  S
  C12      1.0000 0.44187  0.34816  0.72998  Biso   1.000  C
  N12      1.0000 0.45250  0.40404  0.74354  Biso   1.000  N
  S13      1.0000 0.96119  0.89261  0.56142  Biso   1.000  S
  C13      1.0000 0.96845  0.91735  0.63150  Biso   1.000  C
  N13      1.0000 0.97137  0.93444  0.68165  Biso   1.000  N
  S14      1.0000 0.84415  0.89321  0.88683  Biso   1.000  S
  C14      1.0000 0.90941  0.91851  0.84663  Biso   1.000  C
  N14      1.0000 0.95640  0.93450  0.81842  Biso   1.000  N
  S15      1.0000 0.23083  0.92523  0.78815  Biso   1.000  S
  C15      1.0000 0.15184  0.94187  0.77002  Biso   1.000  C
  N15      1.0000 0.09596  0.95250  0.75646  Biso   1.000  N
  S16      1.0000 0.46119  0.39261  0.06142  Biso   1.000  S
  C16      1.0000 0.46845  0.41735  0.13150  Biso   1.000  C
  N16      1.0000 0.47137  0.43444  0.18165  Biso   1.000  N
  S17      1.0000 0.34415  0.39321  0.38683  Biso   1.000  S
  C17      1.0000 0.40941  0.41851  0.34663  Biso   1.000  C
  N17      1.0000 0.45640  0.43450  0.31842  Biso   1.000  N
  S18      1.0000 0.73083  0.42523  0.28815  Biso   1.000  S
  C18      1.0000 0.65184  0.44187  0.27002  Biso   1.000  C
  N18      1.0000 0.59596  0.45250  0.25646  Biso   1.000  N
  S19      1.0000 0.03881  0.10739  0.56142  Biso   1.000  S
  C19      1.0000 0.03155  0.08265  0.63150  Biso   1.000  C
  N19      1.0000 0.02863  0.06556  0.68165  Biso   1.000  N
  S20      1.0000 0.15585  0.10679  0.88683  Biso   1.000  S
  C20      1.0000 0.09059  0.08149  0.84663  Biso   1.000  C
  N20      1.0000 0.04360  0.06550  0.81842  Biso   1.000  N
  S21      1.0000 0.76917  0.07477  0.78815  Biso   1.000  S
  C21      1.0000 0.84816  0.05813  0.77002  Biso   1.000  C
  N21      1.0000 0.90404  0.04750  0.75646  Biso   1.000  N
  S22      1.0000 0.53881  0.60739  0.06142  Biso   1.000  S
  C22      1.0000 0.53155  0.58265  0.13150  Biso   1.000  C
  N22      1.0000 0.52863  0.56556  0.18165  Biso   1.000  N
  S23      1.0000 0.65585  0.60679  0.38683  Biso   1.000  S
  C23      1.0000 0.59059  0.58149  0.34663  Biso   1.000  C
  N23      1.0000 0.54360  0.56550  0.31842  Biso   1.000  N
  S24      1.0000 0.26917  0.57477  0.28815  Biso   1.000  S
  C24      1.0000 0.34816  0.55813  0.27002  Biso   1.000  C
  N24      1.0000 0.40404  0.54750  0.25646  Biso   1.000  N
  S25      1.0000 0.39261  0.96119  0.31142  Biso   1.000  S
  C25      1.0000 0.41735  0.96845  0.38150  Biso   1.000  C
  N25      1.0000 0.43444  0.97137  0.43165  Biso   1.000  N
  S26      1.0000 0.39321  0.84415  0.63683  Biso   1.000  S
  C26      1.0000 0.41851  0.90941  0.59663  Biso   1.000  C
  N26      1.0000 0.43450  0.95640  0.56842  Biso   1.000  N
  S27      1.0000 0.42523  0.23083  0.53815  Biso   1.000  S
  C27      1.0000 0.44187  0.15184  0.52002  Biso   1.000  C
  N27      1.0000 0.45250  0.09596  0.50646  Biso   1.000  N
  S28      1.0000 0.89261  0.46119  0.81142  Biso   1.000  S
  C28      1.0000 0.91735  0.46845  0.88150  Biso   1.000  C
  N28      1.0000 0.93444  0.47137  0.93165  Biso   1.000  N
  S29      1.0000 0.89321  0.34415  0.13683  Biso   1.000  S
  C29      1.0000 0.91851  0.40941  0.09663  Biso   1.000  C
  N29      1.0000 0.93450  0.45640  0.06842  Biso   1.000  N
  S30      1.0000 0.92523  0.73083  0.03815  Biso   1.000  S
  C30      1.0000 0.94187  0.65184  0.02002  Biso   1.000  C
  N30      1.0000 0.95250  0.59596  0.00646  Biso   1.000  N
  S31      1.0000 0.60739  0.03881  0.31142  Biso   1.000  S
  C31      1.0000 0.58265  0.03155  0.38150  Biso   1.000  C
  N31      1.0000 0.56556  0.02863  0.43165  Biso   1.000  N
  S32      1.0000 0.60679  0.15585  0.63683  Biso   1.000  S
  C32      1.0000 0.58149  0.09059  0.59663  Biso   1.000  C
  N32      1.0000 0.56550  0.04360  0.56842  Biso   1.000  N
  S33      1.0000 0.57477  0.76917  0.53815  Biso   1.000  S
  C33      1.0000 0.55813  0.84816  0.52002  Biso   1.000  C
  N33      1.0000 0.54750  0.90404  0.50646  Biso   1.000  N
  S34      1.0000 0.10739  0.53881  0.81142  Biso   1.000  S
  C34      1.0000 0.08265  0.53155  0.88150  Biso   1.000  C
  N34      1.0000 0.06556  0.52863  0.93165  Biso   1.000  N
  S35      1.0000 0.10679  0.65585  0.13683  Biso   1.000  S
  C35      1.0000 0.08149  0.59059  0.09663  Biso   1.000  C
  N35      1.0000 0.06550  0.54360  0.06842  Biso   1.000  N
  S36      1.0000 0.07477  0.26917  0.03815  Biso   1.000  S
  C36      1.0000 0.05813  0.34816  0.02002  Biso   1.000  C
  N36      1.0000 0.04750  0.40404  0.00646  Biso   1.000  N
  S37      1.0000 0.53881  0.89261  0.18858  Biso   1.000  S
  C37      1.0000 0.53155  0.91735  0.11850  Biso   1.000  C
  N37      1.0000 0.52863  0.93444  0.06835  Biso   1.000  N
  S38      1.0000 0.65585  0.89321  0.86317  Biso   1.000  S
  C38      1.0000 0.59059  0.91851  0.90337  Biso   1.000  C
  N38      1.0000 0.54360  0.93450  0.93158  Biso   1.000  N
  S39      1.0000 0.26917  0.92523  0.96185  Biso   1.000  S
  C39      1.0000 0.34816  0.94187  0.97998  Biso   1.000  C
  N39      1.0000 0.40404  0.95250  0.99354  Biso   1.000  N
  S40      1.0000 0.03881  0.39261  0.68858  Biso   1.000  S
  C40      1.0000 0.03155  0.41735  0.61850  Biso   1.000  C
  N40      1.0000 0.02863  0.43444  0.56835  Biso   1.000  N
  S41      1.0000 0.15585  0.39321  0.36317  Biso   1.000  S
  C41      1.0000 0.09059  0.41851  0.40337  Biso   1.000  C
  N41      1.0000 0.04360  0.43450  0.43158  Biso   1.000  N
  S42      1.0000 0.76917  0.42523  0.46185  Biso   1.000  S
  C42      1.0000 0.84816  0.44187  0.47998  Biso   1.000  C
  N42      1.0000 0.90404  0.45250  0.49354  Biso   1.000  N
  S43      1.0000 0.46119  0.10739  0.18858  Biso   1.000  S
  C43      1.0000 0.46845  0.08265  0.11850  Biso   1.000  C
  N43      1.0000 0.47137  0.06556  0.06835  Biso   1.000  N
  S44      1.0000 0.34415  0.10679  0.86317  Biso   1.000  S
  C44      1.0000 0.40941  0.08149  0.90337  Biso   1.000  C
  N44      1.0000 0.45640  0.06550  0.93158  Biso   1.000  N
  S45      1.0000 0.73083  0.07477  0.96185  Biso   1.000  S
  C45      1.0000 0.65184  0.05813  0.97998  Biso   1.000  C
  N45      1.0000 0.59596  0.04750  0.99354  Biso   1.000  N
  S46      1.0000 0.96119  0.60739  0.68858  Biso   1.000  S
  C46      1.0000 0.96845  0.58265  0.61850  Biso   1.000  C
  N46      1.0000 0.97137  0.56556  0.56835  Biso   1.000  N
  S47      1.0000 0.84415  0.60679  0.36317  Biso   1.000  S
  C47      1.0000 0.90941  0.58149  0.40337  Biso   1.000  C
  N47      1.0000 0.95640  0.56550  0.43158  Biso   1.000  N
  S48      1.0000 0.23083  0.57477  0.46185  Biso   1.000  S
  C48      1.0000 0.15184  0.55813  0.47998  Biso   1.000  C
  N48      1.0000 0.09596  0.54750  0.49354  Biso   1.000  N
  Fe1      1.0000 0.00000  0.00000  0.24728  Biso   1.000  Fe
  Fe2      1.0000 0.50000  0.50000  0.74728  Biso   1.000  Fe
  Fe3      1.0000 0.00000  0.00000  0.75272  Biso   1.000  Fe
  Fe4      1.0000 0.50000  0.50000  0.25272  Biso   1.000  Fe
  Fe5      1.0000 0.50000  0.00000  0.50272  Biso   1.000  Fe
  Fe6      1.0000 0.00000  0.50000  0.00272  Biso   1.000  Fe
  Fe7      1.0000 0.50000  0.00000  0.99728  Biso   1.000  Fe
  Fe8      1.0000 0.00000  0.50000  0.49728  Biso   1.000  Fe
  Ag1      1.0000 0.00000  0.00000  0.50000  Biso   1.000  Ag
  Ag2      1.0000 0.50000  0.50000  0.00000  Biso   1.000  Ag
  Ag3      1.0000 0.50000  0.00000  0.25000  Biso   1.000  Ag
  Ag4      1.0000 0.00000  0.50000  0.75000  Biso   1.000  Ag
  Ag5      1.0000 0.01364  0.75000  0.12500  Biso   1.000  Ag
  Ag6      1.0000 0.98636  0.25000  0.12500  Biso   1.000  Ag
  Ag7      1.0000 0.75000  0.98636  0.87500  Biso   1.000  Ag
  Ag8      1.0000 0.25000  0.48636  0.37500  Biso   1.000  Ag
  Ag9      1.0000 0.25000  0.01364  0.87500  Biso   1.000  Ag
  Ag10     1.0000 0.75000  0.51364  0.37500  Biso   1.000  Ag
  Ag11     1.0000 0.48636  0.75000  0.62500  Biso   1.000  Ag
  Ag12     1.0000 0.51364  0.25000  0.62500  Biso   1.000  Ag
