data_TEBCEK_clean
_audit_creation_date              2014-07-02
_audit_creation_method            'Materials Studio'
_symmetry_space_group_name_H-M    'P1'
_symmetry_Int_Tables_number       1
_symmetry_cell_setting            triclinic
loop_
_symmetry_equiv_pos_as_xyz
  x,y,z
_cell_length_a                    9.1410
_cell_length_b                    9.6670
_cell_length_c                    13.8550
_cell_angle_alpha                 100.8300
_cell_angle_beta                  90.8100
_cell_angle_gamma                 100.9400
loop_
_atom_site_label
_atom_site_type_symbol
_atom_site_fract_x
_atom_site_fract_y
_atom_site_fract_z
_atom_site_U_iso_or_equiv
_atom_site_adp_type
_atom_site_occupancy
Co1    Co    0.84945   0.03944   0.26753   0.01267  Uiso   1.00
Co2    Co    0.15055   0.96056   0.73247   0.01267  Uiso   1.00
Co3    Co    0.00000   0.00000   0.50000   0.01267  Uiso   1.00
H1     H     0.45960   0.20270   0.19700   0.01267  Uiso   1.00
H2     H     0.58940   0.31620   0.16800   0.01267  Uiso   1.00
H3     H     0.16310   0.06610   0.15160   0.01267  Uiso   1.00
H4     H     0.20010   0.89940   0.00150   0.01267  Uiso   1.00
H5     H     0.79910   0.76950   0.09630   0.01267  Uiso   1.00
H6     H     0.73620   0.65690   0.93100   0.01267  Uiso   1.00
H7     H     0.68270   0.44360   0.81590   0.01267  Uiso   1.00
H8     H     0.11830   0.42860   0.81330   0.01267  Uiso   1.00
H9     H     0.17120   0.63960   0.93050   0.01267  Uiso   1.00
H10    H     0.65160   0.17880   0.76610   0.01267  Uiso   1.00
H11    H     0.68330   0.98640   0.63110   0.01267  Uiso   1.00
H12    H     0.04160   0.28630   0.65330   0.01267  Uiso   1.00
H13    H     0.67470   0.78060   0.48600   0.01267  Uiso   1.00
H14    H     0.53760   0.84240   0.45770   0.01267  Uiso   1.00
H15    H     0.68710   0.54880   0.33140   0.01267  Uiso   1.00
H16    H     0.31160   0.25930   0.31840   0.01267  Uiso   1.00
H17    H     0.32660   0.66500   0.45100   0.01267  Uiso   1.00
H18    H     0.12610   0.46370   0.48380   0.01267  Uiso   1.00
H19    H     0.07480   0.47050   0.37680   0.01267  Uiso   1.00
H20    H     0.54040   0.79730   0.80300   0.01267  Uiso   1.00
H21    H     0.41060   0.68380   0.83200   0.01267  Uiso   1.00
H22    H     0.83690   0.93390   0.84840   0.01267  Uiso   1.00
H23    H     0.79990   0.10060   0.99850   0.01267  Uiso   1.00
H24    H     0.20090   0.23050   0.90370   0.01267  Uiso   1.00
H25    H     0.26380   0.34310   0.06900   0.01267  Uiso   1.00
H26    H     0.31730   0.55640   0.18410   0.01267  Uiso   1.00
H27    H     0.88170   0.57140   0.18670   0.01267  Uiso   1.00
H28    H     0.82880   0.36040   0.06950   0.01267  Uiso   1.00
H29    H     0.34840   0.82120   0.23390   0.01267  Uiso   1.00
H30    H     0.31670   0.01360   0.36890   0.01267  Uiso   1.00
H31    H     0.95840   0.71370   0.34670   0.01267  Uiso   1.00
H32    H     0.32530   0.21940   0.51400   0.01267  Uiso   1.00
H33    H     0.46240   0.15760   0.54230   0.01267  Uiso   1.00
H34    H     0.31290   0.45120   0.66860   0.01267  Uiso   1.00
H35    H     0.68840   0.74070   0.68160   0.01267  Uiso   1.00
H36    H     0.67340   0.33500   0.54900   0.01267  Uiso   1.00
H37    H     0.87390   0.53630   0.51620   0.01267  Uiso   1.00
H38    H     0.92520   0.52950   0.62320   0.01267  Uiso   1.00
C1     C     0.54780   0.27290   0.22100   0.01267  Uiso   1.00
C2     C     0.09440   0.98500   0.12160   0.01267  Uiso   1.00
C3     C     0.11580   0.89350   0.03860   0.01267  Uiso   1.00
C4     C     0.89400   0.82270   0.09190   0.01267  Uiso   1.00
C5     C     0.95730   0.66550   0.94300   0.01267  Uiso   1.00
C6     C     0.81240   0.60970   0.90830   0.01267  Uiso   1.00
C7     C     0.78060   0.48260   0.83920   0.01267  Uiso   1.00
C8     C     0.89470   0.41440   0.80510   0.01267  Uiso   1.00
C9     C     0.04160   0.47350   0.83800   0.01267  Uiso   1.00
C10    C     0.07330   0.59960   0.90770   0.01267  Uiso   1.00
C11    C     0.73380   0.17710   0.72740   0.01267  Uiso   1.00
C12    C     0.75210   0.07130   0.65260   0.01267  Uiso   1.00
C13    C     0.94860   0.23490   0.66430   0.01267  Uiso   1.00
C14    C     0.69740   0.85390   0.35860   0.01267  Uiso   1.00
C15    C     0.60750   0.78250   0.43170   0.01267  Uiso   1.00
C16    C     0.52090   0.63260   0.39590   0.01267  Uiso   1.00
C17    C     0.58720   0.52640   0.34570   0.01267  Uiso   1.00
C18    C     0.51040   0.38860   0.31610   0.01267  Uiso   1.00
C19    C     0.36370   0.35330   0.33800   0.01267  Uiso   1.00
C20    C     0.29360   0.45590   0.38860   0.01267  Uiso   1.00
C21    C     0.37370   0.59490   0.41680   0.01267  Uiso   1.00
C22    C     0.13270   0.42320   0.41480   0.01267  Uiso   1.00
C23    C     0.06400   0.26530   0.39680   0.01267  Uiso   1.00
C24    C     0.66030   0.20200   0.26290   0.01267  Uiso   1.00
C25    C     0.45220   0.72710   0.77900   0.01267  Uiso   1.00
C26    C     0.90560   0.01500   0.87840   0.01267  Uiso   1.00
C27    C     0.88420   0.10650   0.96140   0.01267  Uiso   1.00
C28    C     0.10600   0.17730   0.90810   0.01267  Uiso   1.00
C29    C     0.04270   0.33450   0.05700   0.01267  Uiso   1.00
C30    C     0.18760   0.39030   0.09170   0.01267  Uiso   1.00
C31    C     0.21940   0.51740   0.16080   0.01267  Uiso   1.00
C32    C     0.10530   0.58560   0.19490   0.01267  Uiso   1.00
C33    C     0.95840   0.52650   0.16200   0.01267  Uiso   1.00
C34    C     0.92670   0.40040   0.09230   0.01267  Uiso   1.00
C35    C     0.26620   0.82290   0.27260   0.01267  Uiso   1.00
C36    C     0.24790   0.92870   0.34740   0.01267  Uiso   1.00
C37    C     0.05140   0.76510   0.33570   0.01267  Uiso   1.00
C38    C     0.30260   0.14610   0.64140   0.01267  Uiso   1.00
C39    C     0.39250   0.21750   0.56830   0.01267  Uiso   1.00
C40    C     0.47910   0.36740   0.60410   0.01267  Uiso   1.00
C41    C     0.41280   0.47360   0.65430   0.01267  Uiso   1.00
C42    C     0.48960   0.61140   0.68390   0.01267  Uiso   1.00
C43    C     0.63630   0.64670   0.66200   0.01267  Uiso   1.00
C44    C     0.70640   0.54410   0.61140   0.01267  Uiso   1.00
C45    C     0.62630   0.40510   0.58320   0.01267  Uiso   1.00
C46    C     0.86730   0.57680   0.58520   0.01267  Uiso   1.00
C47    C     0.93600   0.73470   0.60320   0.01267  Uiso   1.00
C48    C     0.33970   0.79800   0.73710   0.01267  Uiso   1.00
N1     N     0.95510   0.93980   0.15480   0.01267  Uiso   1.00
N2     N     0.98740   0.78980   0.02010   0.01267  Uiso   1.00
N3     N     0.86020   0.28160   0.73530   0.01267  Uiso   1.00
N4     N     0.88790   0.10810   0.61270   0.01267  Uiso   1.00
N5     N     0.04490   0.06020   0.84520   0.01267  Uiso   1.00
N6     N     0.01260   0.21020   0.97990   0.01267  Uiso   1.00
N7     N     0.13980   0.71840   0.26470   0.01267  Uiso   1.00
N8     N     0.11210   0.89190   0.38730   0.01267  Uiso   1.00
O1     O     0.80600   0.95990   0.39200   0.01267  Uiso   1.00
O2     O     0.66920   0.81900   0.26920   0.01267  Uiso   1.00
O3     O     0.07460   0.19940   0.46500   0.01267  Uiso   1.00
O4     O     0.00240   0.21150   0.31390   0.01267  Uiso   1.00
O5     O     0.68900   0.09200   0.18190   0.01267  Uiso   1.00
O6     O     0.70030   0.22530   0.34530   0.01267  Uiso   1.00
O7     O     0.19400   0.04010   0.60800   0.01267  Uiso   1.00
O8     O     0.33080   0.18100   0.73080   0.01267  Uiso   1.00
O9     O     0.92540   0.80060   0.53500   0.01267  Uiso   1.00
O10    O     0.99760   0.78850   0.68610   0.01267  Uiso   1.00
O11    O     0.31100   0.90800   0.81810   0.01267  Uiso   1.00
O12    O     0.29970   0.77470   0.65470   0.01267  Uiso   1.00
