data_TECVEE_clean
_audit_creation_date              2014-07-02
_audit_creation_method            'Materials Studio'
_symmetry_space_group_name_H-M    'P1'
_symmetry_Int_Tables_number       1
_symmetry_cell_setting            triclinic
loop_
_symmetry_equiv_pos_as_xyz
  x,y,z
_cell_length_a                    10.3322
_cell_length_b                    10.3322
_cell_length_c                    18.9810
_cell_angle_alpha                 81.0900
_cell_angle_beta                  81.0900
_cell_angle_gamma                 82.4101
loop_
_atom_site_label
_atom_site_type_symbol
_atom_site_fract_x
_atom_site_fract_y
_atom_site_fract_z
_atom_site_U_iso_or_equiv
_atom_site_adp_type
_atom_site_occupancy
Ca1    Ca    0.07677   0.85235   0.06595   0.01267  Uiso   1.00
Ca2    Ca    0.14765   0.92323   0.43405   0.01267  Uiso   1.00
Ca3    Ca    0.92323   0.14765   0.93405   0.01267  Uiso   1.00
Ca4    Ca    0.85235   0.07677   0.56595   0.01267  Uiso   1.00
Ca5    Ca    0.19807   0.80193   0.25000   0.01267  Uiso   1.00
Ca6    Ca    0.80193   0.19807   0.75000   0.01267  Uiso   1.00
H1     H     0.63590   0.81890   0.22860   0.01267  Uiso   1.00
H2     H     0.55990   0.88390   0.43480   0.01267  Uiso   1.00
H3     H     0.38020   0.13160   0.15480   0.01267  Uiso   1.00
H4     H     0.52690   0.08050   0.12870   0.01267  Uiso   1.00
H5     H     0.44610   0.00010   0.19380   0.01267  Uiso   1.00
H6     H     0.91990   0.92730   0.32200   0.01267  Uiso   1.00
H7     H     0.50620   0.77960   0.13470   0.01267  Uiso   1.00
H8     H     0.59610   0.86310   0.07550   0.01267  Uiso   1.00
H9     H     0.50020   0.77620   0.05300   0.01267  Uiso   1.00
H10    H     0.18110   0.36410   0.27140   0.01267  Uiso   1.00
H11    H     0.11610   0.44010   0.06520   0.01267  Uiso   1.00
H12    H     0.86840   0.61980   0.34520   0.01267  Uiso   1.00
H13    H     0.91950   0.47310   0.37130   0.01267  Uiso   1.00
H14    H     0.99990   0.55390   0.30620   0.01267  Uiso   1.00
H15    H     0.07270   0.08010   0.17800   0.01267  Uiso   1.00
H16    H     0.22040   0.49380   0.36530   0.01267  Uiso   1.00
H17    H     0.13690   0.40390   0.42450   0.01267  Uiso   1.00
H18    H     0.22380   0.49980   0.44700   0.01267  Uiso   1.00
H19    H     0.36410   0.18110   0.77140   0.01267  Uiso   1.00
H20    H     0.44010   0.11610   0.56520   0.01267  Uiso   1.00
H21    H     0.61980   0.86840   0.84520   0.01267  Uiso   1.00
H22    H     0.47310   0.91950   0.87130   0.01267  Uiso   1.00
H23    H     0.55390   0.99990   0.80620   0.01267  Uiso   1.00
H24    H     0.08010   0.07270   0.67800   0.01267  Uiso   1.00
H25    H     0.49380   0.22040   0.86530   0.01267  Uiso   1.00
H26    H     0.40390   0.13690   0.92450   0.01267  Uiso   1.00
H27    H     0.49980   0.22380   0.94700   0.01267  Uiso   1.00
H28    H     0.81890   0.63590   0.72860   0.01267  Uiso   1.00
H29    H     0.88390   0.55990   0.93480   0.01267  Uiso   1.00
H30    H     0.13160   0.38020   0.65480   0.01267  Uiso   1.00
H31    H     0.08050   0.52690   0.62870   0.01267  Uiso   1.00
H32    H     0.00010   0.44610   0.69380   0.01267  Uiso   1.00
H33    H     0.92730   0.91990   0.82200   0.01267  Uiso   1.00
H34    H     0.77960   0.50620   0.63470   0.01267  Uiso   1.00
H35    H     0.86310   0.59610   0.57550   0.01267  Uiso   1.00
H36    H     0.77620   0.50020   0.55300   0.01267  Uiso   1.00
C1     C     0.88440   0.87100   0.19350   0.01267  Uiso   1.00
C2     C     0.66400   0.84240   0.26870   0.01267  Uiso   1.00
C3     C     0.43640   0.81420   0.33540   0.01267  Uiso   1.00
C4     C     0.74850   0.91010   0.38870   0.01267  Uiso   1.00
C5     C     0.57700   0.84400   0.33190   0.01267  Uiso   1.00
C6     C     0.79170   0.87450   0.26320   0.01267  Uiso   1.00
C7     C     0.61820   0.88000   0.39240   0.01267  Uiso   1.00
C8     C     0.44120   0.05460   0.14820   0.01267  Uiso   1.00
C9     C     0.83400   0.90720   0.32440   0.01267  Uiso   1.00
C10    C     0.79330   0.94890   0.45390   0.01267  Uiso   1.00
C11    C     0.51150   0.83070   0.08770   0.01267  Uiso   1.00
C12    C     0.12900   0.11560   0.30650   0.01267  Uiso   1.00
C13    C     0.15760   0.33600   0.23130   0.01267  Uiso   1.00
C14    C     0.18580   0.56360   0.16460   0.01267  Uiso   1.00
C15    C     0.08990   0.25150   0.11130   0.01267  Uiso   1.00
C16    C     0.15600   0.42300   0.16810   0.01267  Uiso   1.00
C17    C     0.12550   0.20830   0.23680   0.01267  Uiso   1.00
C18    C     0.12000   0.38180   0.10760   0.01267  Uiso   1.00
C19    C     0.94540   0.55880   0.35180   0.01267  Uiso   1.00
C20    C     0.09280   0.16600   0.17560   0.01267  Uiso   1.00
C21    C     0.05110   0.20670   0.04610   0.01267  Uiso   1.00
C22    C     0.16930   0.48850   0.41230   0.01267  Uiso   1.00
C23    C     0.11560   0.12900   0.80650   0.01267  Uiso   1.00
C24    C     0.33600   0.15760   0.73130   0.01267  Uiso   1.00
C25    C     0.56360   0.18580   0.66460   0.01267  Uiso   1.00
C26    C     0.25150   0.08990   0.61130   0.01267  Uiso   1.00
C27    C     0.42300   0.15600   0.66810   0.01267  Uiso   1.00
C28    C     0.20830   0.12550   0.73680   0.01267  Uiso   1.00
C29    C     0.38180   0.12000   0.60760   0.01267  Uiso   1.00
C30    C     0.55880   0.94540   0.85180   0.01267  Uiso   1.00
C31    C     0.16600   0.09280   0.67560   0.01267  Uiso   1.00
C32    C     0.20670   0.05110   0.54610   0.01267  Uiso   1.00
C33    C     0.48850   0.16930   0.91230   0.01267  Uiso   1.00
C34    C     0.87100   0.88440   0.69350   0.01267  Uiso   1.00
C35    C     0.84240   0.66400   0.76870   0.01267  Uiso   1.00
C36    C     0.81420   0.43640   0.83540   0.01267  Uiso   1.00
C37    C     0.91010   0.74850   0.88870   0.01267  Uiso   1.00
C38    C     0.84400   0.57700   0.83190   0.01267  Uiso   1.00
C39    C     0.87450   0.79170   0.76320   0.01267  Uiso   1.00
C40    C     0.88000   0.61820   0.89240   0.01267  Uiso   1.00
C41    C     0.05460   0.44120   0.64820   0.01267  Uiso   1.00
C42    C     0.90720   0.83400   0.82440   0.01267  Uiso   1.00
C43    C     0.94890   0.79330   0.95390   0.01267  Uiso   1.00
C44    C     0.83070   0.51150   0.58770   0.01267  Uiso   1.00
S1     S     0.38670   0.96456   0.08782   0.01267  Uiso   1.00
S2     S     0.03544   0.61330   0.41218   0.01267  Uiso   1.00
S3     S     0.61330   0.03544   0.91218   0.01267  Uiso   1.00
S4     S     0.96456   0.38670   0.58782   0.01267  Uiso   1.00
O1     O     0.00700   0.84940   0.19698   0.01267  Uiso   1.00
O2     O     0.91510   0.95290   0.45426   0.01267  Uiso   1.00
O3     O     0.26500   0.90460   0.12915   0.01267  Uiso   1.00
O4     O     0.35880   0.82340   0.39210   0.01267  Uiso   1.00
O5     O     0.70840   0.97780   0.50500   0.01267  Uiso   1.00
O6     O     0.84000   0.88740   0.13441   0.01267  Uiso   1.00
O7     O     0.40760   0.78260   0.27820   0.01267  Uiso   1.00
O8     O     0.15060   0.99300   0.30302   0.01267  Uiso   1.00
O9     O     0.04710   0.08490   0.04574   0.01267  Uiso   1.00
O10    O     0.09540   0.73500   0.37085   0.01267  Uiso   1.00
O11    O     0.17660   0.64120   0.10790   0.01267  Uiso   1.00
O12    O     0.02220   0.29160   0.99500   0.01267  Uiso   1.00
O13    O     0.11260   0.16000   0.36559   0.01267  Uiso   1.00
O14    O     0.21740   0.59240   0.22180   0.01267  Uiso   1.00
O15    O     0.99300   0.15060   0.80302   0.01267  Uiso   1.00
O16    O     0.08490   0.04710   0.54574   0.01267  Uiso   1.00
O17    O     0.73500   0.09540   0.87085   0.01267  Uiso   1.00
O18    O     0.64120   0.17660   0.60790   0.01267  Uiso   1.00
O19    O     0.29160   0.02220   0.49500   0.01267  Uiso   1.00
O20    O     0.16000   0.11260   0.86559   0.01267  Uiso   1.00
O21    O     0.59240   0.21740   0.72180   0.01267  Uiso   1.00
O22    O     0.84940   0.00700   0.69698   0.01267  Uiso   1.00
O23    O     0.95290   0.91510   0.95426   0.01267  Uiso   1.00
O24    O     0.90460   0.26500   0.62915   0.01267  Uiso   1.00
O25    O     0.82340   0.35880   0.89210   0.01267  Uiso   1.00
O26    O     0.97780   0.70840   0.00500   0.01267  Uiso   1.00
O27    O     0.88740   0.84000   0.63441   0.01267  Uiso   1.00
O28    O     0.78260   0.40760   0.77820   0.01267  Uiso   1.00
