data_image0
_cell_length_a       16.2244
_cell_length_b       20.9869
_cell_length_c       12.8491
_cell_angle_alpha    90
_cell_angle_beta     90
_cell_angle_gamma    90

_symmetry_space_group_name_H-M    "P 1"
_symmetry_int_tables_number       1

loop_
  _symmetry_equiv_pos_as_xyz
  'x, y, z'

loop_
  _atom_site_label
  _atom_site_occupancy
  _atom_site_fract_x
  _atom_site_fract_y
  _atom_site_fract_z
  _atom_site_thermal_displace_type
  _atom_site_B_iso_or_equiv
  _atom_site_type_symbol
  Co1      1.0000 0.66923  0.19686  0.02582  Biso   1.000  Co
  C1       1.0000 0.77160  0.28260  0.11860  Biso   1.000  C
  C2       1.0000 0.85290  0.30881  0.15160  Biso   1.000  C
  C3       1.0000 0.92540  0.28231  0.11290  Biso   1.000  C
  H1       1.0000 0.92310  0.24860  0.06360  Biso   1.000  H
  C4       1.0000 0.00050  0.30527  0.14660  Biso   1.000  C
  C5       1.0000 0.00280  0.35460  0.21890  Biso   1.000  C
  H2       1.0000 0.05470  0.36990  0.24230  Biso   1.000  H
  C6       1.0000 0.93150  0.38220  0.25770  Biso   1.000  C
  C7       1.0000 0.85660  0.35770  0.22370  Biso   1.000  C
  H3       1.0000 0.80690  0.37500  0.25060  Biso   1.000  H
  C8       1.0000 0.07800  0.27680  0.10700  Biso   1.000  C
  C9       1.0000 0.93470  0.43660  0.33670  Biso   1.000  C
  C10      1.0000 0.94530  0.40750  0.44070  Biso   1.000  C
  H4       1.0000 0.94760  0.44110  0.49350  Biso   1.000  H
  H5       1.0000 0.99660  0.38290  0.44220  Biso   1.000  H
  H6       1.0000 0.89870  0.37920  0.45530  Biso   1.000  H
  C11      1.0000 0.85830  0.47490  0.34060  Biso   1.000  C
  H7       1.0000 0.84990  0.49610  0.27340  Biso   1.000  H
  H8       1.0000 0.86300  0.50710  0.39560  Biso   1.000  H
  H9       1.0000 0.81130  0.44700  0.35530  Biso   1.000  H
  C12      1.0000 0.00570  0.47880  0.31800  Biso   1.000  C
  H10      1.0000 0.99990  0.49920  0.24970  Biso   1.000  H
  H11      1.0000 0.05670  0.45370  0.31950  Biso   1.000  H
  H12      1.0000 0.00780  0.51160  0.37220  Biso   1.000  H
  C13      1.0000 0.22020  0.11644  0.12140  Biso   1.000  C
  C14      1.0000 0.23800  0.05592  0.17910  Biso   1.000  C
  C15      1.0000 0.23830  0.05590  0.28660  Biso   1.000  C
  H13      1.0000 0.23030  0.09480  0.32290  Biso   1.000  H
  C16      1.0000 0.22830  0.05450  0.50910  Biso   1.000  C
  H14      1.0000 0.23050  0.04960  0.58490  Biso   1.000  H
  H15      1.0000 0.17220  0.06590  0.48800  Biso   1.000  H
  H16      1.0000 0.26640  0.08830  0.48770  Biso   1.000  H
  O1       1.0000 0.70650  0.30049  0.15870  Biso   1.000  O
  O2       1.0000 0.77364  0.24084  0.04620  Biso   1.000  O
  O3       1.0000 0.07199  0.24025  0.02790  Biso   1.000  O
  O4       1.0000 0.14430  0.28889  0.15110  Biso   1.000  O
  O5       1.0000 0.19430  0.11226  0.03020  Biso   1.000  O
  O6       1.0000 0.23140  0.16818  0.16420  Biso   1.000  O
  Co2      1.0000 0.83077  0.80314  0.02582  Biso   1.000  Co
  C17      1.0000 0.72840  0.71740  0.11860  Biso   1.000  C
  C18      1.0000 0.64710  0.69119  0.15160  Biso   1.000  C
  C19      1.0000 0.57460  0.71769  0.11290  Biso   1.000  C
  H17      1.0000 0.57690  0.75140  0.06360  Biso   1.000  H
  C20      1.0000 0.49950  0.69473  0.14660  Biso   1.000  C
  C21      1.0000 0.49720  0.64540  0.21890  Biso   1.000  C
  H18      1.0000 0.44530  0.63010  0.24230  Biso   1.000  H
  C22      1.0000 0.56850  0.61780  0.25770  Biso   1.000  C
  C23      1.0000 0.64340  0.64230  0.22370  Biso   1.000  C
  H19      1.0000 0.69310  0.62500  0.25060  Biso   1.000  H
  C24      1.0000 0.42200  0.72320  0.10700  Biso   1.000  C
  C25      1.0000 0.56530  0.56340  0.33670  Biso   1.000  C
  C26      1.0000 0.55470  0.59250  0.44070  Biso   1.000  C
  H20      1.0000 0.55240  0.55890  0.49350  Biso   1.000  H
  H21      1.0000 0.50340  0.61710  0.44220  Biso   1.000  H
  H22      1.0000 0.60130  0.62080  0.45530  Biso   1.000  H
  C27      1.0000 0.64170  0.52510  0.34060  Biso   1.000  C
  H23      1.0000 0.65010  0.50390  0.27340  Biso   1.000  H
  H24      1.0000 0.63700  0.49290  0.39560  Biso   1.000  H
  H25      1.0000 0.68870  0.55300  0.35530  Biso   1.000  H
  C28      1.0000 0.49430  0.52120  0.31800  Biso   1.000  C
  H26      1.0000 0.50010  0.50080  0.24970  Biso   1.000  H
  H27      1.0000 0.44330  0.54630  0.31950  Biso   1.000  H
  H28      1.0000 0.49220  0.48840  0.37220  Biso   1.000  H
  C29      1.0000 0.27980  0.88356  0.12140  Biso   1.000  C
  C30      1.0000 0.26200  0.94408  0.17910  Biso   1.000  C
  C31      1.0000 0.26170  0.94410  0.28660  Biso   1.000  C
  H29      1.0000 0.26970  0.90520  0.32290  Biso   1.000  H
  C32      1.0000 0.27170  0.94550  0.50910  Biso   1.000  C
  H30      1.0000 0.26950  0.95040  0.58490  Biso   1.000  H
  H31      1.0000 0.32780  0.93410  0.48800  Biso   1.000  H
  H32      1.0000 0.23360  0.91170  0.48770  Biso   1.000  H
  O7       1.0000 0.79350  0.69951  0.15870  Biso   1.000  O
  O8       1.0000 0.72636  0.75916  0.04620  Biso   1.000  O
  O9       1.0000 0.42801  0.75975  0.02790  Biso   1.000  O
  O10      1.0000 0.35570  0.71111  0.15110  Biso   1.000  O
  O11      1.0000 0.30570  0.88774  0.03020  Biso   1.000  O
  O12      1.0000 0.26860  0.83182  0.16420  Biso   1.000  O
  Co3      1.0000 0.83077  0.69686  0.47418  Biso   1.000  Co
  C33      1.0000 0.72840  0.78260  0.38140  Biso   1.000  C
  C34      1.0000 0.64710  0.80881  0.34840  Biso   1.000  C
  C35      1.0000 0.57460  0.78231  0.38710  Biso   1.000  C
  H33      1.0000 0.57690  0.74860  0.43640  Biso   1.000  H
  C36      1.0000 0.49950  0.80527  0.35340  Biso   1.000  C
  C37      1.0000 0.49720  0.85460  0.28110  Biso   1.000  C
  H34      1.0000 0.44530  0.86990  0.25770  Biso   1.000  H
  C38      1.0000 0.56850  0.88220  0.24230  Biso   1.000  C
  C39      1.0000 0.64340  0.85770  0.27630  Biso   1.000  C
  H35      1.0000 0.69310  0.87500  0.24940  Biso   1.000  H
  C40      1.0000 0.42200  0.77680  0.39300  Biso   1.000  C
  C41      1.0000 0.56530  0.93660  0.16330  Biso   1.000  C
  C42      1.0000 0.55470  0.90750  0.05930  Biso   1.000  C
  H36      1.0000 0.55240  0.94110  0.00650  Biso   1.000  H
  H37      1.0000 0.50340  0.88290  0.05780  Biso   1.000  H
  H38      1.0000 0.60130  0.87920  0.04470  Biso   1.000  H
  C43      1.0000 0.64170  0.97490  0.15940  Biso   1.000  C
  H39      1.0000 0.65010  0.99610  0.22660  Biso   1.000  H
  H40      1.0000 0.63700  0.00710  0.10440  Biso   1.000  H
  H41      1.0000 0.68870  0.94700  0.14470  Biso   1.000  H
  C44      1.0000 0.49430  0.97880  0.18200  Biso   1.000  C
  H42      1.0000 0.50010  0.99920  0.25030  Biso   1.000  H
  H43      1.0000 0.44330  0.95370  0.18050  Biso   1.000  H
  H44      1.0000 0.49220  0.01160  0.12780  Biso   1.000  H
  C45      1.0000 0.27980  0.61644  0.37860  Biso   1.000  C
  C46      1.0000 0.26200  0.55592  0.32090  Biso   1.000  C
  C47      1.0000 0.26170  0.55590  0.21340  Biso   1.000  C
  H45      1.0000 0.26970  0.59480  0.17710  Biso   1.000  H
  C48      1.0000 0.27170  0.55450  0.99090  Biso   1.000  C
  H46      1.0000 0.26950  0.54960  0.91510  Biso   1.000  H
  H47      1.0000 0.32780  0.56590  0.01200  Biso   1.000  H
  H48      1.0000 0.23360  0.58830  0.01230  Biso   1.000  H
  O13      1.0000 0.79350  0.80049  0.34130  Biso   1.000  O
  O14      1.0000 0.72636  0.74084  0.45380  Biso   1.000  O
  O15      1.0000 0.42801  0.74025  0.47210  Biso   1.000  O
  O16      1.0000 0.35570  0.78889  0.34890  Biso   1.000  O
  O17      1.0000 0.30570  0.61226  0.46980  Biso   1.000  O
  O18      1.0000 0.26860  0.66818  0.33580  Biso   1.000  O
  Co4      1.0000 0.66923  0.30314  0.47418  Biso   1.000  Co
  C49      1.0000 0.77160  0.21740  0.38140  Biso   1.000  C
  C50      1.0000 0.85290  0.19119  0.34840  Biso   1.000  C
  C51      1.0000 0.92540  0.21769  0.38710  Biso   1.000  C
  H49      1.0000 0.92310  0.25140  0.43640  Biso   1.000  H
  C52      1.0000 0.00050  0.19473  0.35340  Biso   1.000  C
  C53      1.0000 0.00280  0.14540  0.28110  Biso   1.000  C
  H50      1.0000 0.05470  0.13010  0.25770  Biso   1.000  H
  C54      1.0000 0.93150  0.11780  0.24230  Biso   1.000  C
  C55      1.0000 0.85660  0.14230  0.27630  Biso   1.000  C
  H51      1.0000 0.80690  0.12500  0.24940  Biso   1.000  H
  C56      1.0000 0.07800  0.22320  0.39300  Biso   1.000  C
  C57      1.0000 0.93470  0.06340  0.16330  Biso   1.000  C
  C58      1.0000 0.94530  0.09250  0.05930  Biso   1.000  C
  H52      1.0000 0.94760  0.05890  0.00650  Biso   1.000  H
  H53      1.0000 0.99660  0.11710  0.05780  Biso   1.000  H
  H54      1.0000 0.89870  0.12080  0.04470  Biso   1.000  H
  C59      1.0000 0.85830  0.02510  0.15940  Biso   1.000  C
  H55      1.0000 0.84990  0.00390  0.22660  Biso   1.000  H
  H56      1.0000 0.86300  0.99290  0.10440  Biso   1.000  H
  H57      1.0000 0.81130  0.05300  0.14470  Biso   1.000  H
  C60      1.0000 0.00570  0.02120  0.18200  Biso   1.000  C
  H58      1.0000 0.99990  0.00080  0.25030  Biso   1.000  H
  H59      1.0000 0.05670  0.04630  0.18050  Biso   1.000  H
  H60      1.0000 0.00780  0.98840  0.12780  Biso   1.000  H
  C61      1.0000 0.22020  0.38356  0.37860  Biso   1.000  C
  C62      1.0000 0.23800  0.44408  0.32090  Biso   1.000  C
  C63      1.0000 0.23830  0.44410  0.21340  Biso   1.000  C
  H61      1.0000 0.23030  0.40520  0.17710  Biso   1.000  H
  C64      1.0000 0.22830  0.44550  0.99090  Biso   1.000  C
  H62      1.0000 0.23050  0.45040  0.91510  Biso   1.000  H
  H63      1.0000 0.17220  0.43410  0.01200  Biso   1.000  H
  H64      1.0000 0.26640  0.41170  0.01230  Biso   1.000  H
  O19      1.0000 0.70650  0.19951  0.34130  Biso   1.000  O
  O20      1.0000 0.77364  0.25916  0.45380  Biso   1.000  O
  O21      1.0000 0.07199  0.25975  0.47210  Biso   1.000  O
  O22      1.0000 0.14430  0.21111  0.34890  Biso   1.000  O
  O23      1.0000 0.19430  0.38774  0.46980  Biso   1.000  O
  O24      1.0000 0.23140  0.33182  0.33580  Biso   1.000  O
  Co5      1.0000 0.33077  0.80314  0.97418  Biso   1.000  Co
  C65      1.0000 0.22840  0.71740  0.88140  Biso   1.000  C
  C66      1.0000 0.14710  0.69119  0.84840  Biso   1.000  C
  C67      1.0000 0.07460  0.71769  0.88710  Biso   1.000  C
  H65      1.0000 0.07690  0.75140  0.93640  Biso   1.000  H
  C68      1.0000 0.99950  0.69473  0.85340  Biso   1.000  C
  C69      1.0000 0.99720  0.64540  0.78110  Biso   1.000  C
  H66      1.0000 0.94530  0.63010  0.75770  Biso   1.000  H
  C70      1.0000 0.06850  0.61780  0.74230  Biso   1.000  C
  C71      1.0000 0.14340  0.64230  0.77630  Biso   1.000  C
  H67      1.0000 0.19310  0.62500  0.74940  Biso   1.000  H
  C72      1.0000 0.92200  0.72320  0.89300  Biso   1.000  C
  C73      1.0000 0.06530  0.56340  0.66330  Biso   1.000  C
  C74      1.0000 0.05470  0.59250  0.55930  Biso   1.000  C
  H68      1.0000 0.05240  0.55890  0.50650  Biso   1.000  H
  H69      1.0000 0.00340  0.61710  0.55780  Biso   1.000  H
  H70      1.0000 0.10130  0.62080  0.54470  Biso   1.000  H
  C75      1.0000 0.14170  0.52510  0.65940  Biso   1.000  C
  H71      1.0000 0.15010  0.50390  0.72660  Biso   1.000  H
  H72      1.0000 0.13700  0.49290  0.60440  Biso   1.000  H
  H73      1.0000 0.18870  0.55300  0.64470  Biso   1.000  H
  C76      1.0000 0.99430  0.52120  0.68200  Biso   1.000  C
  H74      1.0000 0.00010  0.50080  0.75030  Biso   1.000  H
  H75      1.0000 0.94330  0.54630  0.68050  Biso   1.000  H
  H76      1.0000 0.99220  0.48840  0.62780  Biso   1.000  H
  C77      1.0000 0.77980  0.88356  0.87860  Biso   1.000  C
  C78      1.0000 0.76200  0.94408  0.82090  Biso   1.000  C
  C79      1.0000 0.76170  0.94410  0.71340  Biso   1.000  C
  H77      1.0000 0.76970  0.90520  0.67710  Biso   1.000  H
  C80      1.0000 0.77170  0.94550  0.49090  Biso   1.000  C
  H78      1.0000 0.76950  0.95040  0.41510  Biso   1.000  H
  H79      1.0000 0.82780  0.93410  0.51200  Biso   1.000  H
  H80      1.0000 0.73360  0.91170  0.51230  Biso   1.000  H
  O25      1.0000 0.29350  0.69951  0.84130  Biso   1.000  O
  O26      1.0000 0.22636  0.75916  0.95380  Biso   1.000  O
  O27      1.0000 0.92801  0.75975  0.97210  Biso   1.000  O
  O28      1.0000 0.85570  0.71111  0.84890  Biso   1.000  O
  O29      1.0000 0.80570  0.88774  0.96980  Biso   1.000  O
  O30      1.0000 0.76860  0.83182  0.83580  Biso   1.000  O
  Co6      1.0000 0.16923  0.19686  0.97418  Biso   1.000  Co
  C81      1.0000 0.27160  0.28260  0.88140  Biso   1.000  C
  C82      1.0000 0.35290  0.30881  0.84840  Biso   1.000  C
  C83      1.0000 0.42540  0.28231  0.88710  Biso   1.000  C
  H81      1.0000 0.42310  0.24860  0.93640  Biso   1.000  H
  C84      1.0000 0.50050  0.30527  0.85340  Biso   1.000  C
  C85      1.0000 0.50280  0.35460  0.78110  Biso   1.000  C
  H82      1.0000 0.55470  0.36990  0.75770  Biso   1.000  H
  C86      1.0000 0.43150  0.38220  0.74230  Biso   1.000  C
  C87      1.0000 0.35660  0.35770  0.77630  Biso   1.000  C
  H83      1.0000 0.30690  0.37500  0.74940  Biso   1.000  H
  C88      1.0000 0.57800  0.27680  0.89300  Biso   1.000  C
  C89      1.0000 0.43470  0.43660  0.66330  Biso   1.000  C
  C90      1.0000 0.44530  0.40750  0.55930  Biso   1.000  C
  H84      1.0000 0.44760  0.44110  0.50650  Biso   1.000  H
  H85      1.0000 0.49660  0.38290  0.55780  Biso   1.000  H
  H86      1.0000 0.39870  0.37920  0.54470  Biso   1.000  H
  C91      1.0000 0.35830  0.47490  0.65940  Biso   1.000  C
  H87      1.0000 0.34990  0.49610  0.72660  Biso   1.000  H
  H88      1.0000 0.36300  0.50710  0.60440  Biso   1.000  H
  H89      1.0000 0.31130  0.44700  0.64470  Biso   1.000  H
  C92      1.0000 0.50570  0.47880  0.68200  Biso   1.000  C
  H90      1.0000 0.49990  0.49920  0.75030  Biso   1.000  H
  H91      1.0000 0.55670  0.45370  0.68050  Biso   1.000  H
  H92      1.0000 0.50780  0.51160  0.62780  Biso   1.000  H
  C93      1.0000 0.72020  0.11644  0.87860  Biso   1.000  C
  C94      1.0000 0.73800  0.05592  0.82090  Biso   1.000  C
  C95      1.0000 0.73830  0.05590  0.71340  Biso   1.000  C
  H93      1.0000 0.73030  0.09480  0.67710  Biso   1.000  H
  C96      1.0000 0.72830  0.05450  0.49090  Biso   1.000  C
  H94      1.0000 0.73050  0.04960  0.41510  Biso   1.000  H
  H95      1.0000 0.67220  0.06590  0.51200  Biso   1.000  H
  H96      1.0000 0.76640  0.08830  0.51230  Biso   1.000  H
  O31      1.0000 0.20650  0.30049  0.84130  Biso   1.000  O
  O32      1.0000 0.27364  0.24084  0.95380  Biso   1.000  O
  O33      1.0000 0.57199  0.24025  0.97210  Biso   1.000  O
  O34      1.0000 0.64430  0.28889  0.84890  Biso   1.000  O
  O35      1.0000 0.69430  0.11226  0.96980  Biso   1.000  O
  O36      1.0000 0.73140  0.16818  0.83580  Biso   1.000  O
  Co7      1.0000 0.16923  0.30314  0.52582  Biso   1.000  Co
  C97      1.0000 0.27160  0.21740  0.61860  Biso   1.000  C
  C98      1.0000 0.35290  0.19119  0.65160  Biso   1.000  C
  C99      1.0000 0.42540  0.21769  0.61290  Biso   1.000  C
  H97      1.0000 0.42310  0.25140  0.56360  Biso   1.000  H
  C100     1.0000 0.50050  0.19473  0.64660  Biso   1.000  C
  C101     1.0000 0.50280  0.14540  0.71890  Biso   1.000  C
  H98      1.0000 0.55470  0.13010  0.74230  Biso   1.000  H
  C102     1.0000 0.43150  0.11780  0.75770  Biso   1.000  C
  C103     1.0000 0.35660  0.14230  0.72370  Biso   1.000  C
  H99      1.0000 0.30690  0.12500  0.75060  Biso   1.000  H
  C104     1.0000 0.57800  0.22320  0.60700  Biso   1.000  C
  C105     1.0000 0.43470  0.06340  0.83670  Biso   1.000  C
  C106     1.0000 0.44530  0.09250  0.94070  Biso   1.000  C
  H100     1.0000 0.44760  0.05890  0.99350  Biso   1.000  H
  H101     1.0000 0.49660  0.11710  0.94220  Biso   1.000  H
  H102     1.0000 0.39870  0.12080  0.95530  Biso   1.000  H
  C107     1.0000 0.35830  0.02510  0.84060  Biso   1.000  C
  H103     1.0000 0.34990  0.00390  0.77340  Biso   1.000  H
  H104     1.0000 0.36300  0.99290  0.89560  Biso   1.000  H
  H105     1.0000 0.31130  0.05300  0.85530  Biso   1.000  H
  C108     1.0000 0.50570  0.02120  0.81800  Biso   1.000  C
  H106     1.0000 0.49990  0.00080  0.74970  Biso   1.000  H
  H107     1.0000 0.55670  0.04630  0.81950  Biso   1.000  H
  H108     1.0000 0.50780  0.98840  0.87220  Biso   1.000  H
  C109     1.0000 0.72020  0.38356  0.62140  Biso   1.000  C
  C110     1.0000 0.73800  0.44408  0.67910  Biso   1.000  C
  C111     1.0000 0.73830  0.44410  0.78660  Biso   1.000  C
  H109     1.0000 0.73030  0.40520  0.82290  Biso   1.000  H
  C112     1.0000 0.72830  0.44550  0.00910  Biso   1.000  C
  H110     1.0000 0.73050  0.45040  0.08490  Biso   1.000  H
  H111     1.0000 0.67220  0.43410  0.98800  Biso   1.000  H
  H112     1.0000 0.76640  0.41170  0.98770  Biso   1.000  H
  O37      1.0000 0.20650  0.19951  0.65870  Biso   1.000  O
  O38      1.0000 0.27364  0.25916  0.54620  Biso   1.000  O
  O39      1.0000 0.57199  0.25975  0.52790  Biso   1.000  O
  O40      1.0000 0.64430  0.21111  0.65110  Biso   1.000  O
  O41      1.0000 0.69430  0.38774  0.53020  Biso   1.000  O
  O42      1.0000 0.73140  0.33182  0.66420  Biso   1.000  O
  Co8      1.0000 0.33077  0.69686  0.52582  Biso   1.000  Co
  C113     1.0000 0.22840  0.78260  0.61860  Biso   1.000  C
  C114     1.0000 0.14710  0.80881  0.65160  Biso   1.000  C
  C115     1.0000 0.07460  0.78231  0.61290  Biso   1.000  C
  H113     1.0000 0.07690  0.74860  0.56360  Biso   1.000  H
  C116     1.0000 0.99950  0.80527  0.64660  Biso   1.000  C
  C117     1.0000 0.99720  0.85460  0.71890  Biso   1.000  C
  H114     1.0000 0.94530  0.86990  0.74230  Biso   1.000  H
  C118     1.0000 0.06850  0.88220  0.75770  Biso   1.000  C
  C119     1.0000 0.14340  0.85770  0.72370  Biso   1.000  C
  H115     1.0000 0.19310  0.87500  0.75060  Biso   1.000  H
  C120     1.0000 0.92200  0.77680  0.60700  Biso   1.000  C
  C121     1.0000 0.06530  0.93660  0.83670  Biso   1.000  C
  C122     1.0000 0.05470  0.90750  0.94070  Biso   1.000  C
  H116     1.0000 0.05240  0.94110  0.99350  Biso   1.000  H
  H117     1.0000 0.00340  0.88290  0.94220  Biso   1.000  H
  H118     1.0000 0.10130  0.87920  0.95530  Biso   1.000  H
  C123     1.0000 0.14170  0.97490  0.84060  Biso   1.000  C
  H119     1.0000 0.15010  0.99610  0.77340  Biso   1.000  H
  H120     1.0000 0.13700  0.00710  0.89560  Biso   1.000  H
  H121     1.0000 0.18870  0.94700  0.85530  Biso   1.000  H
  C124     1.0000 0.99430  0.97880  0.81800  Biso   1.000  C
  H122     1.0000 0.00010  0.99920  0.74970  Biso   1.000  H
  H123     1.0000 0.94330  0.95370  0.81950  Biso   1.000  H
  H124     1.0000 0.99220  0.01160  0.87220  Biso   1.000  H
  C125     1.0000 0.77980  0.61644  0.62140  Biso   1.000  C
  C126     1.0000 0.76200  0.55592  0.67910  Biso   1.000  C
  C127     1.0000 0.76170  0.55590  0.78660  Biso   1.000  C
  H125     1.0000 0.76970  0.59480  0.82290  Biso   1.000  H
  C128     1.0000 0.77170  0.55450  0.00910  Biso   1.000  C
  H126     1.0000 0.76950  0.54960  0.08490  Biso   1.000  H
  H127     1.0000 0.82780  0.56590  0.98800  Biso   1.000  H
  H128     1.0000 0.73360  0.58830  0.98770  Biso   1.000  H
  O43      1.0000 0.29350  0.80049  0.65870  Biso   1.000  O
  O44      1.0000 0.22636  0.74084  0.54620  Biso   1.000  O
  O45      1.0000 0.92801  0.74025  0.52790  Biso   1.000  O
  O46      1.0000 0.85570  0.78889  0.65110  Biso   1.000  O
  O47      1.0000 0.80570  0.61226  0.53020  Biso   1.000  O
  O48      1.0000 0.76860  0.66818  0.66420  Biso   1.000  O
  Co9      1.0000 0.23291  0.25000  0.25000  Biso   1.000  Co
  Co10     1.0000 0.26709  0.75000  0.25000  Biso   1.000  Co
  Co11     1.0000 0.76709  0.75000  0.75000  Biso   1.000  Co
  Co12     1.0000 0.73291  0.25000  0.75000  Biso   1.000  Co
  C129     1.0000 0.25000  0.00000  0.34270  Biso   1.000  C
  C130     1.0000 0.25000  0.00000  0.46390  Biso   1.000  C
  C131     1.0000 0.25000  0.00000  0.12530  Biso   1.000  C
  H129     1.0000 0.25000  0.00000  0.05130  Biso   1.000  H
  C132     1.0000 0.25000  0.50000  0.15730  Biso   1.000  C
  C133     1.0000 0.25000  0.50000  0.03610  Biso   1.000  C
  C134     1.0000 0.25000  0.50000  0.37470  Biso   1.000  C
  H130     1.0000 0.25000  0.50000  0.44870  Biso   1.000  H
  C135     1.0000 0.75000  0.00000  0.65730  Biso   1.000  C
  C136     1.0000 0.75000  0.00000  0.53610  Biso   1.000  C
  C137     1.0000 0.75000  0.00000  0.87470  Biso   1.000  C
  H131     1.0000 0.75000  0.00000  0.94870  Biso   1.000  H
  C138     1.0000 0.75000  0.50000  0.84270  Biso   1.000  C
  C139     1.0000 0.75000  0.50000  0.96390  Biso   1.000  C
  C140     1.0000 0.75000  0.50000  0.62530  Biso   1.000  C
  H132     1.0000 0.75000  0.50000  0.55130  Biso   1.000  H
