data_TEFWOR_clean
_audit_creation_date              2014-07-02
_audit_creation_method            'Materials Studio'
_symmetry_space_group_name_H-M    'P1'
_symmetry_Int_Tables_number       1
_symmetry_cell_setting            triclinic
loop_
_symmetry_equiv_pos_as_xyz
  x,y,z
_cell_length_a                    25.4866
_cell_length_b                    25.4866
_cell_length_c                    25.4866
_cell_angle_alpha                 60.0000
_cell_angle_beta                  60.0000
_cell_angle_gamma                 60.0000
loop_
_atom_site_label
_atom_site_type_symbol
_atom_site_fract_x
_atom_site_fract_y
_atom_site_fract_z
_atom_site_U_iso_or_equiv
_atom_site_adp_type
_atom_site_occupancy
In1    In    0.25000   0.25000   0.98604   0.01267  Uiso   1.00
In2    In    0.75000   0.75000   0.51396   0.01267  Uiso   1.00
In3    In    0.48604   0.51396   0.75000   0.01267  Uiso   1.00
In4    In    0.01396   0.98604   0.25000   0.01267  Uiso   1.00
In5    In    0.25000   0.98604   0.51396   0.01267  Uiso   1.00
In6    In    0.75000   0.51396   0.98604   0.01267  Uiso   1.00
In7    In    0.48604   0.75000   0.25000   0.01267  Uiso   1.00
In8    In    0.01396   0.25000   0.75000   0.01267  Uiso   1.00
In9    In    0.25000   0.51396   0.25000   0.01267  Uiso   1.00
In10   In    0.75000   0.98604   0.75000   0.01267  Uiso   1.00
In11   In    0.48604   0.25000   0.51396   0.01267  Uiso   1.00
In12   In    0.01396   0.75000   0.98604   0.01267  Uiso   1.00
In13   In    0.75000   0.75000   0.01396   0.01267  Uiso   1.00
In14   In    0.25000   0.25000   0.48604   0.01267  Uiso   1.00
In15   In    0.51396   0.48604   0.25000   0.01267  Uiso   1.00
In16   In    0.98604   0.01396   0.75000   0.01267  Uiso   1.00
In17   In    0.75000   0.01396   0.48604   0.01267  Uiso   1.00
In18   In    0.25000   0.48604   0.01396   0.01267  Uiso   1.00
In19   In    0.51396   0.25000   0.75000   0.01267  Uiso   1.00
In20   In    0.98604   0.75000   0.25000   0.01267  Uiso   1.00
In21   In    0.75000   0.48604   0.75000   0.01267  Uiso   1.00
In22   In    0.25000   0.01396   0.25000   0.01267  Uiso   1.00
In23   In    0.51396   0.75000   0.48604   0.01267  Uiso   1.00
In24   In    0.98604   0.25000   0.01396   0.01267  Uiso   1.00
H1     H     0.14280   0.25460   0.94540   0.01267  Uiso   1.00
H2     H     0.75460   0.64280   0.65720   0.01267  Uiso   1.00
H3     H     0.44540   0.65720   0.64280   0.01267  Uiso   1.00
H4     H     0.15720   0.94540   0.25460   0.01267  Uiso   1.00
H5     H     0.14280   0.94540   0.65720   0.01267  Uiso   1.00
H6     H     0.75460   0.65720   0.94540   0.01267  Uiso   1.00
H7     H     0.44540   0.64280   0.25460   0.01267  Uiso   1.00
H8     H     0.15720   0.25460   0.64280   0.01267  Uiso   1.00
H9     H     0.14280   0.65720   0.25460   0.01267  Uiso   1.00
H10    H     0.75460   0.94540   0.64280   0.01267  Uiso   1.00
H11    H     0.44540   0.25460   0.65720   0.01267  Uiso   1.00
H12    H     0.15720   0.64280   0.94540   0.01267  Uiso   1.00
H13    H     0.74540   0.85720   0.55460   0.01267  Uiso   1.00
H14    H     0.35720   0.24540   0.84280   0.01267  Uiso   1.00
H15    H     0.34280   0.55460   0.85720   0.01267  Uiso   1.00
H16    H     0.05460   0.84280   0.24540   0.01267  Uiso   1.00
H17    H     0.05460   0.85720   0.84280   0.01267  Uiso   1.00
H18    H     0.34280   0.24540   0.55460   0.01267  Uiso   1.00
H19    H     0.35720   0.55460   0.24540   0.01267  Uiso   1.00
H20    H     0.74540   0.84280   0.85720   0.01267  Uiso   1.00
H21    H     0.34280   0.85720   0.24540   0.01267  Uiso   1.00
H22    H     0.05460   0.24540   0.85720   0.01267  Uiso   1.00
H23    H     0.74540   0.55460   0.84280   0.01267  Uiso   1.00
H24    H     0.35720   0.84280   0.55460   0.01267  Uiso   1.00
H25    H     0.85720   0.74540   0.05460   0.01267  Uiso   1.00
H26    H     0.24540   0.35720   0.34280   0.01267  Uiso   1.00
H27    H     0.55460   0.34280   0.35720   0.01267  Uiso   1.00
H28    H     0.84280   0.05460   0.74540   0.01267  Uiso   1.00
H29    H     0.85720   0.05460   0.34280   0.01267  Uiso   1.00
H30    H     0.24540   0.34280   0.05460   0.01267  Uiso   1.00
H31    H     0.55460   0.35720   0.74540   0.01267  Uiso   1.00
H32    H     0.84280   0.74540   0.35720   0.01267  Uiso   1.00
H33    H     0.85720   0.34280   0.74540   0.01267  Uiso   1.00
H34    H     0.24540   0.05460   0.35720   0.01267  Uiso   1.00
H35    H     0.55460   0.74540   0.34280   0.01267  Uiso   1.00
H36    H     0.84280   0.35720   0.05460   0.01267  Uiso   1.00
H37    H     0.25460   0.14280   0.44540   0.01267  Uiso   1.00
H38    H     0.64280   0.75460   0.15720   0.01267  Uiso   1.00
H39    H     0.65720   0.44540   0.14280   0.01267  Uiso   1.00
H40    H     0.94540   0.15720   0.75460   0.01267  Uiso   1.00
H41    H     0.94540   0.14280   0.15720   0.01267  Uiso   1.00
H42    H     0.65720   0.75460   0.44540   0.01267  Uiso   1.00
H43    H     0.64280   0.44540   0.75460   0.01267  Uiso   1.00
H44    H     0.25460   0.15720   0.14280   0.01267  Uiso   1.00
H45    H     0.65720   0.14280   0.75460   0.01267  Uiso   1.00
H46    H     0.94540   0.75460   0.14280   0.01267  Uiso   1.00
H47    H     0.25460   0.44540   0.15720   0.01267  Uiso   1.00
H48    H     0.64280   0.15720   0.44540   0.01267  Uiso   1.00
C1     C     0.10000   0.27100   0.07320   0.01267  Uiso   1.00
C2     C     0.11520   0.27720   0.11940   0.01267  Uiso   1.00
C3     C     0.12120   0.26000   0.98540   0.01267  Uiso   1.00
C4     C     0.04610   0.26990   0.07470   0.01267  Uiso   1.00
C5     C     0.97830   0.27610   0.12230   0.01267  Uiso   1.00
C6     C     0.77100   0.60000   0.55580   0.01267  Uiso   1.00
C7     C     0.77720   0.61520   0.48820   0.01267  Uiso   1.00
C8     C     0.76000   0.62120   0.63340   0.01267  Uiso   1.00
C9     C     0.76990   0.54610   0.60930   0.01267  Uiso   1.00
C10    C     0.77610   0.47830   0.62330   0.01267  Uiso   1.00
C11    C     0.57320   0.55580   0.60000   0.01267  Uiso   1.00
C12    C     0.61940   0.48820   0.61520   0.01267  Uiso   1.00
C13    C     0.48540   0.63340   0.62120   0.01267  Uiso   1.00
C14    C     0.57470   0.60930   0.54610   0.01267  Uiso   1.00
C15    C     0.62230   0.62330   0.47830   0.01267  Uiso   1.00
C16    C     0.05580   0.07320   0.27100   0.01267  Uiso   1.00
C17    C     0.98820   0.11940   0.27720   0.01267  Uiso   1.00
C18    C     0.13340   0.98540   0.26000   0.01267  Uiso   1.00
C19    C     0.10930   0.07470   0.26990   0.01267  Uiso   1.00
C20    C     0.12330   0.12230   0.27610   0.01267  Uiso   1.00
C21    C     0.10000   0.07320   0.55580   0.01267  Uiso   1.00
C22    C     0.11520   0.11940   0.48820   0.01267  Uiso   1.00
C23    C     0.12120   0.98540   0.63340   0.01267  Uiso   1.00
C24    C     0.04610   0.07470   0.60930   0.01267  Uiso   1.00
C25    C     0.97830   0.12230   0.62330   0.01267  Uiso   1.00
C26    C     0.77100   0.55580   0.07320   0.01267  Uiso   1.00
C27    C     0.77720   0.48820   0.11940   0.01267  Uiso   1.00
C28    C     0.76000   0.63340   0.98540   0.01267  Uiso   1.00
C29    C     0.76990   0.60930   0.07470   0.01267  Uiso   1.00
C30    C     0.77610   0.62330   0.12230   0.01267  Uiso   1.00
C31    C     0.57320   0.60000   0.27100   0.01267  Uiso   1.00
C32    C     0.61940   0.61520   0.27720   0.01267  Uiso   1.00
C33    C     0.48540   0.62120   0.26000   0.01267  Uiso   1.00
C34    C     0.57470   0.54610   0.26990   0.01267  Uiso   1.00
C35    C     0.62230   0.47830   0.27610   0.01267  Uiso   1.00
C36    C     0.05580   0.27100   0.60000   0.01267  Uiso   1.00
C37    C     0.98820   0.27720   0.61520   0.01267  Uiso   1.00
C38    C     0.13340   0.26000   0.62120   0.01267  Uiso   1.00
C39    C     0.10930   0.26990   0.54610   0.01267  Uiso   1.00
C40    C     0.12330   0.27610   0.47830   0.01267  Uiso   1.00
C41    C     0.10000   0.55580   0.27100   0.01267  Uiso   1.00
C42    C     0.11520   0.48820   0.27720   0.01267  Uiso   1.00
C43    C     0.12120   0.63340   0.26000   0.01267  Uiso   1.00
C44    C     0.04610   0.60930   0.26990   0.01267  Uiso   1.00
C45    C     0.97830   0.62330   0.27610   0.01267  Uiso   1.00
C46    C     0.77100   0.07320   0.60000   0.01267  Uiso   1.00
C47    C     0.77720   0.11940   0.61520   0.01267  Uiso   1.00
C48    C     0.76000   0.98540   0.62120   0.01267  Uiso   1.00
C49    C     0.76990   0.07470   0.54610   0.01267  Uiso   1.00
C50    C     0.77610   0.12230   0.47830   0.01267  Uiso   1.00
C51    C     0.57320   0.27100   0.55580   0.01267  Uiso   1.00
C52    C     0.61940   0.27720   0.48820   0.01267  Uiso   1.00
C53    C     0.48540   0.26000   0.63340   0.01267  Uiso   1.00
C54    C     0.57470   0.26990   0.60930   0.01267  Uiso   1.00
C55    C     0.62230   0.27610   0.62330   0.01267  Uiso   1.00
C56    C     0.05580   0.60000   0.07320   0.01267  Uiso   1.00
C57    C     0.98820   0.61520   0.11940   0.01267  Uiso   1.00
C58    C     0.13340   0.62120   0.98540   0.01267  Uiso   1.00
C59    C     0.10930   0.54610   0.07470   0.01267  Uiso   1.00
C60    C     0.12330   0.47830   0.12230   0.01267  Uiso   1.00
C61    C     0.72900   0.90000   0.42680   0.01267  Uiso   1.00
C62    C     0.72280   0.88480   0.38060   0.01267  Uiso   1.00
C63    C     0.74000   0.87880   0.51460   0.01267  Uiso   1.00
C64    C     0.73010   0.95390   0.42530   0.01267  Uiso   1.00
C65    C     0.72390   0.02170   0.37770   0.01267  Uiso   1.00
C66    C     0.40000   0.22900   0.94420   0.01267  Uiso   1.00
C67    C     0.38480   0.22280   0.01180   0.01267  Uiso   1.00
C68    C     0.37880   0.24000   0.86660   0.01267  Uiso   1.00
C69    C     0.45390   0.23010   0.89070   0.01267  Uiso   1.00
C70    C     0.52170   0.22390   0.87670   0.01267  Uiso   1.00
C71    C     0.44420   0.42680   0.90000   0.01267  Uiso   1.00
C72    C     0.51180   0.38060   0.88480   0.01267  Uiso   1.00
C73    C     0.36660   0.51460   0.87880   0.01267  Uiso   1.00
C74    C     0.39070   0.42530   0.95390   0.01267  Uiso   1.00
C75    C     0.37670   0.37770   0.02170   0.01267  Uiso   1.00
C76    C     0.92680   0.94420   0.22900   0.01267  Uiso   1.00
C77    C     0.88060   0.01180   0.22280   0.01267  Uiso   1.00
C78    C     0.01460   0.86660   0.24000   0.01267  Uiso   1.00
C79    C     0.92530   0.89070   0.23010   0.01267  Uiso   1.00
C80    C     0.87770   0.87670   0.22390   0.01267  Uiso   1.00
C81    C     0.92680   0.90000   0.94420   0.01267  Uiso   1.00
C82    C     0.88060   0.88480   0.01180   0.01267  Uiso   1.00
C83    C     0.01460   0.87880   0.86660   0.01267  Uiso   1.00
C84    C     0.92530   0.95390   0.89070   0.01267  Uiso   1.00
C85    C     0.87770   0.02170   0.87670   0.01267  Uiso   1.00
C86    C     0.44420   0.22900   0.42680   0.01267  Uiso   1.00
C87    C     0.51180   0.22280   0.38060   0.01267  Uiso   1.00
C88    C     0.36660   0.24000   0.51460   0.01267  Uiso   1.00
C89    C     0.39070   0.23010   0.42530   0.01267  Uiso   1.00
C90    C     0.37670   0.22390   0.37770   0.01267  Uiso   1.00
C91    C     0.40000   0.42680   0.22900   0.01267  Uiso   1.00
C92    C     0.38480   0.38060   0.22280   0.01267  Uiso   1.00
C93    C     0.37880   0.51460   0.24000   0.01267  Uiso   1.00
C94    C     0.45390   0.42530   0.23010   0.01267  Uiso   1.00
C95    C     0.52170   0.37770   0.22390   0.01267  Uiso   1.00
C96    C     0.72900   0.94420   0.90000   0.01267  Uiso   1.00
C97    C     0.72280   0.01180   0.88480   0.01267  Uiso   1.00
C98    C     0.74000   0.86660   0.87880   0.01267  Uiso   1.00
C99    C     0.73010   0.89070   0.95390   0.01267  Uiso   1.00
C100   C     0.72390   0.87670   0.02170   0.01267  Uiso   1.00
C101   C     0.44420   0.90000   0.22900   0.01267  Uiso   1.00
C102   C     0.51180   0.88480   0.22280   0.01267  Uiso   1.00
C103   C     0.36660   0.87880   0.24000   0.01267  Uiso   1.00
C104   C     0.39070   0.95390   0.23010   0.01267  Uiso   1.00
C105   C     0.37670   0.02170   0.22390   0.01267  Uiso   1.00
C106   C     0.92680   0.22900   0.90000   0.01267  Uiso   1.00
C107   C     0.88060   0.22280   0.88480   0.01267  Uiso   1.00
C108   C     0.01460   0.24000   0.87880   0.01267  Uiso   1.00
C109   C     0.92530   0.23010   0.95390   0.01267  Uiso   1.00
C110   C     0.87770   0.22390   0.02170   0.01267  Uiso   1.00
C111   C     0.72900   0.42680   0.94420   0.01267  Uiso   1.00
C112   C     0.72280   0.38060   0.01180   0.01267  Uiso   1.00
C113   C     0.74000   0.51460   0.86660   0.01267  Uiso   1.00
C114   C     0.73010   0.42530   0.89070   0.01267  Uiso   1.00
C115   C     0.72390   0.37770   0.87670   0.01267  Uiso   1.00
C116   C     0.40000   0.94420   0.42680   0.01267  Uiso   1.00
C117   C     0.38480   0.01180   0.38060   0.01267  Uiso   1.00
C118   C     0.37880   0.86660   0.51460   0.01267  Uiso   1.00
C119   C     0.45390   0.89070   0.42530   0.01267  Uiso   1.00
C120   C     0.52170   0.87670   0.37770   0.01267  Uiso   1.00
C121   C     0.90000   0.72900   0.92680   0.01267  Uiso   1.00
C122   C     0.88480   0.72280   0.88060   0.01267  Uiso   1.00
C123   C     0.87880   0.74000   0.01460   0.01267  Uiso   1.00
C124   C     0.95390   0.73010   0.92530   0.01267  Uiso   1.00
C125   C     0.02170   0.72390   0.87770   0.01267  Uiso   1.00
C126   C     0.22900   0.40000   0.44420   0.01267  Uiso   1.00
C127   C     0.22280   0.38480   0.51180   0.01267  Uiso   1.00
C128   C     0.24000   0.37880   0.36660   0.01267  Uiso   1.00
C129   C     0.23010   0.45390   0.39070   0.01267  Uiso   1.00
C130   C     0.22390   0.52170   0.37670   0.01267  Uiso   1.00
C131   C     0.42680   0.44420   0.40000   0.01267  Uiso   1.00
C132   C     0.38060   0.51180   0.38480   0.01267  Uiso   1.00
C133   C     0.51460   0.36660   0.37880   0.01267  Uiso   1.00
C134   C     0.42530   0.39070   0.45390   0.01267  Uiso   1.00
C135   C     0.37770   0.37670   0.52170   0.01267  Uiso   1.00
C136   C     0.94420   0.92680   0.72900   0.01267  Uiso   1.00
C137   C     0.01180   0.88060   0.72280   0.01267  Uiso   1.00
C138   C     0.86660   0.01460   0.74000   0.01267  Uiso   1.00
C139   C     0.89070   0.92530   0.73010   0.01267  Uiso   1.00
C140   C     0.87670   0.87770   0.72390   0.01267  Uiso   1.00
C141   C     0.90000   0.92680   0.44420   0.01267  Uiso   1.00
C142   C     0.88480   0.88060   0.51180   0.01267  Uiso   1.00
C143   C     0.87880   0.01460   0.36660   0.01267  Uiso   1.00
C144   C     0.95390   0.92530   0.39070   0.01267  Uiso   1.00
C145   C     0.02170   0.87770   0.37670   0.01267  Uiso   1.00
C146   C     0.22900   0.44420   0.92680   0.01267  Uiso   1.00
C147   C     0.22280   0.51180   0.88060   0.01267  Uiso   1.00
C148   C     0.24000   0.36660   0.01460   0.01267  Uiso   1.00
C149   C     0.23010   0.39070   0.92530   0.01267  Uiso   1.00
C150   C     0.22390   0.37670   0.87770   0.01267  Uiso   1.00
C151   C     0.42680   0.40000   0.72900   0.01267  Uiso   1.00
C152   C     0.38060   0.38480   0.72280   0.01267  Uiso   1.00
C153   C     0.51460   0.37880   0.74000   0.01267  Uiso   1.00
C154   C     0.42530   0.45390   0.73010   0.01267  Uiso   1.00
C155   C     0.37770   0.52170   0.72390   0.01267  Uiso   1.00
C156   C     0.94420   0.72900   0.40000   0.01267  Uiso   1.00
C157   C     0.01180   0.72280   0.38480   0.01267  Uiso   1.00
C158   C     0.86660   0.74000   0.37880   0.01267  Uiso   1.00
C159   C     0.89070   0.73010   0.45390   0.01267  Uiso   1.00
C160   C     0.87670   0.72390   0.52170   0.01267  Uiso   1.00
C161   C     0.90000   0.44420   0.72900   0.01267  Uiso   1.00
C162   C     0.88480   0.51180   0.72280   0.01267  Uiso   1.00
C163   C     0.87880   0.36660   0.74000   0.01267  Uiso   1.00
C164   C     0.95390   0.39070   0.73010   0.01267  Uiso   1.00
C165   C     0.02170   0.37670   0.72390   0.01267  Uiso   1.00
C166   C     0.22900   0.92680   0.40000   0.01267  Uiso   1.00
C167   C     0.22280   0.88060   0.38480   0.01267  Uiso   1.00
C168   C     0.24000   0.01460   0.37880   0.01267  Uiso   1.00
C169   C     0.23010   0.92530   0.45390   0.01267  Uiso   1.00
C170   C     0.22390   0.87770   0.52170   0.01267  Uiso   1.00
C171   C     0.42680   0.72900   0.44420   0.01267  Uiso   1.00
C172   C     0.38060   0.72280   0.51180   0.01267  Uiso   1.00
C173   C     0.51460   0.74000   0.36660   0.01267  Uiso   1.00
C174   C     0.42530   0.73010   0.39070   0.01267  Uiso   1.00
C175   C     0.37770   0.72390   0.37670   0.01267  Uiso   1.00
C176   C     0.94420   0.40000   0.92680   0.01267  Uiso   1.00
C177   C     0.01180   0.38480   0.88060   0.01267  Uiso   1.00
C178   C     0.86660   0.37880   0.01460   0.01267  Uiso   1.00
C179   C     0.89070   0.45390   0.92530   0.01267  Uiso   1.00
C180   C     0.87670   0.52170   0.87770   0.01267  Uiso   1.00
C181   C     0.27100   0.10000   0.57320   0.01267  Uiso   1.00
C182   C     0.27720   0.11520   0.61940   0.01267  Uiso   1.00
C183   C     0.26000   0.12120   0.48540   0.01267  Uiso   1.00
C184   C     0.26990   0.04610   0.57470   0.01267  Uiso   1.00
C185   C     0.27610   0.97830   0.62230   0.01267  Uiso   1.00
C186   C     0.60000   0.77100   0.05580   0.01267  Uiso   1.00
C187   C     0.61520   0.77720   0.98820   0.01267  Uiso   1.00
C188   C     0.62120   0.76000   0.13340   0.01267  Uiso   1.00
C189   C     0.54610   0.76990   0.10930   0.01267  Uiso   1.00
C190   C     0.47830   0.77610   0.12330   0.01267  Uiso   1.00
C191   C     0.55580   0.57320   0.10000   0.01267  Uiso   1.00
C192   C     0.48820   0.61940   0.11520   0.01267  Uiso   1.00
C193   C     0.63340   0.48540   0.12120   0.01267  Uiso   1.00
C194   C     0.60930   0.57470   0.04610   0.01267  Uiso   1.00
C195   C     0.62330   0.62230   0.97830   0.01267  Uiso   1.00
C196   C     0.07320   0.05580   0.77100   0.01267  Uiso   1.00
C197   C     0.11940   0.98820   0.77720   0.01267  Uiso   1.00
C198   C     0.98540   0.13340   0.76000   0.01267  Uiso   1.00
C199   C     0.07470   0.10930   0.76990   0.01267  Uiso   1.00
C200   C     0.12230   0.12330   0.77610   0.01267  Uiso   1.00
C201   C     0.07320   0.10000   0.05580   0.01267  Uiso   1.00
C202   C     0.11940   0.11520   0.98820   0.01267  Uiso   1.00
C203   C     0.98540   0.12120   0.13340   0.01267  Uiso   1.00
C204   C     0.07470   0.04610   0.10930   0.01267  Uiso   1.00
C205   C     0.12230   0.97830   0.12330   0.01267  Uiso   1.00
C206   C     0.55580   0.77100   0.57320   0.01267  Uiso   1.00
C207   C     0.48820   0.77720   0.61940   0.01267  Uiso   1.00
C208   C     0.63340   0.76000   0.48540   0.01267  Uiso   1.00
C209   C     0.60930   0.76990   0.57470   0.01267  Uiso   1.00
C210   C     0.62330   0.77610   0.62230   0.01267  Uiso   1.00
C211   C     0.60000   0.57320   0.77100   0.01267  Uiso   1.00
C212   C     0.61520   0.61940   0.77720   0.01267  Uiso   1.00
C213   C     0.62120   0.48540   0.76000   0.01267  Uiso   1.00
C214   C     0.54610   0.57470   0.76990   0.01267  Uiso   1.00
C215   C     0.47830   0.62230   0.77610   0.01267  Uiso   1.00
C216   C     0.27100   0.05580   0.10000   0.01267  Uiso   1.00
C217   C     0.27720   0.98820   0.11520   0.01267  Uiso   1.00
C218   C     0.26000   0.13340   0.12120   0.01267  Uiso   1.00
C219   C     0.26990   0.10930   0.04610   0.01267  Uiso   1.00
C220   C     0.27610   0.12330   0.97830   0.01267  Uiso   1.00
C221   C     0.55580   0.10000   0.77100   0.01267  Uiso   1.00
C222   C     0.48820   0.11520   0.77720   0.01267  Uiso   1.00
C223   C     0.63340   0.12120   0.76000   0.01267  Uiso   1.00
C224   C     0.60930   0.04610   0.76990   0.01267  Uiso   1.00
C225   C     0.62330   0.97830   0.77610   0.01267  Uiso   1.00
C226   C     0.07320   0.77100   0.10000   0.01267  Uiso   1.00
C227   C     0.11940   0.77720   0.11520   0.01267  Uiso   1.00
C228   C     0.98540   0.76000   0.12120   0.01267  Uiso   1.00
C229   C     0.07470   0.76990   0.04610   0.01267  Uiso   1.00
C230   C     0.12230   0.77610   0.97830   0.01267  Uiso   1.00
C231   C     0.27100   0.57320   0.05580   0.01267  Uiso   1.00
C232   C     0.27720   0.61940   0.98820   0.01267  Uiso   1.00
C233   C     0.26000   0.48540   0.13340   0.01267  Uiso   1.00
C234   C     0.26990   0.57470   0.10930   0.01267  Uiso   1.00
C235   C     0.27610   0.62230   0.12330   0.01267  Uiso   1.00
C236   C     0.60000   0.05580   0.57320   0.01267  Uiso   1.00
C237   C     0.61520   0.98820   0.61940   0.01267  Uiso   1.00
C238   C     0.62120   0.13340   0.48540   0.01267  Uiso   1.00
C239   C     0.54610   0.10930   0.57470   0.01267  Uiso   1.00
C240   C     0.47830   0.12330   0.62230   0.01267  Uiso   1.00
N1     N     0.14760   0.26520   0.01600   0.01267  Uiso   1.00
N2     N     0.06050   0.26350   0.01950   0.01267  Uiso   1.00
N3     N     0.76520   0.64760   0.57120   0.01267  Uiso   1.00
N4     N     0.76350   0.56050   0.65650   0.01267  Uiso   1.00
N5     N     0.51600   0.57120   0.64760   0.01267  Uiso   1.00
N6     N     0.51950   0.65650   0.56050   0.01267  Uiso   1.00
N7     N     0.07120   0.01600   0.26520   0.01267  Uiso   1.00
N8     N     0.15650   0.01950   0.26350   0.01267  Uiso   1.00
N9     N     0.14760   0.01600   0.57120   0.01267  Uiso   1.00
N10    N     0.06050   0.01950   0.65650   0.01267  Uiso   1.00
N11    N     0.76520   0.57120   0.01600   0.01267  Uiso   1.00
N12    N     0.76350   0.65650   0.01950   0.01267  Uiso   1.00
N13    N     0.51600   0.64760   0.26520   0.01267  Uiso   1.00
N14    N     0.51950   0.56050   0.26350   0.01267  Uiso   1.00
N15    N     0.07120   0.26520   0.64760   0.01267  Uiso   1.00
N16    N     0.15650   0.26350   0.56050   0.01267  Uiso   1.00
N17    N     0.14760   0.57120   0.26520   0.01267  Uiso   1.00
N18    N     0.06050   0.65650   0.26350   0.01267  Uiso   1.00
N19    N     0.76520   0.01600   0.64760   0.01267  Uiso   1.00
N20    N     0.76350   0.01950   0.56050   0.01267  Uiso   1.00
N21    N     0.51600   0.26520   0.57120   0.01267  Uiso   1.00
N22    N     0.51950   0.26350   0.65650   0.01267  Uiso   1.00
N23    N     0.07120   0.64760   0.01600   0.01267  Uiso   1.00
N24    N     0.15650   0.56050   0.01950   0.01267  Uiso   1.00
N25    N     0.73480   0.85240   0.48400   0.01267  Uiso   1.00
N26    N     0.73650   0.93950   0.48050   0.01267  Uiso   1.00
N27    N     0.35240   0.23480   0.92880   0.01267  Uiso   1.00
N28    N     0.43950   0.23650   0.84350   0.01267  Uiso   1.00
N29    N     0.42880   0.48400   0.85240   0.01267  Uiso   1.00
N30    N     0.34350   0.48050   0.93950   0.01267  Uiso   1.00
N31    N     0.98400   0.92880   0.23480   0.01267  Uiso   1.00
N32    N     0.98050   0.84350   0.23650   0.01267  Uiso   1.00
N33    N     0.98400   0.85240   0.92880   0.01267  Uiso   1.00
N34    N     0.98050   0.93950   0.84350   0.01267  Uiso   1.00
N35    N     0.42880   0.23480   0.48400   0.01267  Uiso   1.00
N36    N     0.34350   0.23650   0.48050   0.01267  Uiso   1.00
N37    N     0.35240   0.48400   0.23480   0.01267  Uiso   1.00
N38    N     0.43950   0.48050   0.23650   0.01267  Uiso   1.00
N39    N     0.73480   0.92880   0.85240   0.01267  Uiso   1.00
N40    N     0.73650   0.84350   0.93950   0.01267  Uiso   1.00
N41    N     0.42880   0.85240   0.23480   0.01267  Uiso   1.00
N42    N     0.34350   0.93950   0.23650   0.01267  Uiso   1.00
N43    N     0.98400   0.23480   0.85240   0.01267  Uiso   1.00
N44    N     0.98050   0.23650   0.93950   0.01267  Uiso   1.00
N45    N     0.73480   0.48400   0.92880   0.01267  Uiso   1.00
N46    N     0.73650   0.48050   0.84350   0.01267  Uiso   1.00
N47    N     0.35240   0.92880   0.48400   0.01267  Uiso   1.00
N48    N     0.43950   0.84350   0.48050   0.01267  Uiso   1.00
N49    N     0.85240   0.73480   0.98400   0.01267  Uiso   1.00
N50    N     0.93950   0.73650   0.98050   0.01267  Uiso   1.00
N51    N     0.23480   0.35240   0.42880   0.01267  Uiso   1.00
N52    N     0.23650   0.43950   0.34350   0.01267  Uiso   1.00
N53    N     0.48400   0.42880   0.35240   0.01267  Uiso   1.00
N54    N     0.48050   0.34350   0.43950   0.01267  Uiso   1.00
N55    N     0.92880   0.98400   0.73480   0.01267  Uiso   1.00
N56    N     0.84350   0.98050   0.73650   0.01267  Uiso   1.00
N57    N     0.85240   0.98400   0.42880   0.01267  Uiso   1.00
N58    N     0.93950   0.98050   0.34350   0.01267  Uiso   1.00
N59    N     0.23480   0.42880   0.98400   0.01267  Uiso   1.00
N60    N     0.23650   0.34350   0.98050   0.01267  Uiso   1.00
N61    N     0.48400   0.35240   0.73480   0.01267  Uiso   1.00
N62    N     0.48050   0.43950   0.73650   0.01267  Uiso   1.00
N63    N     0.92880   0.73480   0.35240   0.01267  Uiso   1.00
N64    N     0.84350   0.73650   0.43950   0.01267  Uiso   1.00
N65    N     0.85240   0.42880   0.73480   0.01267  Uiso   1.00
N66    N     0.93950   0.34350   0.73650   0.01267  Uiso   1.00
N67    N     0.23480   0.98400   0.35240   0.01267  Uiso   1.00
N68    N     0.23650   0.98050   0.43950   0.01267  Uiso   1.00
N69    N     0.48400   0.73480   0.42880   0.01267  Uiso   1.00
N70    N     0.48050   0.73650   0.34350   0.01267  Uiso   1.00
N71    N     0.92880   0.35240   0.98400   0.01267  Uiso   1.00
N72    N     0.84350   0.43950   0.98050   0.01267  Uiso   1.00
N73    N     0.26520   0.14760   0.51600   0.01267  Uiso   1.00
N74    N     0.26350   0.06050   0.51950   0.01267  Uiso   1.00
N75    N     0.64760   0.76520   0.07120   0.01267  Uiso   1.00
N76    N     0.56050   0.76350   0.15650   0.01267  Uiso   1.00
N77    N     0.57120   0.51600   0.14760   0.01267  Uiso   1.00
N78    N     0.65650   0.51950   0.06050   0.01267  Uiso   1.00
N79    N     0.01600   0.07120   0.76520   0.01267  Uiso   1.00
N80    N     0.01950   0.15650   0.76350   0.01267  Uiso   1.00
N81    N     0.01600   0.14760   0.07120   0.01267  Uiso   1.00
N82    N     0.01950   0.06050   0.15650   0.01267  Uiso   1.00
N83    N     0.57120   0.76520   0.51600   0.01267  Uiso   1.00
N84    N     0.65650   0.76350   0.51950   0.01267  Uiso   1.00
N85    N     0.64760   0.51600   0.76520   0.01267  Uiso   1.00
N86    N     0.56050   0.51950   0.76350   0.01267  Uiso   1.00
N87    N     0.26520   0.07120   0.14760   0.01267  Uiso   1.00
N88    N     0.26350   0.15650   0.06050   0.01267  Uiso   1.00
N89    N     0.57120   0.14760   0.76520   0.01267  Uiso   1.00
N90    N     0.65650   0.06050   0.76350   0.01267  Uiso   1.00
N91    N     0.01600   0.76520   0.14760   0.01267  Uiso   1.00
N92    N     0.01950   0.76350   0.06050   0.01267  Uiso   1.00
N93    N     0.26520   0.51600   0.07120   0.01267  Uiso   1.00
N94    N     0.26350   0.51950   0.15650   0.01267  Uiso   1.00
N95    N     0.64760   0.07120   0.51600   0.01267  Uiso   1.00
N96    N     0.56050   0.15650   0.51950   0.01267  Uiso   1.00
O1     O     0.16880   0.27100   0.11020   0.01267  Uiso   1.00
O2     O     0.06340   0.29000   0.16920   0.01267  Uiso   1.00
O3     O     0.94310   0.26710   0.10970   0.01267  Uiso   1.00
O4     O     0.96630   0.28850   0.16850   0.01267  Uiso   1.00
O5     O     0.77100   0.66880   0.45000   0.01267  Uiso   1.00
O6     O     0.79000   0.56340   0.47740   0.01267  Uiso   1.00
O7     O     0.76710   0.44310   0.68010   0.01267  Uiso   1.00
O8     O     0.78850   0.46630   0.57670   0.01267  Uiso   1.00
O9     O     0.61020   0.45000   0.66880   0.01267  Uiso   1.00
O10    O     0.66920   0.47740   0.56340   0.01267  Uiso   1.00
O11    O     0.60970   0.68010   0.44310   0.01267  Uiso   1.00
O12    O     0.66850   0.57670   0.46630   0.01267  Uiso   1.00
O13    O     0.95000   0.11020   0.27100   0.01267  Uiso   1.00
O14    O     0.97740   0.16920   0.29000   0.01267  Uiso   1.00
O15    O     0.18010   0.10970   0.26710   0.01267  Uiso   1.00
O16    O     0.07670   0.16850   0.28850   0.01267  Uiso   1.00
O17    O     0.16880   0.11020   0.45000   0.01267  Uiso   1.00
O18    O     0.06340   0.16920   0.47740   0.01267  Uiso   1.00
O19    O     0.94310   0.10970   0.68010   0.01267  Uiso   1.00
O20    O     0.96630   0.16850   0.57670   0.01267  Uiso   1.00
O21    O     0.77100   0.45000   0.11020   0.01267  Uiso   1.00
O22    O     0.79000   0.47740   0.16920   0.01267  Uiso   1.00
O23    O     0.76710   0.68010   0.10970   0.01267  Uiso   1.00
O24    O     0.78850   0.57670   0.16850   0.01267  Uiso   1.00
O25    O     0.61020   0.66880   0.27100   0.01267  Uiso   1.00
O26    O     0.66920   0.56340   0.29000   0.01267  Uiso   1.00
O27    O     0.60970   0.44310   0.26710   0.01267  Uiso   1.00
O28    O     0.66850   0.46630   0.28850   0.01267  Uiso   1.00
O29    O     0.95000   0.27100   0.66880   0.01267  Uiso   1.00
O30    O     0.97740   0.29000   0.56340   0.01267  Uiso   1.00
O31    O     0.18010   0.26710   0.44310   0.01267  Uiso   1.00
O32    O     0.07670   0.28850   0.46630   0.01267  Uiso   1.00
O33    O     0.16880   0.45000   0.27100   0.01267  Uiso   1.00
O34    O     0.06340   0.47740   0.29000   0.01267  Uiso   1.00
O35    O     0.94310   0.68010   0.26710   0.01267  Uiso   1.00
O36    O     0.96630   0.57670   0.28850   0.01267  Uiso   1.00
O37    O     0.77100   0.11020   0.66880   0.01267  Uiso   1.00
O38    O     0.79000   0.16920   0.56340   0.01267  Uiso   1.00
O39    O     0.76710   0.10970   0.44310   0.01267  Uiso   1.00
O40    O     0.78850   0.16850   0.46630   0.01267  Uiso   1.00
O41    O     0.61020   0.27100   0.45000   0.01267  Uiso   1.00
O42    O     0.66920   0.29000   0.47740   0.01267  Uiso   1.00
O43    O     0.60970   0.26710   0.68010   0.01267  Uiso   1.00
O44    O     0.66850   0.28850   0.57670   0.01267  Uiso   1.00
O45    O     0.95000   0.66880   0.11020   0.01267  Uiso   1.00
O46    O     0.97740   0.56340   0.16920   0.01267  Uiso   1.00
O47    O     0.18010   0.44310   0.10970   0.01267  Uiso   1.00
O48    O     0.07670   0.46630   0.16850   0.01267  Uiso   1.00
O49    O     0.72900   0.83120   0.38980   0.01267  Uiso   1.00
O50    O     0.71000   0.93660   0.33080   0.01267  Uiso   1.00
O51    O     0.73290   0.05690   0.39030   0.01267  Uiso   1.00
O52    O     0.71150   0.03370   0.33150   0.01267  Uiso   1.00
O53    O     0.33120   0.22900   0.05000   0.01267  Uiso   1.00
O54    O     0.43660   0.21000   0.02260   0.01267  Uiso   1.00
O55    O     0.55690   0.23290   0.81990   0.01267  Uiso   1.00
O56    O     0.53370   0.21150   0.92330   0.01267  Uiso   1.00
O57    O     0.55000   0.38980   0.83120   0.01267  Uiso   1.00
O58    O     0.52260   0.33080   0.93660   0.01267  Uiso   1.00
O59    O     0.31990   0.39030   0.05690   0.01267  Uiso   1.00
O60    O     0.42330   0.33150   0.03370   0.01267  Uiso   1.00
O61    O     0.88980   0.05000   0.22900   0.01267  Uiso   1.00
O62    O     0.83080   0.02260   0.21000   0.01267  Uiso   1.00
O63    O     0.89030   0.81990   0.23290   0.01267  Uiso   1.00
O64    O     0.83150   0.92330   0.21150   0.01267  Uiso   1.00
O65    O     0.88980   0.83120   0.05000   0.01267  Uiso   1.00
O66    O     0.83080   0.93660   0.02260   0.01267  Uiso   1.00
O67    O     0.89030   0.05690   0.81990   0.01267  Uiso   1.00
O68    O     0.83150   0.03370   0.92330   0.01267  Uiso   1.00
O69    O     0.55000   0.22900   0.38980   0.01267  Uiso   1.00
O70    O     0.52260   0.21000   0.33080   0.01267  Uiso   1.00
O71    O     0.31990   0.23290   0.39030   0.01267  Uiso   1.00
O72    O     0.42330   0.21150   0.33150   0.01267  Uiso   1.00
O73    O     0.33120   0.38980   0.22900   0.01267  Uiso   1.00
O74    O     0.43660   0.33080   0.21000   0.01267  Uiso   1.00
O75    O     0.55690   0.39030   0.23290   0.01267  Uiso   1.00
O76    O     0.53370   0.33150   0.21150   0.01267  Uiso   1.00
O77    O     0.72900   0.05000   0.83120   0.01267  Uiso   1.00
O78    O     0.71000   0.02260   0.93660   0.01267  Uiso   1.00
O79    O     0.73290   0.81990   0.05690   0.01267  Uiso   1.00
O80    O     0.71150   0.92330   0.03370   0.01267  Uiso   1.00
O81    O     0.55000   0.83120   0.22900   0.01267  Uiso   1.00
O82    O     0.52260   0.93660   0.21000   0.01267  Uiso   1.00
O83    O     0.31990   0.05690   0.23290   0.01267  Uiso   1.00
O84    O     0.42330   0.03370   0.21150   0.01267  Uiso   1.00
O85    O     0.88980   0.22900   0.83120   0.01267  Uiso   1.00
O86    O     0.83080   0.21000   0.93660   0.01267  Uiso   1.00
O87    O     0.89030   0.23290   0.05690   0.01267  Uiso   1.00
O88    O     0.83150   0.21150   0.03370   0.01267  Uiso   1.00
O89    O     0.72900   0.38980   0.05000   0.01267  Uiso   1.00
O90    O     0.71000   0.33080   0.02260   0.01267  Uiso   1.00
O91    O     0.73290   0.39030   0.81990   0.01267  Uiso   1.00
O92    O     0.71150   0.33150   0.92330   0.01267  Uiso   1.00
O93    O     0.33120   0.05000   0.38980   0.01267  Uiso   1.00
O94    O     0.43660   0.02260   0.33080   0.01267  Uiso   1.00
O95    O     0.55690   0.81990   0.39030   0.01267  Uiso   1.00
O96    O     0.53370   0.92330   0.33150   0.01267  Uiso   1.00
O97    O     0.83120   0.72900   0.88980   0.01267  Uiso   1.00
O98    O     0.93660   0.71000   0.83080   0.01267  Uiso   1.00
O99    O     0.05690   0.73290   0.89030   0.01267  Uiso   1.00
O100   O     0.03370   0.71150   0.83150   0.01267  Uiso   1.00
O101   O     0.22900   0.33120   0.55000   0.01267  Uiso   1.00
O102   O     0.21000   0.43660   0.52260   0.01267  Uiso   1.00
O103   O     0.23290   0.55690   0.31990   0.01267  Uiso   1.00
O104   O     0.21150   0.53370   0.42330   0.01267  Uiso   1.00
O105   O     0.38980   0.55000   0.33120   0.01267  Uiso   1.00
O106   O     0.33080   0.52260   0.43660   0.01267  Uiso   1.00
O107   O     0.39030   0.31990   0.55690   0.01267  Uiso   1.00
O108   O     0.33150   0.42330   0.53370   0.01267  Uiso   1.00
O109   O     0.05000   0.88980   0.72900   0.01267  Uiso   1.00
O110   O     0.02260   0.83080   0.71000   0.01267  Uiso   1.00
O111   O     0.81990   0.89030   0.73290   0.01267  Uiso   1.00
O112   O     0.92330   0.83150   0.71150   0.01267  Uiso   1.00
O113   O     0.83120   0.88980   0.55000   0.01267  Uiso   1.00
O114   O     0.93660   0.83080   0.52260   0.01267  Uiso   1.00
O115   O     0.05690   0.89030   0.31990   0.01267  Uiso   1.00
O116   O     0.03370   0.83150   0.42330   0.01267  Uiso   1.00
O117   O     0.22900   0.55000   0.88980   0.01267  Uiso   1.00
O118   O     0.21000   0.52260   0.83080   0.01267  Uiso   1.00
O119   O     0.23290   0.31990   0.89030   0.01267  Uiso   1.00
O120   O     0.21150   0.42330   0.83150   0.01267  Uiso   1.00
O121   O     0.38980   0.33120   0.72900   0.01267  Uiso   1.00
O122   O     0.33080   0.43660   0.71000   0.01267  Uiso   1.00
O123   O     0.39030   0.55690   0.73290   0.01267  Uiso   1.00
O124   O     0.33150   0.53370   0.71150   0.01267  Uiso   1.00
O125   O     0.05000   0.72900   0.33120   0.01267  Uiso   1.00
O126   O     0.02260   0.71000   0.43660   0.01267  Uiso   1.00
O127   O     0.81990   0.73290   0.55690   0.01267  Uiso   1.00
O128   O     0.92330   0.71150   0.53370   0.01267  Uiso   1.00
O129   O     0.83120   0.55000   0.72900   0.01267  Uiso   1.00
O130   O     0.93660   0.52260   0.71000   0.01267  Uiso   1.00
O131   O     0.05690   0.31990   0.73290   0.01267  Uiso   1.00
O132   O     0.03370   0.42330   0.71150   0.01267  Uiso   1.00
O133   O     0.22900   0.88980   0.33120   0.01267  Uiso   1.00
O134   O     0.21000   0.83080   0.43660   0.01267  Uiso   1.00
O135   O     0.23290   0.89030   0.55690   0.01267  Uiso   1.00
O136   O     0.21150   0.83150   0.53370   0.01267  Uiso   1.00
O137   O     0.38980   0.72900   0.55000   0.01267  Uiso   1.00
O138   O     0.33080   0.71000   0.52260   0.01267  Uiso   1.00
O139   O     0.39030   0.73290   0.31990   0.01267  Uiso   1.00
O140   O     0.33150   0.71150   0.42330   0.01267  Uiso   1.00
O141   O     0.05000   0.33120   0.88980   0.01267  Uiso   1.00
O142   O     0.02260   0.43660   0.83080   0.01267  Uiso   1.00
O143   O     0.81990   0.55690   0.89030   0.01267  Uiso   1.00
O144   O     0.92330   0.53370   0.83150   0.01267  Uiso   1.00
O145   O     0.27100   0.16880   0.61020   0.01267  Uiso   1.00
O146   O     0.29000   0.06340   0.66920   0.01267  Uiso   1.00
O147   O     0.26710   0.94310   0.60970   0.01267  Uiso   1.00
O148   O     0.28850   0.96630   0.66850   0.01267  Uiso   1.00
O149   O     0.66880   0.77100   0.95000   0.01267  Uiso   1.00
O150   O     0.56340   0.79000   0.97740   0.01267  Uiso   1.00
O151   O     0.44310   0.76710   0.18010   0.01267  Uiso   1.00
O152   O     0.46630   0.78850   0.07670   0.01267  Uiso   1.00
O153   O     0.45000   0.61020   0.16880   0.01267  Uiso   1.00
O154   O     0.47740   0.66920   0.06340   0.01267  Uiso   1.00
O155   O     0.68010   0.60970   0.94310   0.01267  Uiso   1.00
O156   O     0.57670   0.66850   0.96630   0.01267  Uiso   1.00
O157   O     0.11020   0.95000   0.77100   0.01267  Uiso   1.00
O158   O     0.16920   0.97740   0.79000   0.01267  Uiso   1.00
O159   O     0.10970   0.18010   0.76710   0.01267  Uiso   1.00
O160   O     0.16850   0.07670   0.78850   0.01267  Uiso   1.00
O161   O     0.11020   0.16880   0.95000   0.01267  Uiso   1.00
O162   O     0.16920   0.06340   0.97740   0.01267  Uiso   1.00
O163   O     0.10970   0.94310   0.18010   0.01267  Uiso   1.00
O164   O     0.16850   0.96630   0.07670   0.01267  Uiso   1.00
O165   O     0.45000   0.77100   0.61020   0.01267  Uiso   1.00
O166   O     0.47740   0.79000   0.66920   0.01267  Uiso   1.00
O167   O     0.68010   0.76710   0.60970   0.01267  Uiso   1.00
O168   O     0.57670   0.78850   0.66850   0.01267  Uiso   1.00
O169   O     0.66880   0.61020   0.77100   0.01267  Uiso   1.00
O170   O     0.56340   0.66920   0.79000   0.01267  Uiso   1.00
O171   O     0.44310   0.60970   0.76710   0.01267  Uiso   1.00
O172   O     0.46630   0.66850   0.78850   0.01267  Uiso   1.00
O173   O     0.27100   0.95000   0.16880   0.01267  Uiso   1.00
O174   O     0.29000   0.97740   0.06340   0.01267  Uiso   1.00
O175   O     0.26710   0.18010   0.94310   0.01267  Uiso   1.00
O176   O     0.28850   0.07670   0.96630   0.01267  Uiso   1.00
O177   O     0.45000   0.16880   0.77100   0.01267  Uiso   1.00
O178   O     0.47740   0.06340   0.79000   0.01267  Uiso   1.00
O179   O     0.68010   0.94310   0.76710   0.01267  Uiso   1.00
O180   O     0.57670   0.96630   0.78850   0.01267  Uiso   1.00
O181   O     0.11020   0.77100   0.16880   0.01267  Uiso   1.00
O182   O     0.16920   0.79000   0.06340   0.01267  Uiso   1.00
O183   O     0.10970   0.76710   0.94310   0.01267  Uiso   1.00
O184   O     0.16850   0.78850   0.96630   0.01267  Uiso   1.00
O185   O     0.27100   0.61020   0.95000   0.01267  Uiso   1.00
O186   O     0.29000   0.66920   0.97740   0.01267  Uiso   1.00
O187   O     0.26710   0.60970   0.18010   0.01267  Uiso   1.00
O188   O     0.28850   0.66850   0.07670   0.01267  Uiso   1.00
O189   O     0.66880   0.95000   0.61020   0.01267  Uiso   1.00
O190   O     0.56340   0.97740   0.66920   0.01267  Uiso   1.00
O191   O     0.44310   0.18010   0.60970   0.01267  Uiso   1.00
O192   O     0.46630   0.07670   0.66850   0.01267  Uiso   1.00
