data_TEHRUU_clean
_audit_creation_date              2014-07-02
_audit_creation_method            'Materials Studio'
_symmetry_space_group_name_H-M    'P1'
_symmetry_Int_Tables_number       1
_symmetry_cell_setting            triclinic
loop_
_symmetry_equiv_pos_as_xyz
  x,y,z
_cell_length_a                    8.7731
_cell_length_b                    11.0330
_cell_length_c                    25.6890
_cell_angle_alpha                 90.0000
_cell_angle_beta                  90.0000
_cell_angle_gamma                 101.8340
loop_
_atom_site_label
_atom_site_type_symbol
_atom_site_fract_x
_atom_site_fract_y
_atom_site_fract_z
_atom_site_U_iso_or_equiv
_atom_site_adp_type
_atom_site_occupancy
Nd1    Nd    0.69631   0.68673   0.58976   0.01267  Uiso   1.00
Nd2    Nd    0.30369   0.31327   0.08976   0.01267  Uiso   1.00
Nd3    Nd    0.30369   0.31327   0.41024   0.01267  Uiso   1.00
Nd4    Nd    0.69631   0.68673   0.91024   0.01267  Uiso   1.00
H1     H     0.32280   0.15910   0.58250   0.01267  Uiso   1.00
H2     H     0.45310   0.03050   0.62690   0.01267  Uiso   1.00
H3     H     0.97280   0.51730   0.70450   0.01267  Uiso   1.00
H4     H     0.67720   0.84090   0.08250   0.01267  Uiso   1.00
H5     H     0.54690   0.96950   0.12690   0.01267  Uiso   1.00
H6     H     0.02720   0.48270   0.20450   0.01267  Uiso   1.00
H7     H     0.67720   0.84090   0.41750   0.01267  Uiso   1.00
H8     H     0.54690   0.96950   0.37310   0.01267  Uiso   1.00
H9     H     0.02720   0.48270   0.29550   0.01267  Uiso   1.00
H10    H     0.32280   0.15910   0.91750   0.01267  Uiso   1.00
H11    H     0.45310   0.03050   0.87310   0.01267  Uiso   1.00
H12    H     0.97280   0.51730   0.79550   0.01267  Uiso   1.00
Ru1    Ru    0.11571   0.36460   0.61407   0.01267  Uiso   1.00
Ru2    Ru    0.88429   0.63540   0.11407   0.01267  Uiso   1.00
Ru3    Ru    0.88429   0.63540   0.38593   0.01267  Uiso   1.00
Ru4    Ru    0.11571   0.36460   0.88593   0.01267  Uiso   1.00
Ru5    Ru    0.50474   0.97072   0.75000   0.01267  Uiso   1.00
Ru6    Ru    0.49526   0.02928   0.25000   0.01267  Uiso   1.00
C1     C     0.25080   0.23510   0.69520   0.01267  Uiso   1.00
C2     C     0.32240   0.16090   0.61870   0.01267  Uiso   1.00
C3     C     0.40130   0.08170   0.64580   0.01267  Uiso   1.00
C4     C     0.32830   0.15730   0.72250   0.01267  Uiso   1.00
C5     C     0.17040   0.31510   0.72280   0.01267  Uiso   1.00
C6     C     0.02410   0.46380   0.72220   0.01267  Uiso   1.00
C7     C     0.58620   0.88050   0.69370   0.01267  Uiso   1.00
C8     C     0.92080   0.22780   0.60900   0.01267  Uiso   1.00
C9     C     0.98600   0.48650   0.59750   0.01267  Uiso   1.00
C10    C     0.84670   0.67270   0.45940   0.01267  Uiso   1.00
C11    C     0.30330   0.50210   0.61150   0.01267  Uiso   1.00
C12    C     0.74920   0.76490   0.19520   0.01267  Uiso   1.00
C13    C     0.67760   0.83910   0.11870   0.01267  Uiso   1.00
C14    C     0.59870   0.91830   0.14580   0.01267  Uiso   1.00
C15    C     0.67170   0.84270   0.22250   0.01267  Uiso   1.00
C16    C     0.82960   0.68490   0.22280   0.01267  Uiso   1.00
C17    C     0.97590   0.53620   0.22220   0.01267  Uiso   1.00
C18    C     0.41380   0.11950   0.19370   0.01267  Uiso   1.00
C19    C     0.07920   0.77220   0.10900   0.01267  Uiso   1.00
C20    C     0.01400   0.51350   0.09750   0.01267  Uiso   1.00
C21    C     0.15330   0.32730   0.95940   0.01267  Uiso   1.00
C22    C     0.69670   0.49790   0.11150   0.01267  Uiso   1.00
C23    C     0.74920   0.76490   0.30480   0.01267  Uiso   1.00
C24    C     0.67760   0.83910   0.38130   0.01267  Uiso   1.00
C25    C     0.59870   0.91830   0.35420   0.01267  Uiso   1.00
C26    C     0.67170   0.84270   0.27750   0.01267  Uiso   1.00
C27    C     0.82960   0.68490   0.27720   0.01267  Uiso   1.00
C28    C     0.97590   0.53620   0.27780   0.01267  Uiso   1.00
C29    C     0.41380   0.11950   0.30630   0.01267  Uiso   1.00
C30    C     0.07920   0.77220   0.39100   0.01267  Uiso   1.00
C31    C     0.01400   0.51350   0.40250   0.01267  Uiso   1.00
C32    C     0.15330   0.32730   0.54060   0.01267  Uiso   1.00
C33    C     0.69670   0.49790   0.38850   0.01267  Uiso   1.00
C34    C     0.25080   0.23510   0.80480   0.01267  Uiso   1.00
C35    C     0.32240   0.16090   0.88130   0.01267  Uiso   1.00
C36    C     0.40130   0.08170   0.85420   0.01267  Uiso   1.00
C37    C     0.32830   0.15730   0.77750   0.01267  Uiso   1.00
C38    C     0.17040   0.31510   0.77720   0.01267  Uiso   1.00
C39    C     0.02410   0.46380   0.77780   0.01267  Uiso   1.00
C40    C     0.58620   0.88050   0.80630   0.01267  Uiso   1.00
C41    C     0.92080   0.22780   0.89100   0.01267  Uiso   1.00
C42    C     0.98600   0.48650   0.90250   0.01267  Uiso   1.00
C43    C     0.84670   0.67270   0.04060   0.01267  Uiso   1.00
C44    C     0.30330   0.50210   0.88850   0.01267  Uiso   1.00
C45    C     0.30800   0.83630   0.75000   0.01267  Uiso   1.00
C46    C     0.70020   0.10480   0.75000   0.01267  Uiso   1.00
C47    C     0.69200   0.16370   0.25000   0.01267  Uiso   1.00
C48    C     0.29980   0.89520   0.25000   0.01267  Uiso   1.00
N1     N     0.24760   0.23820   0.64230   0.01267  Uiso   1.00
N2     N     0.40390   0.07780   0.69750   0.01267  Uiso   1.00
N3     N     0.09520   0.38960   0.69500   0.01267  Uiso   1.00
N4     N     0.62620   0.82860   0.65830   0.01267  Uiso   1.00
N5     N     0.80880   0.15280   0.60190   0.01267  Uiso   1.00
N6     N     0.90800   0.55840   0.59080   0.01267  Uiso   1.00
N7     N     0.82410   0.70120   0.50130   0.01267  Uiso   1.00
N8     N     0.41140   0.58410   0.60880   0.01267  Uiso   1.00
N9     N     0.75240   0.76180   0.14230   0.01267  Uiso   1.00
N10    N     0.59610   0.92220   0.19750   0.01267  Uiso   1.00
N11    N     0.90480   0.61040   0.19500   0.01267  Uiso   1.00
N12    N     0.37380   0.17140   0.15830   0.01267  Uiso   1.00
N13    N     0.19120   0.84720   0.10190   0.01267  Uiso   1.00
N14    N     0.09200   0.44160   0.09080   0.01267  Uiso   1.00
N15    N     0.17590   0.29880   0.00130   0.01267  Uiso   1.00
N16    N     0.58860   0.41590   0.10880   0.01267  Uiso   1.00
N17    N     0.75240   0.76180   0.35770   0.01267  Uiso   1.00
N18    N     0.59610   0.92220   0.30250   0.01267  Uiso   1.00
N19    N     0.90480   0.61040   0.30500   0.01267  Uiso   1.00
N20    N     0.37380   0.17140   0.34170   0.01267  Uiso   1.00
N21    N     0.19120   0.84720   0.39810   0.01267  Uiso   1.00
N22    N     0.09200   0.44160   0.40920   0.01267  Uiso   1.00
N23    N     0.17590   0.29880   0.49870   0.01267  Uiso   1.00
N24    N     0.58860   0.41590   0.39120   0.01267  Uiso   1.00
N25    N     0.24760   0.23820   0.85770   0.01267  Uiso   1.00
N26    N     0.40390   0.07780   0.80250   0.01267  Uiso   1.00
N27    N     0.09520   0.38960   0.80500   0.01267  Uiso   1.00
N28    N     0.62620   0.82860   0.84170   0.01267  Uiso   1.00
N29    N     0.80880   0.15280   0.89810   0.01267  Uiso   1.00
N30    N     0.90800   0.55840   0.90920   0.01267  Uiso   1.00
N31    N     0.82410   0.70120   0.99870   0.01267  Uiso   1.00
N32    N     0.41140   0.58410   0.89120   0.01267  Uiso   1.00
N33    N     0.19880   0.75740   0.75000   0.01267  Uiso   1.00
N34    N     0.80730   0.18750   0.75000   0.01267  Uiso   1.00
N35    N     0.80120   0.24260   0.25000   0.01267  Uiso   1.00
N36    N     0.19270   0.81250   0.25000   0.01267  Uiso   1.00
