data_image0
_cell_length_a       15.0412
_cell_length_b       15.8919
_cell_length_c       28.221
_cell_angle_alpha    90
_cell_angle_beta     90
_cell_angle_gamma    90

_symmetry_space_group_name_H-M    "P 1"
_symmetry_int_tables_number       1

loop_
  _symmetry_equiv_pos_as_xyz
  'x, y, z'

loop_
  _atom_site_label
  _atom_site_occupancy
  _atom_site_fract_x
  _atom_site_fract_y
  _atom_site_fract_z
  _atom_site_thermal_displace_type
  _atom_site_B_iso_or_equiv
  _atom_site_type_symbol
  C1       1.0000 0.81800  0.22320  0.03052  Biso   1.000  C
  C2       1.0000 0.88840  0.19360  0.06385  Biso   1.000  C
  C3       1.0000 0.76950  0.29570  0.04093  Biso   1.000  C
  H1       1.0000 0.78250  0.32660  0.06810  Biso   1.000  H
  C4       1.0000 0.79840  0.17800  0.98936  Biso   1.000  C
  H2       1.0000 0.83090  0.12990  0.98210  Biso   1.000  H
  O1       1.0000 0.94220  0.13660  0.05000  Biso   1.000  O
  O2       1.0000 0.89150  0.22430  0.10476  Biso   1.000  O
  C5       1.0000 0.81800  0.72320  0.53052  Biso   1.000  C
  C6       1.0000 0.88840  0.69360  0.56385  Biso   1.000  C
  C7       1.0000 0.76950  0.79570  0.54093  Biso   1.000  C
  H3       1.0000 0.78250  0.82660  0.56810  Biso   1.000  H
  C8       1.0000 0.79840  0.67800  0.48936  Biso   1.000  C
  H4       1.0000 0.83090  0.62990  0.48210  Biso   1.000  H
  O3       1.0000 0.94220  0.63660  0.55000  Biso   1.000  O
  O4       1.0000 0.89150  0.72430  0.60476  Biso   1.000  O
  C9       1.0000 0.31800  0.22320  0.53052  Biso   1.000  C
  C10      1.0000 0.38840  0.19360  0.56385  Biso   1.000  C
  C11      1.0000 0.26950  0.29570  0.54093  Biso   1.000  C
  H5       1.0000 0.28250  0.32660  0.56810  Biso   1.000  H
  C12      1.0000 0.29840  0.17800  0.48936  Biso   1.000  C
  H6       1.0000 0.33090  0.12990  0.48210  Biso   1.000  H
  O5       1.0000 0.44220  0.13660  0.55000  Biso   1.000  O
  O6       1.0000 0.39150  0.22430  0.60476  Biso   1.000  O
  C13      1.0000 0.31800  0.72320  0.03052  Biso   1.000  C
  C14      1.0000 0.38840  0.69360  0.06385  Biso   1.000  C
  C15      1.0000 0.26950  0.79570  0.04093  Biso   1.000  C
  H7       1.0000 0.28250  0.82660  0.06810  Biso   1.000  H
  C16      1.0000 0.29840  0.67800  0.98936  Biso   1.000  C
  H8       1.0000 0.33090  0.62990  0.98210  Biso   1.000  H
  O7       1.0000 0.44220  0.63660  0.05000  Biso   1.000  O
  O8       1.0000 0.39150  0.72430  0.10476  Biso   1.000  O
  C17      1.0000 0.93200  0.52680  0.03052  Biso   1.000  C
  C18      1.0000 0.86160  0.55640  0.06385  Biso   1.000  C
  C19      1.0000 0.98050  0.45430  0.04093  Biso   1.000  C
  H9       1.0000 0.96750  0.42340  0.06810  Biso   1.000  H
  C20      1.0000 0.95160  0.57200  0.98936  Biso   1.000  C
  H10      1.0000 0.91910  0.62010  0.98210  Biso   1.000  H
  O9       1.0000 0.80780  0.61340  0.05000  Biso   1.000  O
  O10      1.0000 0.85850  0.52570  0.10476  Biso   1.000  O
  C21      1.0000 0.93200  0.02680  0.53052  Biso   1.000  C
  C22      1.0000 0.86160  0.05640  0.56385  Biso   1.000  C
  C23      1.0000 0.98050  0.95430  0.54093  Biso   1.000  C
  H11      1.0000 0.96750  0.92340  0.56810  Biso   1.000  H
  C24      1.0000 0.95160  0.07200  0.48936  Biso   1.000  C
  H12      1.0000 0.91910  0.12010  0.48210  Biso   1.000  H
  O11      1.0000 0.80780  0.11340  0.55000  Biso   1.000  O
  O12      1.0000 0.85850  0.02570  0.60476  Biso   1.000  O
  C25      1.0000 0.43200  0.52680  0.53052  Biso   1.000  C
  C26      1.0000 0.36160  0.55640  0.56385  Biso   1.000  C
  C27      1.0000 0.48050  0.45430  0.54093  Biso   1.000  C
  H13      1.0000 0.46750  0.42340  0.56810  Biso   1.000  H
  C28      1.0000 0.45160  0.57200  0.48936  Biso   1.000  C
  H14      1.0000 0.41910  0.62010  0.48210  Biso   1.000  H
  O13      1.0000 0.30780  0.61340  0.55000  Biso   1.000  O
  O14      1.0000 0.35850  0.52570  0.60476  Biso   1.000  O
  C29      1.0000 0.43200  0.02680  0.03052  Biso   1.000  C
  C30      1.0000 0.36160  0.05640  0.06385  Biso   1.000  C
  C31      1.0000 0.48050  0.95430  0.04093  Biso   1.000  C
  H15      1.0000 0.46750  0.92340  0.06810  Biso   1.000  H
  C32      1.0000 0.45160  0.07200  0.98936  Biso   1.000  C
  H16      1.0000 0.41910  0.12010  0.98210  Biso   1.000  H
  O15      1.0000 0.30780  0.11340  0.05000  Biso   1.000  O
  O16      1.0000 0.35850  0.02570  0.10476  Biso   1.000  O
  C33      1.0000 0.93200  0.22320  0.71948  Biso   1.000  C
  C34      1.0000 0.86160  0.19360  0.68615  Biso   1.000  C
  C35      1.0000 0.98050  0.29570  0.70907  Biso   1.000  C
  H17      1.0000 0.96750  0.32660  0.68190  Biso   1.000  H
  C36      1.0000 0.95160  0.17800  0.76064  Biso   1.000  C
  H18      1.0000 0.91910  0.12990  0.76790  Biso   1.000  H
  O17      1.0000 0.80780  0.13660  0.70000  Biso   1.000  O
  O18      1.0000 0.85850  0.22430  0.64524  Biso   1.000  O
  C37      1.0000 0.93200  0.72320  0.21948  Biso   1.000  C
  C38      1.0000 0.86160  0.69360  0.18615  Biso   1.000  C
  C39      1.0000 0.98050  0.79570  0.20907  Biso   1.000  C
  H19      1.0000 0.96750  0.82660  0.18190  Biso   1.000  H
  C40      1.0000 0.95160  0.67800  0.26064  Biso   1.000  C
  H20      1.0000 0.91910  0.62990  0.26790  Biso   1.000  H
  O19      1.0000 0.80780  0.63660  0.20000  Biso   1.000  O
  O20      1.0000 0.85850  0.72430  0.14524  Biso   1.000  O
  C41      1.0000 0.43200  0.22320  0.21948  Biso   1.000  C
  C42      1.0000 0.36160  0.19360  0.18615  Biso   1.000  C
  C43      1.0000 0.48050  0.29570  0.20907  Biso   1.000  C
  H21      1.0000 0.46750  0.32660  0.18190  Biso   1.000  H
  C44      1.0000 0.45160  0.17800  0.26064  Biso   1.000  C
  H22      1.0000 0.41910  0.12990  0.26790  Biso   1.000  H
  O21      1.0000 0.30780  0.13660  0.20000  Biso   1.000  O
  O22      1.0000 0.35850  0.22430  0.14524  Biso   1.000  O
  C45      1.0000 0.43200  0.72320  0.71948  Biso   1.000  C
  C46      1.0000 0.36160  0.69360  0.68615  Biso   1.000  C
  C47      1.0000 0.48050  0.79570  0.70907  Biso   1.000  C
  H23      1.0000 0.46750  0.82660  0.68190  Biso   1.000  H
  C48      1.0000 0.45160  0.67800  0.76064  Biso   1.000  C
  H24      1.0000 0.41910  0.62990  0.76790  Biso   1.000  H
  O23      1.0000 0.30780  0.63660  0.70000  Biso   1.000  O
  O24      1.0000 0.35850  0.72430  0.64524  Biso   1.000  O
  C49      1.0000 0.81800  0.52680  0.71948  Biso   1.000  C
  C50      1.0000 0.88840  0.55640  0.68615  Biso   1.000  C
  C51      1.0000 0.76950  0.45430  0.70907  Biso   1.000  C
  H25      1.0000 0.78250  0.42340  0.68190  Biso   1.000  H
  C52      1.0000 0.79840  0.57200  0.76064  Biso   1.000  C
  H26      1.0000 0.83090  0.62010  0.76790  Biso   1.000  H
  O25      1.0000 0.94220  0.61340  0.70000  Biso   1.000  O
  O26      1.0000 0.89150  0.52570  0.64524  Biso   1.000  O
  C53      1.0000 0.81800  0.02680  0.21948  Biso   1.000  C
  C54      1.0000 0.88840  0.05640  0.18615  Biso   1.000  C
  C55      1.0000 0.76950  0.95430  0.20907  Biso   1.000  C
  H27      1.0000 0.78250  0.92340  0.18190  Biso   1.000  H
  C56      1.0000 0.79840  0.07200  0.26064  Biso   1.000  C
  H28      1.0000 0.83090  0.12010  0.26790  Biso   1.000  H
  O27      1.0000 0.94220  0.11340  0.20000  Biso   1.000  O
  O28      1.0000 0.89150  0.02570  0.14524  Biso   1.000  O
  C57      1.0000 0.31800  0.52680  0.21948  Biso   1.000  C
  C58      1.0000 0.38840  0.55640  0.18615  Biso   1.000  C
  C59      1.0000 0.26950  0.45430  0.20907  Biso   1.000  C
  H29      1.0000 0.28250  0.42340  0.18190  Biso   1.000  H
  C60      1.0000 0.29840  0.57200  0.26064  Biso   1.000  C
  H30      1.0000 0.33090  0.62010  0.26790  Biso   1.000  H
  O29      1.0000 0.44220  0.61340  0.20000  Biso   1.000  O
  O30      1.0000 0.39150  0.52570  0.14524  Biso   1.000  O
  C61      1.0000 0.31800  0.02680  0.71948  Biso   1.000  C
  C62      1.0000 0.38840  0.05640  0.68615  Biso   1.000  C
  C63      1.0000 0.26950  0.95430  0.70907  Biso   1.000  C
  H31      1.0000 0.28250  0.92340  0.68190  Biso   1.000  H
  C64      1.0000 0.29840  0.07200  0.76064  Biso   1.000  C
  H32      1.0000 0.33090  0.12010  0.76790  Biso   1.000  H
  O31      1.0000 0.44220  0.11340  0.70000  Biso   1.000  O
  O32      1.0000 0.39150  0.02570  0.64524  Biso   1.000  O
  C65      1.0000 0.18200  0.77680  0.96948  Biso   1.000  C
  C66      1.0000 0.11160  0.80640  0.93615  Biso   1.000  C
  C67      1.0000 0.23050  0.70430  0.95907  Biso   1.000  C
  H33      1.0000 0.21750  0.67340  0.93190  Biso   1.000  H
  C68      1.0000 0.20160  0.82200  0.01064  Biso   1.000  C
  H34      1.0000 0.16910  0.87010  0.01790  Biso   1.000  H
  O33      1.0000 0.05780  0.86340  0.95000  Biso   1.000  O
  O34      1.0000 0.10850  0.77570  0.89524  Biso   1.000  O
  C69      1.0000 0.18200  0.27680  0.46948  Biso   1.000  C
  C70      1.0000 0.11160  0.30640  0.43615  Biso   1.000  C
  C71      1.0000 0.23050  0.20430  0.45907  Biso   1.000  C
  H35      1.0000 0.21750  0.17340  0.43190  Biso   1.000  H
  C72      1.0000 0.20160  0.32200  0.51064  Biso   1.000  C
  H36      1.0000 0.16910  0.37010  0.51790  Biso   1.000  H
  O35      1.0000 0.05780  0.36340  0.45000  Biso   1.000  O
  O36      1.0000 0.10850  0.27570  0.39524  Biso   1.000  O
  C73      1.0000 0.68200  0.77680  0.46948  Biso   1.000  C
  C74      1.0000 0.61160  0.80640  0.43615  Biso   1.000  C
  C75      1.0000 0.73050  0.70430  0.45907  Biso   1.000  C
  H37      1.0000 0.71750  0.67340  0.43190  Biso   1.000  H
  C76      1.0000 0.70160  0.82200  0.51064  Biso   1.000  C
  H38      1.0000 0.66910  0.87010  0.51790  Biso   1.000  H
  O37      1.0000 0.55780  0.86340  0.45000  Biso   1.000  O
  O38      1.0000 0.60850  0.77570  0.39524  Biso   1.000  O
  C77      1.0000 0.68200  0.27680  0.96948  Biso   1.000  C
  C78      1.0000 0.61160  0.30640  0.93615  Biso   1.000  C
  C79      1.0000 0.73050  0.20430  0.95907  Biso   1.000  C
  H39      1.0000 0.71750  0.17340  0.93190  Biso   1.000  H
  C80      1.0000 0.70160  0.32200  0.01064  Biso   1.000  C
  H40      1.0000 0.66910  0.37010  0.01790  Biso   1.000  H
  O39      1.0000 0.55780  0.36340  0.95000  Biso   1.000  O
  O40      1.0000 0.60850  0.27570  0.89524  Biso   1.000  O
  C81      1.0000 0.06800  0.47320  0.96948  Biso   1.000  C
  C82      1.0000 0.13840  0.44360  0.93615  Biso   1.000  C
  C83      1.0000 0.01950  0.54570  0.95907  Biso   1.000  C
  H41      1.0000 0.03250  0.57660  0.93190  Biso   1.000  H
  C84      1.0000 0.04840  0.42800  0.01064  Biso   1.000  C
  H42      1.0000 0.08090  0.37990  0.01790  Biso   1.000  H
  O41      1.0000 0.19220  0.38660  0.95000  Biso   1.000  O
  O42      1.0000 0.14150  0.47430  0.89524  Biso   1.000  O
  C85      1.0000 0.06800  0.97320  0.46948  Biso   1.000  C
  C86      1.0000 0.13840  0.94360  0.43615  Biso   1.000  C
  C87      1.0000 0.01950  0.04570  0.45907  Biso   1.000  C
  H43      1.0000 0.03250  0.07660  0.43190  Biso   1.000  H
  C88      1.0000 0.04840  0.92800  0.51064  Biso   1.000  C
  H44      1.0000 0.08090  0.87990  0.51790  Biso   1.000  H
  O43      1.0000 0.19220  0.88660  0.45000  Biso   1.000  O
  O44      1.0000 0.14150  0.97430  0.39524  Biso   1.000  O
  C89      1.0000 0.56800  0.47320  0.46948  Biso   1.000  C
  C90      1.0000 0.63840  0.44360  0.43615  Biso   1.000  C
  C91      1.0000 0.51950  0.54570  0.45907  Biso   1.000  C
  H45      1.0000 0.53250  0.57660  0.43190  Biso   1.000  H
  C92      1.0000 0.54840  0.42800  0.51064  Biso   1.000  C
  H46      1.0000 0.58090  0.37990  0.51790  Biso   1.000  H
  O45      1.0000 0.69220  0.38660  0.45000  Biso   1.000  O
  O46      1.0000 0.64150  0.47430  0.39524  Biso   1.000  O
  C93      1.0000 0.56800  0.97320  0.96948  Biso   1.000  C
  C94      1.0000 0.63840  0.94360  0.93615  Biso   1.000  C
  C95      1.0000 0.51950  0.04570  0.95907  Biso   1.000  C
  H47      1.0000 0.53250  0.07660  0.93190  Biso   1.000  H
  C96      1.0000 0.54840  0.92800  0.01064  Biso   1.000  C
  H48      1.0000 0.58090  0.87990  0.01790  Biso   1.000  H
  O47      1.0000 0.69220  0.88660  0.95000  Biso   1.000  O
  O48      1.0000 0.64150  0.97430  0.89524  Biso   1.000  O
  C97      1.0000 0.06800  0.77680  0.28052  Biso   1.000  C
  C98      1.0000 0.13840  0.80640  0.31385  Biso   1.000  C
  C99      1.0000 0.01950  0.70430  0.29093  Biso   1.000  C
  H49      1.0000 0.03250  0.67340  0.31810  Biso   1.000  H
  C100     1.0000 0.04840  0.82200  0.23936  Biso   1.000  C
  H50      1.0000 0.08090  0.87010  0.23210  Biso   1.000  H
  O49      1.0000 0.19220  0.86340  0.30000  Biso   1.000  O
  O50      1.0000 0.14150  0.77570  0.35476  Biso   1.000  O
  C101     1.0000 0.06800  0.27680  0.78052  Biso   1.000  C
  C102     1.0000 0.13840  0.30640  0.81385  Biso   1.000  C
  C103     1.0000 0.01950  0.20430  0.79093  Biso   1.000  C
  H51      1.0000 0.03250  0.17340  0.81810  Biso   1.000  H
  C104     1.0000 0.04840  0.32200  0.73936  Biso   1.000  C
  H52      1.0000 0.08090  0.37010  0.73210  Biso   1.000  H
  O51      1.0000 0.19220  0.36340  0.80000  Biso   1.000  O
  O52      1.0000 0.14150  0.27570  0.85476  Biso   1.000  O
  C105     1.0000 0.56800  0.77680  0.78052  Biso   1.000  C
  C106     1.0000 0.63840  0.80640  0.81385  Biso   1.000  C
  C107     1.0000 0.51950  0.70430  0.79093  Biso   1.000  C
  H53      1.0000 0.53250  0.67340  0.81810  Biso   1.000  H
  C108     1.0000 0.54840  0.82200  0.73936  Biso   1.000  C
  H54      1.0000 0.58090  0.87010  0.73210  Biso   1.000  H
  O53      1.0000 0.69220  0.86340  0.80000  Biso   1.000  O
  O54      1.0000 0.64150  0.77570  0.85476  Biso   1.000  O
  C109     1.0000 0.56800  0.27680  0.28052  Biso   1.000  C
  C110     1.0000 0.63840  0.30640  0.31385  Biso   1.000  C
  C111     1.0000 0.51950  0.20430  0.29093  Biso   1.000  C
  H55      1.0000 0.53250  0.17340  0.31810  Biso   1.000  H
  C112     1.0000 0.54840  0.32200  0.23936  Biso   1.000  C
  H56      1.0000 0.58090  0.37010  0.23210  Biso   1.000  H
  O55      1.0000 0.69220  0.36340  0.30000  Biso   1.000  O
  O56      1.0000 0.64150  0.27570  0.35476  Biso   1.000  O
  C113     1.0000 0.18200  0.47320  0.28052  Biso   1.000  C
  C114     1.0000 0.11160  0.44360  0.31385  Biso   1.000  C
  C115     1.0000 0.23050  0.54570  0.29093  Biso   1.000  C
  H57      1.0000 0.21750  0.57660  0.31810  Biso   1.000  H
  C116     1.0000 0.20160  0.42800  0.23936  Biso   1.000  C
  H58      1.0000 0.16910  0.37990  0.23210  Biso   1.000  H
  O57      1.0000 0.05780  0.38660  0.30000  Biso   1.000  O
  O58      1.0000 0.10850  0.47430  0.35476  Biso   1.000  O
  C117     1.0000 0.18200  0.97320  0.78052  Biso   1.000  C
  C118     1.0000 0.11160  0.94360  0.81385  Biso   1.000  C
  C119     1.0000 0.23050  0.04570  0.79093  Biso   1.000  C
  H59      1.0000 0.21750  0.07660  0.81810  Biso   1.000  H
  C120     1.0000 0.20160  0.92800  0.73936  Biso   1.000  C
  H60      1.0000 0.16910  0.87990  0.73210  Biso   1.000  H
  O59      1.0000 0.05780  0.88660  0.80000  Biso   1.000  O
  O60      1.0000 0.10850  0.97430  0.85476  Biso   1.000  O
  C121     1.0000 0.68200  0.47320  0.78052  Biso   1.000  C
  C122     1.0000 0.61160  0.44360  0.81385  Biso   1.000  C
  C123     1.0000 0.73050  0.54570  0.79093  Biso   1.000  C
  H61      1.0000 0.71750  0.57660  0.81810  Biso   1.000  H
  C124     1.0000 0.70160  0.42800  0.73936  Biso   1.000  C
  H62      1.0000 0.66910  0.37990  0.73210  Biso   1.000  H
  O61      1.0000 0.55780  0.38660  0.80000  Biso   1.000  O
  O62      1.0000 0.60850  0.47430  0.85476  Biso   1.000  O
  C125     1.0000 0.68200  0.97320  0.28052  Biso   1.000  C
  C126     1.0000 0.61160  0.94360  0.31385  Biso   1.000  C
  C127     1.0000 0.73050  0.04570  0.29093  Biso   1.000  C
  H63      1.0000 0.71750  0.07660  0.31810  Biso   1.000  H
  C128     1.0000 0.70160  0.92800  0.23936  Biso   1.000  C
  H64      1.0000 0.66910  0.87990  0.23210  Biso   1.000  H
  O63      1.0000 0.55780  0.88660  0.30000  Biso   1.000  O
  O64      1.0000 0.60850  0.97430  0.35476  Biso   1.000  O
  Cd1      1.0000 0.00310  0.12500  0.12500  Biso   1.000  Cd
  Cd2      1.0000 0.00310  0.62500  0.62500  Biso   1.000  Cd
  Cd3      1.0000 0.50310  0.12500  0.62500  Biso   1.000  Cd
  Cd4      1.0000 0.74690  0.62500  0.12500  Biso   1.000  Cd
  Cd5      1.0000 0.24690  0.62500  0.62500  Biso   1.000  Cd
  Cd6      1.0000 0.74690  0.12500  0.62500  Biso   1.000  Cd
  Cd7      1.0000 0.24690  0.12500  0.12500  Biso   1.000  Cd
  Cd8      1.0000 0.50310  0.62500  0.12500  Biso   1.000  Cd
  Cd9      1.0000 0.99690  0.87500  0.87500  Biso   1.000  Cd
  Cd10     1.0000 0.99690  0.37500  0.37500  Biso   1.000  Cd
  Cd11     1.0000 0.49690  0.87500  0.37500  Biso   1.000  Cd
  Cd12     1.0000 0.25310  0.37500  0.87500  Biso   1.000  Cd
  Cd13     1.0000 0.75310  0.37500  0.37500  Biso   1.000  Cd
  Cd14     1.0000 0.25310  0.87500  0.37500  Biso   1.000  Cd
  Cd15     1.0000 0.75310  0.87500  0.87500  Biso   1.000  Cd
  Cd16     1.0000 0.49690  0.37500  0.87500  Biso   1.000  Cd
  Cl1      1.0000 0.12500  0.01262  0.12500  Biso   1.000  Cl
  Cl2      1.0000 0.12500  0.51262  0.62500  Biso   1.000  Cl
  Cl3      1.0000 0.62500  0.01262  0.62500  Biso   1.000  Cl
  Cl4      1.0000 0.62500  0.73738  0.12500  Biso   1.000  Cl
  Cl5      1.0000 0.62500  0.23738  0.62500  Biso   1.000  Cl
  Cl6      1.0000 0.62500  0.51262  0.12500  Biso   1.000  Cl
  Cl7      1.0000 0.12500  0.73738  0.62500  Biso   1.000  Cl
  Cl8      1.0000 0.12500  0.23738  0.12500  Biso   1.000  Cl
  Cl9      1.0000 0.87500  0.98738  0.87500  Biso   1.000  Cl
  Cl10     1.0000 0.87500  0.48738  0.37500  Biso   1.000  Cl
  Cl11     1.0000 0.37500  0.98738  0.37500  Biso   1.000  Cl
  Cl12     1.0000 0.37500  0.26262  0.87500  Biso   1.000  Cl
  Cl13     1.0000 0.37500  0.76262  0.37500  Biso   1.000  Cl
  Cl14     1.0000 0.37500  0.48738  0.87500  Biso   1.000  Cl
  Cl15     1.0000 0.87500  0.26262  0.37500  Biso   1.000  Cl
  Cl16     1.0000 0.87500  0.76262  0.87500  Biso   1.000  Cl
