data_image0
_cell_length_a       11.084
_cell_length_b       24.944
_cell_length_c       23.284
_cell_angle_alpha    90
_cell_angle_beta     96.974
_cell_angle_gamma    90

_symmetry_space_group_name_H-M    "P 1"
_symmetry_int_tables_number       1

loop_
  _symmetry_equiv_pos_as_xyz
  'x, y, z'

loop_
  _atom_site_label
  _atom_site_occupancy
  _atom_site_fract_x
  _atom_site_fract_y
  _atom_site_fract_z
  _atom_site_thermal_displace_type
  _atom_site_B_iso_or_equiv
  _atom_site_type_symbol
  Ag1      1.0000 0.24532  0.87136  0.90730  Biso   1.000  Ag
  C1       1.0000 0.23340  0.90850  0.77910  Biso   1.000  C
  H1       1.0000 0.26770  0.93870  0.79800  Biso   1.000  H
  C2       1.0000 0.20580  0.90990  0.71840  Biso   1.000  C
  H2       1.0000 0.22270  0.94040  0.69780  Biso   1.000  H
  C3       1.0000 0.15290  0.86530  0.68940  Biso   1.000  C
  C4       1.0000 0.13600  0.81970  0.72180  Biso   1.000  C
  H3       1.0000 0.10370  0.78860  0.70400  Biso   1.000  H
  C5       1.0000 0.16810  0.82160  0.78070  Biso   1.000  C
  H4       1.0000 0.15860  0.79030  0.80150  Biso   1.000  H
  C6       1.0000 0.19680  0.05410  0.51110  Biso   1.000  C
  H5       1.0000 0.22270  0.08460  0.53180  Biso   1.000  H
  C7       1.0000 0.17250  0.00790  0.54100  Biso   1.000  C
  H6       1.0000 0.18050  0.00790  0.58130  Biso   1.000  H
  C8       1.0000 0.13680  0.96240  0.51080  Biso   1.000  C
  C9       1.0000 0.12500  0.96340  0.45180  Biso   1.000  C
  H7       1.0000 0.10250  0.93260  0.43070  Biso   1.000  H
  C10      1.0000 0.14720  0.01220  0.42260  Biso   1.000  C
  H8       1.0000 0.13610  0.01360  0.38230  Biso   1.000  H
  C11      1.0000 0.88210  0.74020  0.42690  Biso   1.000  C
  H9       1.0000 0.85900  0.74180  0.38720  Biso   1.000  H
  C12      1.0000 0.93590  0.78380  0.45510  Biso   1.000  C
  H10      1.0000 0.94940  0.81460  0.43420  Biso   1.000  H
  C13      1.0000 0.97000  0.78260  0.51380  Biso   1.000  C
  C14      1.0000 0.94740  0.73770  0.54310  Biso   1.000  C
  H11      1.0000 0.96700  0.73600  0.58300  Biso   1.000  H
  C15      1.0000 0.89350  0.69350  0.51230  Biso   1.000  C
  H12      1.0000 0.87980  0.66230  0.53260  Biso   1.000  H
  C16      1.0000 0.03130  0.82910  0.54360  Biso   1.000  C
  C17      1.0000 0.11900  0.86680  0.62780  Biso   1.000  C
  C18      1.0000 0.11120  0.91240  0.54210  Biso   1.000  C
  N1       1.0000 0.21180  0.86470  0.81090  Biso   1.000  N
  N2       1.0000 0.18400  0.05580  0.45330  Biso   1.000  N
  N3       1.0000 0.86190  0.69450  0.45620  Biso   1.000  N
  N4       1.0000 0.06160  0.82380  0.60070  Biso   1.000  N
  N5       1.0000 0.14850  0.91110  0.59890  Biso   1.000  N
  N6       1.0000 0.05530  0.87270  0.51280  Biso   1.000  N
  Ag2      1.0000 0.74532  0.37136  0.90730  Biso   1.000  Ag
  C19      1.0000 0.73340  0.40850  0.77910  Biso   1.000  C
  H13      1.0000 0.76770  0.43870  0.79800  Biso   1.000  H
  C20      1.0000 0.70580  0.40990  0.71840  Biso   1.000  C
  H14      1.0000 0.72270  0.44040  0.69780  Biso   1.000  H
  C21      1.0000 0.65290  0.36530  0.68940  Biso   1.000  C
  C22      1.0000 0.63600  0.31970  0.72180  Biso   1.000  C
  H15      1.0000 0.60370  0.28860  0.70400  Biso   1.000  H
  C23      1.0000 0.66810  0.32160  0.78070  Biso   1.000  C
  H16      1.0000 0.65860  0.29030  0.80150  Biso   1.000  H
  C24      1.0000 0.69680  0.55410  0.51110  Biso   1.000  C
  H17      1.0000 0.72270  0.58460  0.53180  Biso   1.000  H
  C25      1.0000 0.67250  0.50790  0.54100  Biso   1.000  C
  H18      1.0000 0.68050  0.50790  0.58130  Biso   1.000  H
  C26      1.0000 0.63680  0.46240  0.51080  Biso   1.000  C
  C27      1.0000 0.62500  0.46340  0.45180  Biso   1.000  C
  H19      1.0000 0.60250  0.43260  0.43070  Biso   1.000  H
  C28      1.0000 0.64720  0.51220  0.42260  Biso   1.000  C
  H20      1.0000 0.63610  0.51360  0.38230  Biso   1.000  H
  C29      1.0000 0.38210  0.24020  0.42690  Biso   1.000  C
  H21      1.0000 0.35900  0.24180  0.38720  Biso   1.000  H
  C30      1.0000 0.43590  0.28380  0.45510  Biso   1.000  C
  H22      1.0000 0.44940  0.31460  0.43420  Biso   1.000  H
  C31      1.0000 0.47000  0.28260  0.51380  Biso   1.000  C
  C32      1.0000 0.44740  0.23770  0.54310  Biso   1.000  C
  H23      1.0000 0.46700  0.23600  0.58300  Biso   1.000  H
  C33      1.0000 0.39350  0.19350  0.51230  Biso   1.000  C
  H24      1.0000 0.37980  0.16230  0.53260  Biso   1.000  H
  C34      1.0000 0.53130  0.32910  0.54360  Biso   1.000  C
  C35      1.0000 0.61900  0.36680  0.62780  Biso   1.000  C
  C36      1.0000 0.61120  0.41240  0.54210  Biso   1.000  C
  N7       1.0000 0.71180  0.36470  0.81090  Biso   1.000  N
  N8       1.0000 0.68400  0.55580  0.45330  Biso   1.000  N
  N9       1.0000 0.36190  0.19450  0.45620  Biso   1.000  N
  N10      1.0000 0.56160  0.32380  0.60070  Biso   1.000  N
  N11      1.0000 0.64850  0.41110  0.59890  Biso   1.000  N
  N12      1.0000 0.55530  0.37270  0.51280  Biso   1.000  N
  Ag3      1.0000 0.24532  0.12864  0.40730  Biso   1.000  Ag
  C37      1.0000 0.23340  0.09150  0.27910  Biso   1.000  C
  H25      1.0000 0.26770  0.06130  0.29800  Biso   1.000  H
  C38      1.0000 0.20580  0.09010  0.21840  Biso   1.000  C
  H26      1.0000 0.22270  0.05960  0.19780  Biso   1.000  H
  C39      1.0000 0.15290  0.13470  0.18940  Biso   1.000  C
  C40      1.0000 0.13600  0.18030  0.22180  Biso   1.000  C
  H27      1.0000 0.10370  0.21140  0.20400  Biso   1.000  H
  C41      1.0000 0.16810  0.17840  0.28070  Biso   1.000  C
  H28      1.0000 0.15860  0.20970  0.30150  Biso   1.000  H
  C42      1.0000 0.19680  0.94590  0.01110  Biso   1.000  C
  H29      1.0000 0.22270  0.91540  0.03180  Biso   1.000  H
  C43      1.0000 0.17250  0.99210  0.04100  Biso   1.000  C
  H30      1.0000 0.18050  0.99210  0.08130  Biso   1.000  H
  C44      1.0000 0.13680  0.03760  0.01080  Biso   1.000  C
  C45      1.0000 0.12500  0.03660  0.95180  Biso   1.000  C
  H31      1.0000 0.10250  0.06740  0.93070  Biso   1.000  H
  C46      1.0000 0.14720  0.98780  0.92260  Biso   1.000  C
  H32      1.0000 0.13610  0.98640  0.88230  Biso   1.000  H
  C47      1.0000 0.88210  0.25980  0.92690  Biso   1.000  C
  H33      1.0000 0.85900  0.25820  0.88720  Biso   1.000  H
  C48      1.0000 0.93590  0.21620  0.95510  Biso   1.000  C
  H34      1.0000 0.94940  0.18540  0.93420  Biso   1.000  H
  C49      1.0000 0.97000  0.21740  0.01380  Biso   1.000  C
  C50      1.0000 0.94740  0.26230  0.04310  Biso   1.000  C
  H35      1.0000 0.96700  0.26400  0.08300  Biso   1.000  H
  C51      1.0000 0.89350  0.30650  0.01230  Biso   1.000  C
  H36      1.0000 0.87980  0.33770  0.03260  Biso   1.000  H
  C52      1.0000 0.03130  0.17090  0.04360  Biso   1.000  C
  C53      1.0000 0.11900  0.13320  0.12780  Biso   1.000  C
  C54      1.0000 0.11120  0.08760  0.04210  Biso   1.000  C
  N13      1.0000 0.21180  0.13530  0.31090  Biso   1.000  N
  N14      1.0000 0.18400  0.94420  0.95330  Biso   1.000  N
  N15      1.0000 0.86190  0.30550  0.95620  Biso   1.000  N
  N16      1.0000 0.06160  0.17620  0.10070  Biso   1.000  N
  N17      1.0000 0.14850  0.08890  0.09890  Biso   1.000  N
  N18      1.0000 0.05530  0.12730  0.01280  Biso   1.000  N
  Ag4      1.0000 0.74532  0.62864  0.40730  Biso   1.000  Ag
  C55      1.0000 0.73340  0.59150  0.27910  Biso   1.000  C
  H37      1.0000 0.76770  0.56130  0.29800  Biso   1.000  H
  C56      1.0000 0.70580  0.59010  0.21840  Biso   1.000  C
  H38      1.0000 0.72270  0.55960  0.19780  Biso   1.000  H
  C57      1.0000 0.65290  0.63470  0.18940  Biso   1.000  C
  C58      1.0000 0.63600  0.68030  0.22180  Biso   1.000  C
  H39      1.0000 0.60370  0.71140  0.20400  Biso   1.000  H
  C59      1.0000 0.66810  0.67840  0.28070  Biso   1.000  C
  H40      1.0000 0.65860  0.70970  0.30150  Biso   1.000  H
  C60      1.0000 0.69680  0.44590  0.01110  Biso   1.000  C
  H41      1.0000 0.72270  0.41540  0.03180  Biso   1.000  H
  C61      1.0000 0.67250  0.49210  0.04100  Biso   1.000  C
  H42      1.0000 0.68050  0.49210  0.08130  Biso   1.000  H
  C62      1.0000 0.63680  0.53760  0.01080  Biso   1.000  C
  C63      1.0000 0.62500  0.53660  0.95180  Biso   1.000  C
  H43      1.0000 0.60250  0.56740  0.93070  Biso   1.000  H
  C64      1.0000 0.64720  0.48780  0.92260  Biso   1.000  C
  H44      1.0000 0.63610  0.48640  0.88230  Biso   1.000  H
  C65      1.0000 0.38210  0.75980  0.92690  Biso   1.000  C
  H45      1.0000 0.35900  0.75820  0.88720  Biso   1.000  H
  C66      1.0000 0.43590  0.71620  0.95510  Biso   1.000  C
  H46      1.0000 0.44940  0.68540  0.93420  Biso   1.000  H
  C67      1.0000 0.47000  0.71740  0.01380  Biso   1.000  C
  C68      1.0000 0.44740  0.76230  0.04310  Biso   1.000  C
  H47      1.0000 0.46700  0.76400  0.08300  Biso   1.000  H
  C69      1.0000 0.39350  0.80650  0.01230  Biso   1.000  C
  H48      1.0000 0.37980  0.83770  0.03260  Biso   1.000  H
  C70      1.0000 0.53130  0.67090  0.04360  Biso   1.000  C
  C71      1.0000 0.61900  0.63320  0.12780  Biso   1.000  C
  C72      1.0000 0.61120  0.58760  0.04210  Biso   1.000  C
  N19      1.0000 0.71180  0.63530  0.31090  Biso   1.000  N
  N20      1.0000 0.68400  0.44420  0.95330  Biso   1.000  N
  N21      1.0000 0.36190  0.80550  0.95620  Biso   1.000  N
  N22      1.0000 0.56160  0.67620  0.10070  Biso   1.000  N
  N23      1.0000 0.64850  0.58890  0.09890  Biso   1.000  N
  N24      1.0000 0.55530  0.62730  0.01280  Biso   1.000  N
  Ag5      1.0000 0.91618  0.86186  0.88651  Biso   1.000  Ag
  C73      1.0000 0.88550  0.90960  0.76030  Biso   1.000  C
  H49      1.0000 0.91950  0.93900  0.78080  Biso   1.000  H
  C74      1.0000 0.85600  0.91530  0.70160  Biso   1.000  C
  H50      1.0000 0.86550  0.94800  0.68350  Biso   1.000  H
  C75      1.0000 0.81160  0.87070  0.67020  Biso   1.000  C
  C76      1.0000 0.79930  0.82370  0.70060  Biso   1.000  C
  H51      1.0000 0.76950  0.79300  0.68100  Biso   1.000  H
  C77      1.0000 0.82990  0.82210  0.75780  Biso   1.000  C
  H52      1.0000 0.82360  0.78950  0.77640  Biso   1.000  H
  C78      1.0000 0.88490  0.06060  0.49270  Biso   1.000  C
  H53      1.0000 0.91890  0.08990  0.51350  Biso   1.000  H
  C79      1.0000 0.85800  0.01360  0.52290  Biso   1.000  C
  H54      1.0000 0.87260  0.01230  0.56300  Biso   1.000  H
  C80      1.0000 0.81010  0.97000  0.49220  Biso   1.000  C
  C81      1.0000 0.78870  0.97320  0.43340  Biso   1.000  C
  H55      1.0000 0.75430  0.94440  0.41190  Biso   1.000  H
  C82      1.0000 0.81870  0.01970  0.40610  Biso   1.000  C
  H56      1.0000 0.80810  0.02060  0.36590  Biso   1.000  H
  C83      1.0000 0.53780  0.75210  0.40510  Biso   1.000  C
  H57      1.0000 0.51120  0.75470  0.36570  Biso   1.000  H
  C84      1.0000 0.59550  0.79560  0.43290  Biso   1.000  C
  H58      1.0000 0.60750  0.82650  0.41200  Biso   1.000  H
  C85      1.0000 0.63470  0.79370  0.49010  Biso   1.000  C
  C86      1.0000 0.61440  0.74570  0.51890  Biso   1.000  C
  H59      1.0000 0.63920  0.74200  0.55830  Biso   1.000  H
  C87      1.0000 0.55620  0.70380  0.48700  Biso   1.000  C
  H60      1.0000 0.54360  0.67200  0.50620  Biso   1.000  H
  C88      1.0000 0.69690  0.83830  0.52290  Biso   1.000  C
  C89      1.0000 0.78190  0.87440  0.60730  Biso   1.000  C
  C90      1.0000 0.78100  0.92100  0.52290  Biso   1.000  C
  N25      1.0000 0.86920  0.86480  0.79030  Biso   1.000  N
  N26      1.0000 0.86280  0.06380  0.43510  Biso   1.000  N
  N27      1.0000 0.51890  0.70650  0.43240  Biso   1.000  N
  N28      1.0000 0.72180  0.83320  0.57920  Biso   1.000  N
  N29      1.0000 0.81400  0.91930  0.58030  Biso   1.000  N
  N30      1.0000 0.72510  0.88150  0.49180  Biso   1.000  N
  Ag6      1.0000 0.41618  0.36186  0.88651  Biso   1.000  Ag
  C91      1.0000 0.38550  0.40960  0.76030  Biso   1.000  C
  H61      1.0000 0.41950  0.43900  0.78080  Biso   1.000  H
  C92      1.0000 0.35600  0.41530  0.70160  Biso   1.000  C
  H62      1.0000 0.36550  0.44800  0.68350  Biso   1.000  H
  C93      1.0000 0.31160  0.37070  0.67020  Biso   1.000  C
  C94      1.0000 0.29930  0.32370  0.70060  Biso   1.000  C
  H63      1.0000 0.26950  0.29300  0.68100  Biso   1.000  H
  C95      1.0000 0.32990  0.32210  0.75780  Biso   1.000  C
  H64      1.0000 0.32360  0.28950  0.77640  Biso   1.000  H
  C96      1.0000 0.38490  0.56060  0.49270  Biso   1.000  C
  H65      1.0000 0.41890  0.58990  0.51350  Biso   1.000  H
  C97      1.0000 0.35800  0.51360  0.52290  Biso   1.000  C
  H66      1.0000 0.37260  0.51230  0.56300  Biso   1.000  H
  C98      1.0000 0.31010  0.47000  0.49220  Biso   1.000  C
  C99      1.0000 0.28870  0.47320  0.43340  Biso   1.000  C
  H67      1.0000 0.25430  0.44440  0.41190  Biso   1.000  H
  C100     1.0000 0.31870  0.51970  0.40610  Biso   1.000  C
  H68      1.0000 0.30810  0.52060  0.36590  Biso   1.000  H
  C101     1.0000 0.03780  0.25210  0.40510  Biso   1.000  C
  H69      1.0000 0.01120  0.25470  0.36570  Biso   1.000  H
  C102     1.0000 0.09550  0.29560  0.43290  Biso   1.000  C
  H70      1.0000 0.10750  0.32650  0.41200  Biso   1.000  H
  C103     1.0000 0.13470  0.29370  0.49010  Biso   1.000  C
  C104     1.0000 0.11440  0.24570  0.51890  Biso   1.000  C
  H71      1.0000 0.13920  0.24200  0.55830  Biso   1.000  H
  C105     1.0000 0.05620  0.20380  0.48700  Biso   1.000  C
  H72      1.0000 0.04360  0.17200  0.50620  Biso   1.000  H
  C106     1.0000 0.19690  0.33830  0.52290  Biso   1.000  C
  C107     1.0000 0.28190  0.37440  0.60730  Biso   1.000  C
  C108     1.0000 0.28100  0.42100  0.52290  Biso   1.000  C
  N31      1.0000 0.36920  0.36480  0.79030  Biso   1.000  N
  N32      1.0000 0.36280  0.56380  0.43510  Biso   1.000  N
  N33      1.0000 0.01890  0.20650  0.43240  Biso   1.000  N
  N34      1.0000 0.22180  0.33320  0.57920  Biso   1.000  N
  N35      1.0000 0.31400  0.41930  0.58030  Biso   1.000  N
  N36      1.0000 0.22510  0.38150  0.49180  Biso   1.000  N
  Ag7      1.0000 0.91618  0.13814  0.38651  Biso   1.000  Ag
  C109     1.0000 0.88550  0.09040  0.26030  Biso   1.000  C
  H73      1.0000 0.91950  0.06100  0.28080  Biso   1.000  H
  C110     1.0000 0.85600  0.08470  0.20160  Biso   1.000  C
  H74      1.0000 0.86550  0.05200  0.18350  Biso   1.000  H
  C111     1.0000 0.81160  0.12930  0.17020  Biso   1.000  C
  C112     1.0000 0.79930  0.17630  0.20060  Biso   1.000  C
  H75      1.0000 0.76950  0.20700  0.18100  Biso   1.000  H
  C113     1.0000 0.82990  0.17790  0.25780  Biso   1.000  C
  H76      1.0000 0.82360  0.21050  0.27640  Biso   1.000  H
  C114     1.0000 0.88490  0.93940  0.99270  Biso   1.000  C
  H77      1.0000 0.91890  0.91010  0.01350  Biso   1.000  H
  C115     1.0000 0.85800  0.98640  0.02290  Biso   1.000  C
  H78      1.0000 0.87260  0.98770  0.06300  Biso   1.000  H
  C116     1.0000 0.81010  0.03000  0.99220  Biso   1.000  C
  C117     1.0000 0.78870  0.02680  0.93340  Biso   1.000  C
  H79      1.0000 0.75430  0.05560  0.91190  Biso   1.000  H
  C118     1.0000 0.81870  0.98030  0.90610  Biso   1.000  C
  H80      1.0000 0.80810  0.97940  0.86590  Biso   1.000  H
  C119     1.0000 0.53780  0.24790  0.90510  Biso   1.000  C
  H81      1.0000 0.51120  0.24530  0.86570  Biso   1.000  H
  C120     1.0000 0.59550  0.20440  0.93290  Biso   1.000  C
  H82      1.0000 0.60750  0.17350  0.91200  Biso   1.000  H
  C121     1.0000 0.63470  0.20630  0.99010  Biso   1.000  C
  C122     1.0000 0.61440  0.25430  0.01890  Biso   1.000  C
  H83      1.0000 0.63920  0.25800  0.05830  Biso   1.000  H
  C123     1.0000 0.55620  0.29620  0.98700  Biso   1.000  C
  H84      1.0000 0.54360  0.32800  0.00620  Biso   1.000  H
  C124     1.0000 0.69690  0.16170  0.02290  Biso   1.000  C
  C125     1.0000 0.78190  0.12560  0.10730  Biso   1.000  C
  C126     1.0000 0.78100  0.07900  0.02290  Biso   1.000  C
  N37      1.0000 0.86920  0.13520  0.29030  Biso   1.000  N
  N38      1.0000 0.86280  0.93620  0.93510  Biso   1.000  N
  N39      1.0000 0.51890  0.29350  0.93240  Biso   1.000  N
  N40      1.0000 0.72180  0.16680  0.07920  Biso   1.000  N
  N41      1.0000 0.81400  0.08070  0.08030  Biso   1.000  N
  N42      1.0000 0.72510  0.11850  0.99180  Biso   1.000  N
  Ag8      1.0000 0.41618  0.63814  0.38651  Biso   1.000  Ag
  C127     1.0000 0.38550  0.59040  0.26030  Biso   1.000  C
  H85      1.0000 0.41950  0.56100  0.28080  Biso   1.000  H
  C128     1.0000 0.35600  0.58470  0.20160  Biso   1.000  C
  H86      1.0000 0.36550  0.55200  0.18350  Biso   1.000  H
  C129     1.0000 0.31160  0.62930  0.17020  Biso   1.000  C
  C130     1.0000 0.29930  0.67630  0.20060  Biso   1.000  C
  H87      1.0000 0.26950  0.70700  0.18100  Biso   1.000  H
  C131     1.0000 0.32990  0.67790  0.25780  Biso   1.000  C
  H88      1.0000 0.32360  0.71050  0.27640  Biso   1.000  H
  C132     1.0000 0.38490  0.43940  0.99270  Biso   1.000  C
  H89      1.0000 0.41890  0.41010  0.01350  Biso   1.000  H
  C133     1.0000 0.35800  0.48640  0.02290  Biso   1.000  C
  H90      1.0000 0.37260  0.48770  0.06300  Biso   1.000  H
  C134     1.0000 0.31010  0.53000  0.99220  Biso   1.000  C
  C135     1.0000 0.28870  0.52680  0.93340  Biso   1.000  C
  H91      1.0000 0.25430  0.55560  0.91190  Biso   1.000  H
  C136     1.0000 0.31870  0.48030  0.90610  Biso   1.000  C
  H92      1.0000 0.30810  0.47940  0.86590  Biso   1.000  H
  C137     1.0000 0.03780  0.74790  0.90510  Biso   1.000  C
  H93      1.0000 0.01120  0.74530  0.86570  Biso   1.000  H
  C138     1.0000 0.09550  0.70440  0.93290  Biso   1.000  C
  H94      1.0000 0.10750  0.67350  0.91200  Biso   1.000  H
  C139     1.0000 0.13470  0.70630  0.99010  Biso   1.000  C
  C140     1.0000 0.11440  0.75430  0.01890  Biso   1.000  C
  H95      1.0000 0.13920  0.75800  0.05830  Biso   1.000  H
  C141     1.0000 0.05620  0.79620  0.98700  Biso   1.000  C
  H96      1.0000 0.04360  0.82800  0.00620  Biso   1.000  H
  C142     1.0000 0.19690  0.66170  0.02290  Biso   1.000  C
  C143     1.0000 0.28190  0.62560  0.10730  Biso   1.000  C
  C144     1.0000 0.28100  0.57900  0.02290  Biso   1.000  C
  N43      1.0000 0.36920  0.63520  0.29030  Biso   1.000  N
  N44      1.0000 0.36280  0.43620  0.93510  Biso   1.000  N
  N45      1.0000 0.01890  0.79350  0.93240  Biso   1.000  N
  N46      1.0000 0.22180  0.66680  0.07920  Biso   1.000  N
  N47      1.0000 0.31400  0.58070  0.08030  Biso   1.000  N
  N48      1.0000 0.22510  0.61850  0.99180  Biso   1.000  N
  Ag9      1.0000 0.61941  0.86325  0.94374  Biso   1.000  Ag
  C145     1.0000 0.53580  0.82440  0.81660  Biso   1.000  C
  H97      1.0000 0.53360  0.79210  0.83650  Biso   1.000  H
  C146     1.0000 0.51080  0.82330  0.75810  Biso   1.000  C
  H98      1.0000 0.49310  0.79110  0.73870  Biso   1.000  H
  C147     1.0000 0.51240  0.87180  0.72730  Biso   1.000  C
  C148     1.0000 0.54180  0.91740  0.75730  Biso   1.000  C
  H99      1.0000 0.54390  0.95000  0.73820  Biso   1.000  H
  C149     1.0000 0.56870  0.91460  0.81740  Biso   1.000  C
  H100     1.0000 0.59160  0.94580  0.83780  Biso   1.000  H
  C150     1.0000 0.59450  0.05860  0.55040  Biso   1.000  C
  H101     1.0000 0.63740  0.08580  0.57100  Biso   1.000  H
  C151     1.0000 0.56870  0.01210  0.57940  Biso   1.000  C
  H102     1.0000 0.59000  0.00910  0.61910  Biso   1.000  H
  C152     1.0000 0.51270  0.97170  0.54910  Biso   1.000  C
  C153     1.0000 0.47860  0.97580  0.49110  Biso   1.000  C
  H103     1.0000 0.44140  0.94770  0.46960  Biso   1.000  H
  C154     1.0000 0.50270  0.02500  0.46580  Biso   1.000  C
  H104     1.0000 0.47710  0.02980  0.42660  Biso   1.000  H
  C155     1.0000 0.24060  0.74960  0.46050  Biso   1.000  C
  H105     1.0000 0.21340  0.75170  0.42120  Biso   1.000  H
  C156     1.0000 0.30200  0.79450  0.48830  Biso   1.000  C
  H106     1.0000 0.32000  0.82430  0.46680  Biso   1.000  H
  C157     1.0000 0.33510  0.79330  0.54900  Biso   1.000  C
  C158     1.0000 0.31050  0.74650  0.57740  Biso   1.000  C
  H107     1.0000 0.33240  0.74290  0.61700  Biso   1.000  H
  C159     1.0000 0.25160  0.70480  0.54490  Biso   1.000  C
  H108     1.0000 0.23260  0.67430  0.56490  Biso   1.000  H
  C160     1.0000 0.39720  0.83820  0.57950  Biso   1.000  C
  C161     1.0000 0.48530  0.87320  0.66390  Biso   1.000  C
  C162     1.0000 0.48310  0.91920  0.58030  Biso   1.000  C
  N49      1.0000 0.56280  0.86810  0.84700  Biso   1.000  N
  N50      1.0000 0.56070  0.06540  0.49520  Biso   1.000  N
  N51      1.0000 0.22100  0.70500  0.48860  Biso   1.000  N
  N52      1.0000 0.42530  0.83230  0.63610  Biso   1.000  N
  N53      1.0000 0.51880  0.91710  0.63670  Biso   1.000  N
  N54      1.0000 0.42250  0.88140  0.54860  Biso   1.000  N
  Ag10     1.0000 0.11941  0.36325  0.94374  Biso   1.000  Ag
  C163     1.0000 0.03580  0.32440  0.81660  Biso   1.000  C
  H109     1.0000 0.03360  0.29210  0.83650  Biso   1.000  H
  C164     1.0000 0.01080  0.32330  0.75810  Biso   1.000  C
  H110     1.0000 0.99310  0.29110  0.73870  Biso   1.000  H
  C165     1.0000 0.01240  0.37180  0.72730  Biso   1.000  C
  C166     1.0000 0.04180  0.41740  0.75730  Biso   1.000  C
  H111     1.0000 0.04390  0.45000  0.73820  Biso   1.000  H
  C167     1.0000 0.06870  0.41460  0.81740  Biso   1.000  C
  H112     1.0000 0.09160  0.44580  0.83780  Biso   1.000  H
  C168     1.0000 0.09450  0.55860  0.55040  Biso   1.000  C
  H113     1.0000 0.13740  0.58580  0.57100  Biso   1.000  H
  C169     1.0000 0.06870  0.51210  0.57940  Biso   1.000  C
  H114     1.0000 0.09000  0.50910  0.61910  Biso   1.000  H
  C170     1.0000 0.01270  0.47170  0.54910  Biso   1.000  C
  C171     1.0000 0.97860  0.47580  0.49110  Biso   1.000  C
  H115     1.0000 0.94140  0.44770  0.46960  Biso   1.000  H
  C172     1.0000 0.00270  0.52500  0.46580  Biso   1.000  C
  H116     1.0000 0.97710  0.52980  0.42660  Biso   1.000  H
  C173     1.0000 0.74060  0.24960  0.46050  Biso   1.000  C
  H117     1.0000 0.71340  0.25170  0.42120  Biso   1.000  H
  C174     1.0000 0.80200  0.29450  0.48830  Biso   1.000  C
  H118     1.0000 0.82000  0.32430  0.46680  Biso   1.000  H
  C175     1.0000 0.83510  0.29330  0.54900  Biso   1.000  C
  C176     1.0000 0.81050  0.24650  0.57740  Biso   1.000  C
  H119     1.0000 0.83240  0.24290  0.61700  Biso   1.000  H
  C177     1.0000 0.75160  0.20480  0.54490  Biso   1.000  C
  H120     1.0000 0.73260  0.17430  0.56490  Biso   1.000  H
  C178     1.0000 0.89720  0.33820  0.57950  Biso   1.000  C
  C179     1.0000 0.98530  0.37320  0.66390  Biso   1.000  C
  C180     1.0000 0.98310  0.41920  0.58030  Biso   1.000  C
  N55      1.0000 0.06280  0.36810  0.84700  Biso   1.000  N
  N56      1.0000 0.06070  0.56540  0.49520  Biso   1.000  N
  N57      1.0000 0.72100  0.20500  0.48860  Biso   1.000  N
  N58      1.0000 0.92530  0.33230  0.63610  Biso   1.000  N
  N59      1.0000 0.01880  0.41710  0.63670  Biso   1.000  N
  N60      1.0000 0.92250  0.38140  0.54860  Biso   1.000  N
  Ag11     1.0000 0.61941  0.13675  0.44374  Biso   1.000  Ag
  C181     1.0000 0.53580  0.17560  0.31660  Biso   1.000  C
  H121     1.0000 0.53360  0.20790  0.33650  Biso   1.000  H
  C182     1.0000 0.51080  0.17670  0.25810  Biso   1.000  C
  H122     1.0000 0.49310  0.20890  0.23870  Biso   1.000  H
  C183     1.0000 0.51240  0.12820  0.22730  Biso   1.000  C
  C184     1.0000 0.54180  0.08260  0.25730  Biso   1.000  C
  H123     1.0000 0.54390  0.05000  0.23820  Biso   1.000  H
  C185     1.0000 0.56870  0.08540  0.31740  Biso   1.000  C
  H124     1.0000 0.59160  0.05420  0.33780  Biso   1.000  H
  C186     1.0000 0.59450  0.94140  0.05040  Biso   1.000  C
  H125     1.0000 0.63740  0.91420  0.07100  Biso   1.000  H
  C187     1.0000 0.56870  0.98790  0.07940  Biso   1.000  C
  H126     1.0000 0.59000  0.99090  0.11910  Biso   1.000  H
  C188     1.0000 0.51270  0.02830  0.04910  Biso   1.000  C
  C189     1.0000 0.47860  0.02420  0.99110  Biso   1.000  C
  H127     1.0000 0.44140  0.05230  0.96960  Biso   1.000  H
  C190     1.0000 0.50270  0.97500  0.96580  Biso   1.000  C
  H128     1.0000 0.47710  0.97020  0.92660  Biso   1.000  H
  C191     1.0000 0.24060  0.25040  0.96050  Biso   1.000  C
  H129     1.0000 0.21340  0.24830  0.92120  Biso   1.000  H
  C192     1.0000 0.30200  0.20550  0.98830  Biso   1.000  C
  H130     1.0000 0.32000  0.17570  0.96680  Biso   1.000  H
  C193     1.0000 0.33510  0.20670  0.04900  Biso   1.000  C
  C194     1.0000 0.31050  0.25350  0.07740  Biso   1.000  C
  H131     1.0000 0.33240  0.25710  0.11700  Biso   1.000  H
  C195     1.0000 0.25160  0.29520  0.04490  Biso   1.000  C
  H132     1.0000 0.23260  0.32570  0.06490  Biso   1.000  H
  C196     1.0000 0.39720  0.16180  0.07950  Biso   1.000  C
  C197     1.0000 0.48530  0.12680  0.16390  Biso   1.000  C
  C198     1.0000 0.48310  0.08080  0.08030  Biso   1.000  C
  N61      1.0000 0.56280  0.13190  0.34700  Biso   1.000  N
  N62      1.0000 0.56070  0.93460  0.99520  Biso   1.000  N
  N63      1.0000 0.22100  0.29500  0.98860  Biso   1.000  N
  N64      1.0000 0.42530  0.16770  0.13610  Biso   1.000  N
  N65      1.0000 0.51880  0.08290  0.13670  Biso   1.000  N
  N66      1.0000 0.42250  0.11860  0.04860  Biso   1.000  N
  Ag12     1.0000 0.11941  0.63675  0.44374  Biso   1.000  Ag
  C199     1.0000 0.03580  0.67560  0.31660  Biso   1.000  C
  H133     1.0000 0.03360  0.70790  0.33650  Biso   1.000  H
  C200     1.0000 0.01080  0.67670  0.25810  Biso   1.000  C
  H134     1.0000 0.99310  0.70890  0.23870  Biso   1.000  H
  C201     1.0000 0.01240  0.62820  0.22730  Biso   1.000  C
  C202     1.0000 0.04180  0.58260  0.25730  Biso   1.000  C
  H135     1.0000 0.04390  0.55000  0.23820  Biso   1.000  H
  C203     1.0000 0.06870  0.58540  0.31740  Biso   1.000  C
  H136     1.0000 0.09160  0.55420  0.33780  Biso   1.000  H
  C204     1.0000 0.09450  0.44140  0.05040  Biso   1.000  C
  H137     1.0000 0.13740  0.41420  0.07100  Biso   1.000  H
  C205     1.0000 0.06870  0.48790  0.07940  Biso   1.000  C
  H138     1.0000 0.09000  0.49090  0.11910  Biso   1.000  H
  C206     1.0000 0.01270  0.52830  0.04910  Biso   1.000  C
  C207     1.0000 0.97860  0.52420  0.99110  Biso   1.000  C
  H139     1.0000 0.94140  0.55230  0.96960  Biso   1.000  H
  C208     1.0000 0.00270  0.47500  0.96580  Biso   1.000  C
  H140     1.0000 0.97710  0.47020  0.92660  Biso   1.000  H
  C209     1.0000 0.74060  0.75040  0.96050  Biso   1.000  C
  H141     1.0000 0.71340  0.74830  0.92120  Biso   1.000  H
  C210     1.0000 0.80200  0.70550  0.98830  Biso   1.000  C
  H142     1.0000 0.82000  0.67570  0.96680  Biso   1.000  H
  C211     1.0000 0.83510  0.70670  0.04900  Biso   1.000  C
  C212     1.0000 0.81050  0.75350  0.07740  Biso   1.000  C
  H143     1.0000 0.83240  0.75710  0.11700  Biso   1.000  H
  C213     1.0000 0.75160  0.79520  0.04490  Biso   1.000  C
  H144     1.0000 0.73260  0.82570  0.06490  Biso   1.000  H
  C214     1.0000 0.89720  0.66180  0.07950  Biso   1.000  C
  C215     1.0000 0.98530  0.62680  0.16390  Biso   1.000  C
  C216     1.0000 0.98310  0.58080  0.08030  Biso   1.000  C
  N67      1.0000 0.06280  0.63190  0.34700  Biso   1.000  N
  N68      1.0000 0.06070  0.43460  0.99520  Biso   1.000  N
  N69      1.0000 0.72100  0.79500  0.98860  Biso   1.000  N
  N70      1.0000 0.92530  0.66770  0.13610  Biso   1.000  N
  N71      1.0000 0.01880  0.58290  0.13670  Biso   1.000  N
  N72      1.0000 0.92250  0.61860  0.04860  Biso   1.000  N
