data_TEMPEI_clean
_audit_creation_date              2014-07-02
_audit_creation_method            'Materials Studio'
_symmetry_space_group_name_H-M    'P1'
_symmetry_Int_Tables_number       1
_symmetry_cell_setting            triclinic
loop_
_symmetry_equiv_pos_as_xyz
  x,y,z
_cell_length_a                    21.7289
_cell_length_b                    21.7289
_cell_length_c                    30.0021
_cell_angle_alpha                 98.0698
_cell_angle_beta                  98.0698
_cell_angle_gamma                 117.4400
loop_
_atom_site_label
_atom_site_type_symbol
_atom_site_fract_x
_atom_site_fract_y
_atom_site_fract_z
_atom_site_U_iso_or_equiv
_atom_site_adp_type
_atom_site_occupancy
Cu1    Cu    0.69727   0.75219   0.73259   0.01267  Uiso   1.00
Cu2    Cu    0.82641   0.77071   0.74246   0.01267  Uiso   1.00
Cu3    Cu    0.46772   0.97444   0.53230   0.01267  Uiso   1.00
Cu4    Cu    0.24781   0.30273   0.76741   0.01267  Uiso   1.00
Cu5    Cu    0.22929   0.17359   0.75754   0.01267  Uiso   1.00
Cu6    Cu    0.02556   0.53228   0.96770   0.01267  Uiso   1.00
Cu7    Cu    0.30273   0.24781   0.26741   0.01267  Uiso   1.00
Cu8    Cu    0.17359   0.22929   0.25754   0.01267  Uiso   1.00
Cu9    Cu    0.53228   0.02556   0.46770   0.01267  Uiso   1.00
Cu10   Cu    0.75219   0.69727   0.23259   0.01267  Uiso   1.00
Cu11   Cu    0.77071   0.82641   0.24246   0.01267  Uiso   1.00
Cu12   Cu    0.97444   0.46772   0.03230   0.01267  Uiso   1.00
H1     H     0.77030   0.54690   0.71430   0.01267  Uiso   1.00
H2     H     0.58350   0.53350   0.65780   0.01267  Uiso   1.00
H3     H     0.78690   0.44730   0.70510   0.01267  Uiso   1.00
H4     H     0.71800   0.36980   0.68870   0.01267  Uiso   1.00
H5     H     0.75970   0.40650   0.65160   0.01267  Uiso   1.00
H6     H     0.48090   0.40870   0.62660   0.01267  Uiso   1.00
H7     H     0.50900   0.40540   0.58020   0.01267  Uiso   1.00
H8     H     0.49750   0.34610   0.60920   0.01267  Uiso   1.00
H9     H     0.59350   0.24590   0.51900   0.01267  Uiso   1.00
H10    H     0.52340   0.17120   0.62560   0.01267  Uiso   1.00
H11    H     0.63580   0.42200   0.56680   0.01267  Uiso   1.00
H12    H     0.62670   0.36930   0.52030   0.01267  Uiso   1.00
H13    H     0.69860   0.40500   0.55990   0.01267  Uiso   1.00
H14    H     0.51840   0.24580   0.69040   0.01267  Uiso   1.00
H15    H     0.54240   0.32700   0.68930   0.01267  Uiso   1.00
H16    H     0.60050   0.30570   0.70900   0.01267  Uiso   1.00
H17    H     0.74940   0.96480   0.79350   0.01267  Uiso   1.00
H18    H     0.94920   0.00040   0.79330   0.01267  Uiso   1.00
H19    H     0.72790   0.05970   0.81810   0.01267  Uiso   1.00
H20    H     0.77370   0.09210   0.87050   0.01267  Uiso   1.00
H21    H     0.79200   0.14020   0.83340   0.01267  Uiso   1.00
H22    H     0.05060   0.11480   0.82320   0.01267  Uiso   1.00
H23    H     0.03670   0.18130   0.82980   0.01267  Uiso   1.00
H24    H     0.04450   0.14710   0.87260   0.01267  Uiso   1.00
H25    H     0.97010   0.34670   0.86350   0.01267  Uiso   1.00
H26    H     0.95980   0.26440   0.97610   0.01267  Uiso   1.00
H27    H     0.94760   0.20140   0.78330   0.01267  Uiso   1.00
H28    H     0.88060   0.21460   0.78150   0.01267  Uiso   1.00
H29    H     0.95920   0.28080   0.78980   0.01267  Uiso   1.00
H30    H     0.94270   0.10210   0.92430   0.01267  Uiso   1.00
H31    H     0.94810   0.14930   0.97230   0.01267  Uiso   1.00
H32    H     0.87270   0.10150   0.93600   0.01267  Uiso   1.00
H33    H     0.78790   0.87250   0.38960   0.01267  Uiso   1.00
H34    H     0.68250   0.65710   0.36090   0.01267  Uiso   1.00
H35    H     0.82610   0.94170   0.46410   0.01267  Uiso   1.00
H36    H     0.83420   0.90540   0.50570   0.01267  Uiso   1.00
H37    H     0.76310   0.90970   0.49040   0.01267  Uiso   1.00
H38    H     0.65860   0.64380   0.47470   0.01267  Uiso   1.00
H39    H     0.69900   0.61240   0.44630   0.01267  Uiso   1.00
H40    H     0.62360   0.60200   0.42160   0.01267  Uiso   1.00
H41    H     0.84500   0.77340   0.60360   0.01267  Uiso   1.00
H42    H     0.66220   0.78200   0.59400   0.01267  Uiso   1.00
H43    H     0.83330   0.73270   0.48450   0.01267  Uiso   1.00
H44    H     0.89010   0.81290   0.51160   0.01267  Uiso   1.00
H45    H     0.88140   0.74800   0.53460   0.01267  Uiso   1.00
H46    H     0.58790   0.76190   0.52020   0.01267  Uiso   1.00
H47    H     0.64290   0.82790   0.50270   0.01267  Uiso   1.00
H48    H     0.61180   0.74820   0.47330   0.01267  Uiso   1.00
H49    H     0.45310   0.22970   0.78570   0.01267  Uiso   1.00
H50    H     0.46650   0.41650   0.84220   0.01267  Uiso   1.00
H51    H     0.55270   0.21310   0.79490   0.01267  Uiso   1.00
H52    H     0.63020   0.28200   0.81130   0.01267  Uiso   1.00
H53    H     0.59350   0.24030   0.84840   0.01267  Uiso   1.00
H54    H     0.59130   0.51910   0.87340   0.01267  Uiso   1.00
H55    H     0.59460   0.49100   0.91980   0.01267  Uiso   1.00
H56    H     0.65390   0.50250   0.89080   0.01267  Uiso   1.00
H57    H     0.75410   0.40650   0.98100   0.01267  Uiso   1.00
H58    H     0.82880   0.47660   0.87440   0.01267  Uiso   1.00
H59    H     0.57800   0.36420   0.93320   0.01267  Uiso   1.00
H60    H     0.63070   0.37330   0.97970   0.01267  Uiso   1.00
H61    H     0.59500   0.30140   0.94010   0.01267  Uiso   1.00
H62    H     0.75420   0.48160   0.80960   0.01267  Uiso   1.00
H63    H     0.67300   0.45760   0.81070   0.01267  Uiso   1.00
H64    H     0.69430   0.39950   0.79100   0.01267  Uiso   1.00
H65    H     0.03520   0.25060   0.70650   0.01267  Uiso   1.00
H66    H     0.99960   0.05080   0.70670   0.01267  Uiso   1.00
H67    H     0.94030   0.27210   0.68190   0.01267  Uiso   1.00
H68    H     0.90790   0.22630   0.62950   0.01267  Uiso   1.00
H69    H     0.85980   0.20800   0.66660   0.01267  Uiso   1.00
H70    H     0.88520   0.94940   0.67680   0.01267  Uiso   1.00
H71    H     0.81870   0.96330   0.67020   0.01267  Uiso   1.00
H72    H     0.85290   0.95550   0.62740   0.01267  Uiso   1.00
H73    H     0.65330   0.02990   0.63650   0.01267  Uiso   1.00
H74    H     0.73560   0.04020   0.52390   0.01267  Uiso   1.00
H75    H     0.79860   0.05240   0.71670   0.01267  Uiso   1.00
H76    H     0.78540   0.11940   0.71850   0.01267  Uiso   1.00
H77    H     0.71920   0.04080   0.71020   0.01267  Uiso   1.00
H78    H     0.89790   0.05730   0.57570   0.01267  Uiso   1.00
H79    H     0.85070   0.05190   0.52770   0.01267  Uiso   1.00
H80    H     0.89850   0.12730   0.56400   0.01267  Uiso   1.00
H81    H     0.12750   0.21210   0.11040   0.01267  Uiso   1.00
H82    H     0.34290   0.31750   0.13910   0.01267  Uiso   1.00
H83    H     0.05830   0.17390   0.03590   0.01267  Uiso   1.00
H84    H     0.09460   0.16580   0.99430   0.01267  Uiso   1.00
H85    H     0.09030   0.23690   0.00960   0.01267  Uiso   1.00
H86    H     0.35620   0.34140   0.02530   0.01267  Uiso   1.00
H87    H     0.38760   0.30100   0.05370   0.01267  Uiso   1.00
H88    H     0.39800   0.37640   0.07840   0.01267  Uiso   1.00
H89    H     0.22660   0.15500   0.89640   0.01267  Uiso   1.00
H90    H     0.21800   0.33780   0.90600   0.01267  Uiso   1.00
H91    H     0.26730   0.16670   0.01550   0.01267  Uiso   1.00
H92    H     0.18710   0.10990   0.98840   0.01267  Uiso   1.00
H93    H     0.25200   0.11860   0.96540   0.01267  Uiso   1.00
H94    H     0.23810   0.41210   0.97980   0.01267  Uiso   1.00
H95    H     0.17210   0.35710   0.99730   0.01267  Uiso   1.00
H96    H     0.25180   0.38820   0.02670   0.01267  Uiso   1.00
H97    H     0.22970   0.45310   0.28570   0.01267  Uiso   1.00
H98    H     0.41650   0.46650   0.34220   0.01267  Uiso   1.00
H99    H     0.21310   0.55270   0.29490   0.01267  Uiso   1.00
H100   H     0.28200   0.63020   0.31130   0.01267  Uiso   1.00
H101   H     0.24030   0.59350   0.34840   0.01267  Uiso   1.00
H102   H     0.51910   0.59130   0.37340   0.01267  Uiso   1.00
H103   H     0.49100   0.59460   0.41980   0.01267  Uiso   1.00
H104   H     0.50250   0.65390   0.39080   0.01267  Uiso   1.00
H105   H     0.40650   0.75410   0.48100   0.01267  Uiso   1.00
H106   H     0.47660   0.82880   0.37440   0.01267  Uiso   1.00
H107   H     0.36420   0.57800   0.43320   0.01267  Uiso   1.00
H108   H     0.37330   0.63070   0.47970   0.01267  Uiso   1.00
H109   H     0.30140   0.59500   0.44010   0.01267  Uiso   1.00
H110   H     0.48160   0.75420   0.30960   0.01267  Uiso   1.00
H111   H     0.45760   0.67300   0.31070   0.01267  Uiso   1.00
H112   H     0.39950   0.69430   0.29100   0.01267  Uiso   1.00
H113   H     0.25060   0.03520   0.20650   0.01267  Uiso   1.00
H114   H     0.05080   0.99960   0.20670   0.01267  Uiso   1.00
H115   H     0.27210   0.94030   0.18190   0.01267  Uiso   1.00
H116   H     0.22630   0.90790   0.12950   0.01267  Uiso   1.00
H117   H     0.20800   0.85980   0.16660   0.01267  Uiso   1.00
H118   H     0.94940   0.88520   0.17680   0.01267  Uiso   1.00
H119   H     0.96330   0.81870   0.17020   0.01267  Uiso   1.00
H120   H     0.95550   0.85290   0.12740   0.01267  Uiso   1.00
H121   H     0.02990   0.65330   0.13650   0.01267  Uiso   1.00
H122   H     0.04020   0.73560   0.02390   0.01267  Uiso   1.00
H123   H     0.05240   0.79860   0.21670   0.01267  Uiso   1.00
H124   H     0.11940   0.78540   0.21850   0.01267  Uiso   1.00
H125   H     0.04080   0.71920   0.21020   0.01267  Uiso   1.00
H126   H     0.05730   0.89790   0.07570   0.01267  Uiso   1.00
H127   H     0.05190   0.85070   0.02770   0.01267  Uiso   1.00
H128   H     0.12730   0.89850   0.06400   0.01267  Uiso   1.00
H129   H     0.21210   0.12750   0.61040   0.01267  Uiso   1.00
H130   H     0.31750   0.34290   0.63910   0.01267  Uiso   1.00
H131   H     0.17390   0.05830   0.53590   0.01267  Uiso   1.00
H132   H     0.16580   0.09460   0.49430   0.01267  Uiso   1.00
H133   H     0.23690   0.09030   0.50960   0.01267  Uiso   1.00
H134   H     0.34140   0.35620   0.52530   0.01267  Uiso   1.00
H135   H     0.30100   0.38760   0.55370   0.01267  Uiso   1.00
H136   H     0.37640   0.39800   0.57840   0.01267  Uiso   1.00
H137   H     0.15500   0.22660   0.39640   0.01267  Uiso   1.00
H138   H     0.33780   0.21800   0.40600   0.01267  Uiso   1.00
H139   H     0.16670   0.26730   0.51550   0.01267  Uiso   1.00
H140   H     0.10990   0.18710   0.48840   0.01267  Uiso   1.00
H141   H     0.11860   0.25200   0.46540   0.01267  Uiso   1.00
H142   H     0.41210   0.23810   0.47980   0.01267  Uiso   1.00
H143   H     0.35710   0.17210   0.49730   0.01267  Uiso   1.00
H144   H     0.38820   0.25180   0.52670   0.01267  Uiso   1.00
H145   H     0.54690   0.77030   0.21430   0.01267  Uiso   1.00
H146   H     0.53350   0.58350   0.15780   0.01267  Uiso   1.00
H147   H     0.44730   0.78690   0.20510   0.01267  Uiso   1.00
H148   H     0.36980   0.71800   0.18870   0.01267  Uiso   1.00
H149   H     0.40650   0.75970   0.15160   0.01267  Uiso   1.00
H150   H     0.40870   0.48090   0.12660   0.01267  Uiso   1.00
H151   H     0.40540   0.50900   0.08020   0.01267  Uiso   1.00
H152   H     0.34610   0.49750   0.10920   0.01267  Uiso   1.00
H153   H     0.24590   0.59350   0.01900   0.01267  Uiso   1.00
H154   H     0.17120   0.52340   0.12560   0.01267  Uiso   1.00
H155   H     0.42200   0.63580   0.06680   0.01267  Uiso   1.00
H156   H     0.36930   0.62670   0.02030   0.01267  Uiso   1.00
H157   H     0.40500   0.69860   0.05990   0.01267  Uiso   1.00
H158   H     0.24580   0.51840   0.19040   0.01267  Uiso   1.00
H159   H     0.32700   0.54240   0.18930   0.01267  Uiso   1.00
H160   H     0.30570   0.60050   0.20900   0.01267  Uiso   1.00
H161   H     0.96480   0.74940   0.29350   0.01267  Uiso   1.00
H162   H     0.00040   0.94920   0.29330   0.01267  Uiso   1.00
H163   H     0.05970   0.72790   0.31810   0.01267  Uiso   1.00
H164   H     0.09210   0.77370   0.37050   0.01267  Uiso   1.00
H165   H     0.14020   0.79200   0.33340   0.01267  Uiso   1.00
H166   H     0.11480   0.05060   0.32320   0.01267  Uiso   1.00
H167   H     0.18130   0.03670   0.32980   0.01267  Uiso   1.00
H168   H     0.14710   0.04450   0.37260   0.01267  Uiso   1.00
H169   H     0.34670   0.97010   0.36350   0.01267  Uiso   1.00
H170   H     0.26440   0.95980   0.47610   0.01267  Uiso   1.00
H171   H     0.20140   0.94760   0.28330   0.01267  Uiso   1.00
H172   H     0.21460   0.88060   0.28150   0.01267  Uiso   1.00
H173   H     0.28080   0.95920   0.28980   0.01267  Uiso   1.00
H174   H     0.10210   0.94270   0.42430   0.01267  Uiso   1.00
H175   H     0.14930   0.94810   0.47230   0.01267  Uiso   1.00
H176   H     0.10150   0.87270   0.43600   0.01267  Uiso   1.00
H177   H     0.87250   0.78790   0.88960   0.01267  Uiso   1.00
H178   H     0.65710   0.68250   0.86090   0.01267  Uiso   1.00
H179   H     0.94170   0.82610   0.96410   0.01267  Uiso   1.00
H180   H     0.90540   0.83420   0.00570   0.01267  Uiso   1.00
H181   H     0.90970   0.76310   0.99040   0.01267  Uiso   1.00
H182   H     0.64380   0.65860   0.97470   0.01267  Uiso   1.00
H183   H     0.61240   0.69900   0.94630   0.01267  Uiso   1.00
H184   H     0.60200   0.62360   0.92160   0.01267  Uiso   1.00
H185   H     0.77340   0.84500   0.10360   0.01267  Uiso   1.00
H186   H     0.78200   0.66220   0.09400   0.01267  Uiso   1.00
H187   H     0.73270   0.83330   0.98450   0.01267  Uiso   1.00
H188   H     0.81290   0.89010   0.01160   0.01267  Uiso   1.00
H189   H     0.74800   0.88140   0.03460   0.01267  Uiso   1.00
H190   H     0.76190   0.58790   0.02020   0.01267  Uiso   1.00
H191   H     0.82790   0.64290   0.00270   0.01267  Uiso   1.00
H192   H     0.74820   0.61180   0.97330   0.01267  Uiso   1.00
C1     C     0.70990   0.62850   0.70750   0.01267  Uiso   1.00
C2     C     0.68120   0.55180   0.68750   0.01267  Uiso   1.00
C3     C     0.72380   0.52020   0.69450   0.01267  Uiso   1.00
C4     C     0.69760   0.44900   0.67230   0.01267  Uiso   1.00
C5     C     0.63050   0.40930   0.64400   0.01267  Uiso   1.00
C6     C     0.58530   0.44010   0.63830   0.01267  Uiso   1.00
C7     C     0.61290   0.51210   0.66100   0.01267  Uiso   1.00
C8     C     0.74470   0.41510   0.68010   0.01267  Uiso   1.00
C9     C     0.51220   0.39660   0.61140   0.01267  Uiso   1.00
C10    C     0.53290   0.12350   0.54280   0.01267  Uiso   1.00
C11    C     0.55540   0.19780   0.56860   0.01267  Uiso   1.00
C12    C     0.58840   0.25400   0.54990   0.01267  Uiso   1.00
C13    C     0.61580   0.32440   0.57520   0.01267  Uiso   1.00
C14    C     0.60400   0.33540   0.61790   0.01267  Uiso   1.00
C15    C     0.56840   0.27720   0.63860   0.01267  Uiso   1.00
C16    C     0.54640   0.21080   0.61240   0.01267  Uiso   1.00
C17    C     0.64680   0.38520   0.55380   0.01267  Uiso   1.00
C18    C     0.55640   0.29000   0.68590   0.01267  Uiso   1.00
C19    C     0.81520   0.89380   0.76860   0.01267  Uiso   1.00
C20    C     0.84600   0.97100   0.79040   0.01267  Uiso   1.00
C21    C     0.79950   0.99590   0.80190   0.01267  Uiso   1.00
C22    C     0.82730   0.06630   0.82570   0.01267  Uiso   1.00
C23    C     0.90000   0.11020   0.83890   0.01267  Uiso   1.00
C24    C     0.94820   0.08700   0.82640   0.01267  Uiso   1.00
C25    C     0.91850   0.01730   0.80220   0.01267  Uiso   1.00
C26    C     0.77560   0.09180   0.83800   0.01267  Uiso   1.00
C27    C     0.02680   0.13680   0.83910   0.01267  Uiso   1.00
C28    C     0.98540   0.38720   0.95340   0.01267  Uiso   1.00
C29    C     0.96800   0.31560   0.92430   0.01267  Uiso   1.00
C30    C     0.96090   0.30710   0.87680   0.01267  Uiso   1.00
C31    C     0.94050   0.24110   0.84830   0.01267  Uiso   1.00
C32    C     0.92900   0.18440   0.86940   0.01267  Uiso   1.00
C33    C     0.93820   0.19340   0.91660   0.01267  Uiso   1.00
C34    C     0.95600   0.25880   0.94370   0.01267  Uiso   1.00
C35    C     0.93120   0.23380   0.79600   0.01267  Uiso   1.00
C36    C     0.92410   0.13090   0.93930   0.01267  Uiso   1.00
C37    C     0.74490   0.76250   0.31880   0.01267  Uiso   1.00
C38    C     0.74000   0.76460   0.36800   0.01267  Uiso   1.00
C39    C     0.76810   0.82930   0.39980   0.01267  Uiso   1.00
C40    C     0.76760   0.83200   0.44530   0.01267  Uiso   1.00
C41    C     0.73830   0.76850   0.46090   0.01267  Uiso   1.00
C42    C     0.70650   0.70450   0.42950   0.01267  Uiso   1.00
C43    C     0.70600   0.70180   0.38270   0.01267  Uiso   1.00
C44    C     0.80070   0.90350   0.47940   0.01267  Uiso   1.00
C45    C     0.66850   0.63430   0.44440   0.01267  Uiso   1.00
C46    C     0.75720   0.77280   0.65510   0.01267  Uiso   1.00
C47    C     0.75290   0.77590   0.60490   0.01267  Uiso   1.00
C48    C     0.80560   0.77340   0.58530   0.01267  Uiso   1.00
C49    C     0.80020   0.77100   0.53720   0.01267  Uiso   1.00
C50    C     0.74200   0.77140   0.51090   0.01267  Uiso   1.00
C51    C     0.69010   0.77430   0.53220   0.01267  Uiso   1.00
C52    C     0.69660   0.77800   0.57940   0.01267  Uiso   1.00
C53    C     0.85610   0.76570   0.51510   0.01267  Uiso   1.00
C54    C     0.62750   0.77850   0.50460   0.01267  Uiso   1.00
C55    C     0.37150   0.29010   0.79250   0.01267  Uiso   1.00
C56    C     0.44820   0.31880   0.81250   0.01267  Uiso   1.00
C57    C     0.47980   0.27620   0.80550   0.01267  Uiso   1.00
C58    C     0.55100   0.30240   0.82770   0.01267  Uiso   1.00
C59    C     0.59070   0.36950   0.85600   0.01267  Uiso   1.00
C60    C     0.55990   0.41470   0.86170   0.01267  Uiso   1.00
C61    C     0.48790   0.38710   0.83900   0.01267  Uiso   1.00
C62    C     0.58490   0.25530   0.81990   0.01267  Uiso   1.00
C63    C     0.60340   0.48780   0.88860   0.01267  Uiso   1.00
C64    C     0.87650   0.46710   0.95720   0.01267  Uiso   1.00
C65    C     0.80220   0.44460   0.93140   0.01267  Uiso   1.00
C66    C     0.74600   0.41160   0.95010   0.01267  Uiso   1.00
C67    C     0.67560   0.38420   0.92480   0.01267  Uiso   1.00
C68    C     0.66460   0.39600   0.88210   0.01267  Uiso   1.00
C69    C     0.72280   0.43160   0.86140   0.01267  Uiso   1.00
C70    C     0.78920   0.45360   0.88760   0.01267  Uiso   1.00
C71    C     0.61480   0.35320   0.94620   0.01267  Uiso   1.00
C72    C     0.71000   0.44360   0.81410   0.01267  Uiso   1.00
C73    C     0.10620   0.18480   0.73140   0.01267  Uiso   1.00
C74    C     0.02900   0.15400   0.70960   0.01267  Uiso   1.00
C75    C     0.00410   0.20050   0.69810   0.01267  Uiso   1.00
C76    C     0.93370   0.17270   0.67430   0.01267  Uiso   1.00
C77    C     0.88980   0.10000   0.66110   0.01267  Uiso   1.00
C78    C     0.91300   0.05180   0.67360   0.01267  Uiso   1.00
C79    C     0.98270   0.08150   0.69780   0.01267  Uiso   1.00
C80    C     0.90820   0.22440   0.66200   0.01267  Uiso   1.00
C81    C     0.86320   0.97320   0.66090   0.01267  Uiso   1.00
C82    C     0.61280   0.01460   0.54660   0.01267  Uiso   1.00
C83    C     0.68440   0.03200   0.57570   0.01267  Uiso   1.00
C84    C     0.69290   0.03910   0.62320   0.01267  Uiso   1.00
C85    C     0.75890   0.05950   0.65170   0.01267  Uiso   1.00
C86    C     0.81560   0.07100   0.63060   0.01267  Uiso   1.00
C87    C     0.80660   0.06180   0.58340   0.01267  Uiso   1.00
C88    C     0.74120   0.04400   0.55630   0.01267  Uiso   1.00
C89    C     0.76620   0.06880   0.70400   0.01267  Uiso   1.00
C90    C     0.86910   0.07590   0.56070   0.01267  Uiso   1.00
C91    C     0.23750   0.25510   0.18120   0.01267  Uiso   1.00
C92    C     0.23540   0.26000   0.13200   0.01267  Uiso   1.00
C93    C     0.17070   0.23190   0.10020   0.01267  Uiso   1.00
C94    C     0.16800   0.23240   0.05470   0.01267  Uiso   1.00
C95    C     0.23150   0.26170   0.03910   0.01267  Uiso   1.00
C96    C     0.29550   0.29350   0.07050   0.01267  Uiso   1.00
C97    C     0.29820   0.29400   0.11730   0.01267  Uiso   1.00
C98    C     0.09650   0.19930   0.02060   0.01267  Uiso   1.00
C99    C     0.36570   0.33150   0.05560   0.01267  Uiso   1.00
C100   C     0.22720   0.24280   0.84490   0.01267  Uiso   1.00
C101   C     0.22410   0.24710   0.89510   0.01267  Uiso   1.00
C102   C     0.22660   0.19440   0.91470   0.01267  Uiso   1.00
C103   C     0.22900   0.19980   0.96280   0.01267  Uiso   1.00
C104   C     0.22860   0.25800   0.98910   0.01267  Uiso   1.00
C105   C     0.22570   0.30990   0.96780   0.01267  Uiso   1.00
C106   C     0.22200   0.30340   0.92060   0.01267  Uiso   1.00
C107   C     0.23430   0.14390   0.98490   0.01267  Uiso   1.00
C108   C     0.22150   0.37250   0.99540   0.01267  Uiso   1.00
C109   C     0.29010   0.37150   0.29250   0.01267  Uiso   1.00
C110   C     0.31880   0.44820   0.31250   0.01267  Uiso   1.00
C111   C     0.27620   0.47980   0.30550   0.01267  Uiso   1.00
C112   C     0.30240   0.55100   0.32770   0.01267  Uiso   1.00
C113   C     0.36950   0.59070   0.35600   0.01267  Uiso   1.00
C114   C     0.41470   0.55990   0.36170   0.01267  Uiso   1.00
C115   C     0.38710   0.48790   0.33900   0.01267  Uiso   1.00
C116   C     0.25530   0.58490   0.31990   0.01267  Uiso   1.00
C117   C     0.48780   0.60340   0.38860   0.01267  Uiso   1.00
C118   C     0.46710   0.87650   0.45720   0.01267  Uiso   1.00
C119   C     0.44460   0.80220   0.43140   0.01267  Uiso   1.00
C120   C     0.41160   0.74600   0.45010   0.01267  Uiso   1.00
C121   C     0.38420   0.67560   0.42480   0.01267  Uiso   1.00
C122   C     0.39600   0.66460   0.38210   0.01267  Uiso   1.00
C123   C     0.43160   0.72280   0.36140   0.01267  Uiso   1.00
C124   C     0.45360   0.78920   0.38760   0.01267  Uiso   1.00
C125   C     0.35320   0.61480   0.44620   0.01267  Uiso   1.00
C126   C     0.44360   0.71000   0.31410   0.01267  Uiso   1.00
C127   C     0.18480   0.10620   0.23140   0.01267  Uiso   1.00
C128   C     0.15400   0.02900   0.20960   0.01267  Uiso   1.00
C129   C     0.20050   0.00410   0.19810   0.01267  Uiso   1.00
C130   C     0.17270   0.93370   0.17430   0.01267  Uiso   1.00
C131   C     0.10000   0.88980   0.16110   0.01267  Uiso   1.00
C132   C     0.05180   0.91300   0.17360   0.01267  Uiso   1.00
C133   C     0.08150   0.98270   0.19780   0.01267  Uiso   1.00
C134   C     0.22440   0.90820   0.16200   0.01267  Uiso   1.00
C135   C     0.97320   0.86320   0.16090   0.01267  Uiso   1.00
C136   C     0.01460   0.61280   0.04660   0.01267  Uiso   1.00
C137   C     0.03200   0.68440   0.07570   0.01267  Uiso   1.00
C138   C     0.03910   0.69290   0.12320   0.01267  Uiso   1.00
C139   C     0.05950   0.75890   0.15170   0.01267  Uiso   1.00
C140   C     0.07100   0.81560   0.13060   0.01267  Uiso   1.00
C141   C     0.06180   0.80660   0.08340   0.01267  Uiso   1.00
C142   C     0.04400   0.74120   0.05630   0.01267  Uiso   1.00
C143   C     0.06880   0.76620   0.20400   0.01267  Uiso   1.00
C144   C     0.07590   0.86910   0.06070   0.01267  Uiso   1.00
C145   C     0.25510   0.23750   0.68120   0.01267  Uiso   1.00
C146   C     0.26000   0.23540   0.63200   0.01267  Uiso   1.00
C147   C     0.23190   0.17070   0.60020   0.01267  Uiso   1.00
C148   C     0.23240   0.16800   0.55470   0.01267  Uiso   1.00
C149   C     0.26170   0.23150   0.53910   0.01267  Uiso   1.00
C150   C     0.29350   0.29550   0.57050   0.01267  Uiso   1.00
C151   C     0.29400   0.29820   0.61730   0.01267  Uiso   1.00
C152   C     0.19930   0.09650   0.52060   0.01267  Uiso   1.00
C153   C     0.33150   0.36570   0.55560   0.01267  Uiso   1.00
C154   C     0.24280   0.22720   0.34490   0.01267  Uiso   1.00
C155   C     0.24710   0.22410   0.39510   0.01267  Uiso   1.00
C156   C     0.19440   0.22660   0.41470   0.01267  Uiso   1.00
C157   C     0.19980   0.22900   0.46280   0.01267  Uiso   1.00
C158   C     0.25800   0.22860   0.48910   0.01267  Uiso   1.00
C159   C     0.30990   0.22570   0.46780   0.01267  Uiso   1.00
C160   C     0.30340   0.22200   0.42060   0.01267  Uiso   1.00
C161   C     0.14390   0.23430   0.48490   0.01267  Uiso   1.00
C162   C     0.37250   0.22150   0.49540   0.01267  Uiso   1.00
C163   C     0.62850   0.70990   0.20750   0.01267  Uiso   1.00
C164   C     0.55180   0.68120   0.18750   0.01267  Uiso   1.00
C165   C     0.52020   0.72380   0.19450   0.01267  Uiso   1.00
C166   C     0.44900   0.69760   0.17230   0.01267  Uiso   1.00
C167   C     0.40930   0.63050   0.14400   0.01267  Uiso   1.00
C168   C     0.44010   0.58530   0.13830   0.01267  Uiso   1.00
C169   C     0.51210   0.61290   0.16100   0.01267  Uiso   1.00
C170   C     0.41510   0.74470   0.18010   0.01267  Uiso   1.00
C171   C     0.39660   0.51220   0.11140   0.01267  Uiso   1.00
C172   C     0.12350   0.53290   0.04280   0.01267  Uiso   1.00
C173   C     0.19780   0.55540   0.06860   0.01267  Uiso   1.00
C174   C     0.25400   0.58840   0.04990   0.01267  Uiso   1.00
C175   C     0.32440   0.61580   0.07520   0.01267  Uiso   1.00
C176   C     0.33540   0.60400   0.11790   0.01267  Uiso   1.00
C177   C     0.27720   0.56840   0.13860   0.01267  Uiso   1.00
C178   C     0.21080   0.54640   0.11240   0.01267  Uiso   1.00
C179   C     0.38520   0.64680   0.05380   0.01267  Uiso   1.00
C180   C     0.29000   0.55640   0.18590   0.01267  Uiso   1.00
C181   C     0.89380   0.81520   0.26860   0.01267  Uiso   1.00
C182   C     0.97100   0.84600   0.29040   0.01267  Uiso   1.00
C183   C     0.99590   0.79950   0.30190   0.01267  Uiso   1.00
C184   C     0.06630   0.82730   0.32570   0.01267  Uiso   1.00
C185   C     0.11020   0.90000   0.33890   0.01267  Uiso   1.00
C186   C     0.08700   0.94820   0.32640   0.01267  Uiso   1.00
C187   C     0.01730   0.91850   0.30220   0.01267  Uiso   1.00
C188   C     0.09180   0.77560   0.33800   0.01267  Uiso   1.00
C189   C     0.13680   0.02680   0.33910   0.01267  Uiso   1.00
C190   C     0.38720   0.98540   0.45340   0.01267  Uiso   1.00
C191   C     0.31560   0.96800   0.42430   0.01267  Uiso   1.00
C192   C     0.30710   0.96090   0.37680   0.01267  Uiso   1.00
C193   C     0.24110   0.94050   0.34830   0.01267  Uiso   1.00
C194   C     0.18440   0.92900   0.36940   0.01267  Uiso   1.00
C195   C     0.19340   0.93820   0.41660   0.01267  Uiso   1.00
C196   C     0.25880   0.95600   0.44370   0.01267  Uiso   1.00
C197   C     0.23380   0.93120   0.29600   0.01267  Uiso   1.00
C198   C     0.13090   0.92410   0.43930   0.01267  Uiso   1.00
C199   C     0.76250   0.74490   0.81880   0.01267  Uiso   1.00
C200   C     0.76460   0.74000   0.86800   0.01267  Uiso   1.00
C201   C     0.82930   0.76810   0.89980   0.01267  Uiso   1.00
C202   C     0.83200   0.76760   0.94530   0.01267  Uiso   1.00
C203   C     0.76850   0.73830   0.96090   0.01267  Uiso   1.00
C204   C     0.70450   0.70650   0.92950   0.01267  Uiso   1.00
C205   C     0.70180   0.70600   0.88270   0.01267  Uiso   1.00
C206   C     0.90350   0.80070   0.97940   0.01267  Uiso   1.00
C207   C     0.63430   0.66850   0.94440   0.01267  Uiso   1.00
C208   C     0.77280   0.75720   0.15510   0.01267  Uiso   1.00
C209   C     0.77590   0.75290   0.10490   0.01267  Uiso   1.00
C210   C     0.77340   0.80560   0.08530   0.01267  Uiso   1.00
C211   C     0.77100   0.80020   0.03720   0.01267  Uiso   1.00
C212   C     0.77140   0.74200   0.01090   0.01267  Uiso   1.00
C213   C     0.77430   0.69010   0.03220   0.01267  Uiso   1.00
C214   C     0.77800   0.69660   0.07940   0.01267  Uiso   1.00
C215   C     0.76570   0.85610   0.01510   0.01267  Uiso   1.00
C216   C     0.77850   0.62750   0.00460   0.01267  Uiso   1.00
O1     O     0.66670   0.65210   0.70430   0.01267  Uiso   1.00
O2     O     0.77650   0.66670   0.72570   0.01267  Uiso   1.00
O3     O     0.74920   0.85460   0.76150   0.01267  Uiso   1.00
O4     O     0.85950   0.87350   0.75890   0.01267  Uiso   1.00
O5     O     0.73140   0.70440   0.29410   0.01267  Uiso   1.00
O6     O     0.76680   0.82060   0.30670   0.01267  Uiso   1.00
O7     O     0.70680   0.77320   0.67210   0.01267  Uiso   1.00
O8     O     0.80980   0.77080   0.67670   0.01267  Uiso   1.00
O9     O     0.96760   0.38460   0.99240   0.01267  Uiso   1.00
O10    O     0.00930   0.43950   0.93600   0.01267  Uiso   1.00
O11    O     0.49730   0.07250   0.56130   0.01267  Uiso   1.00
O12    O     0.55150   0.11630   0.50550   0.01267  Uiso   1.00
O13    O     0.34790   0.33330   0.79570   0.01267  Uiso   1.00
O14    O     0.33330   0.22350   0.77430   0.01267  Uiso   1.00
O15    O     0.14540   0.25080   0.73850   0.01267  Uiso   1.00
O16    O     0.12650   0.14050   0.74110   0.01267  Uiso   1.00
O17    O     0.29560   0.26860   0.20590   0.01267  Uiso   1.00
O18    O     0.17940   0.23320   0.19330   0.01267  Uiso   1.00
O19    O     0.22680   0.29320   0.82790   0.01267  Uiso   1.00
O20    O     0.22920   0.19020   0.82330   0.01267  Uiso   1.00
O21    O     0.61540   0.03240   0.50760   0.01267  Uiso   1.00
O22    O     0.56050   0.99070   0.56400   0.01267  Uiso   1.00
O23    O     0.92750   0.50270   0.93870   0.01267  Uiso   1.00
O24    O     0.88370   0.44850   0.99450   0.01267  Uiso   1.00
O25    O     0.33330   0.34790   0.29570   0.01267  Uiso   1.00
O26    O     0.22350   0.33330   0.27430   0.01267  Uiso   1.00
O27    O     0.25080   0.14540   0.23850   0.01267  Uiso   1.00
O28    O     0.14050   0.12650   0.24110   0.01267  Uiso   1.00
O29    O     0.26860   0.29560   0.70590   0.01267  Uiso   1.00
O30    O     0.23320   0.17940   0.69330   0.01267  Uiso   1.00
O31    O     0.29320   0.22680   0.32790   0.01267  Uiso   1.00
O32    O     0.19020   0.22920   0.32330   0.01267  Uiso   1.00
O33    O     0.03240   0.61540   0.00760   0.01267  Uiso   1.00
O34    O     0.99070   0.56050   0.06400   0.01267  Uiso   1.00
O35    O     0.50270   0.92750   0.43870   0.01267  Uiso   1.00
O36    O     0.44850   0.88370   0.49450   0.01267  Uiso   1.00
O37    O     0.65210   0.66670   0.20430   0.01267  Uiso   1.00
O38    O     0.66670   0.77650   0.22570   0.01267  Uiso   1.00
O39    O     0.85460   0.74920   0.26150   0.01267  Uiso   1.00
O40    O     0.87350   0.85950   0.25890   0.01267  Uiso   1.00
O41    O     0.70440   0.73140   0.79410   0.01267  Uiso   1.00
O42    O     0.82060   0.76680   0.80670   0.01267  Uiso   1.00
O43    O     0.77320   0.70680   0.17210   0.01267  Uiso   1.00
O44    O     0.77080   0.80980   0.17670   0.01267  Uiso   1.00
O45    O     0.38460   0.96760   0.49240   0.01267  Uiso   1.00
O46    O     0.43950   0.00930   0.43600   0.01267  Uiso   1.00
O47    O     0.07250   0.49730   0.06130   0.01267  Uiso   1.00
O48    O     0.11630   0.55150   0.00550   0.01267  Uiso   1.00
