data_image0
_cell_length_a       13.172
_cell_length_b       19.849
_cell_length_c       20.912
_cell_angle_alpha    90
_cell_angle_beta     102.06
_cell_angle_gamma    90

_symmetry_space_group_name_H-M    "P 1"
_symmetry_int_tables_number       1

loop_
  _symmetry_equiv_pos_as_xyz
  'x, y, z'

loop_
  _atom_site_label
  _atom_site_occupancy
  _atom_site_fract_x
  _atom_site_fract_y
  _atom_site_fract_z
  _atom_site_thermal_displace_type
  _atom_site_B_iso_or_equiv
  _atom_site_type_symbol
  Cu1      1.0000 0.06830  0.42340  0.62090  Biso   1.000  Cu
  Cu2      1.0000 0.11910  0.36930  0.73810  Biso   1.000  Cu
  Cu3      1.0000 0.99940  0.26850  0.67800  Biso   1.000  Cu
  Cu4      1.0000 0.90340  0.34290  0.57750  Biso   1.000  Cu
  Cu5      1.0000 0.57470  0.22280  0.80010  Biso   1.000  Cu
  O1       1.0000 0.23400  0.34200  0.70700  Biso   1.000  O
  O2       1.0000 0.97200  0.28700  0.53400  Biso   1.000  O
  O3       1.0000 0.96100  0.48000  0.63400  Biso   1.000  O
  O4       1.0000 0.92300  0.29600  0.73800  Biso   1.000  O
  N1       1.0000 0.46500  0.24400  0.73400  Biso   1.000  N
  N2       1.0000 0.19000  0.38000  0.60200  Biso   1.000  N
  N3       1.0000 0.56000  0.25200  0.89300  Biso   1.000  N
  N4       1.0000 0.06700  0.22600  0.61500  Biso   1.000  N
  N5       1.0000 0.61100  0.12900  0.80400  Biso   1.000  N
  N6       1.0000 0.83000  0.39900  0.61900  Biso   1.000  N
  N7       1.0000 0.69500  0.28400  0.79100  Biso   1.000  N
  N8       1.0000 0.00600  0.39700  0.77100  Biso   1.000  N
  C1       1.0000 0.25000  0.34600  0.64700  Biso   1.000  C
  C2       1.0000 0.33700  0.31200  0.63200  Biso   1.000  C
  C3       1.0000 0.35600  0.30800  0.57200  Biso   1.000  C
  C4       1.0000 0.28600  0.34700  0.52800  Biso   1.000  C
  C5       1.0000 0.20600  0.38100  0.54400  Biso   1.000  C
  C6       1.0000 0.40800  0.27200  0.68900  Biso   1.000  C
  C7       1.0000 0.12600  0.41300  0.48800  Biso   1.000  C
  C8       1.0000 0.04200  0.24300  0.55200  Biso   1.000  C
  C9       1.0000 0.09200  0.20900  0.50800  Biso   1.000  C
  C10      1.0000 0.17500  0.16500  0.53800  Biso   1.000  C
  C11      1.0000 0.19400  0.14800  0.59900  Biso   1.000  C
  C12      1.0000 0.14700  0.18300  0.63700  Biso   1.000  C
  C13      1.0000 0.57300  0.26900  0.94300  Biso   1.000  C
  C14      1.0000 0.17800  0.16300  0.71000  Biso   1.000  C
  C15      1.0000 0.87100  0.45800  0.63800  Biso   1.000  C
  C16      1.0000 0.81700  0.51200  0.66900  Biso   1.000  C
  C17      1.0000 0.70900  0.49200  0.67400  Biso   1.000  C
  C18      1.0000 0.67200  0.42500  0.65300  Biso   1.000  C
  C19      1.0000 0.73700  0.38200  0.62800  Biso   1.000  C
  C20      1.0000 0.64400  0.07600  0.81600  Biso   1.000  C
  C21      1.0000 0.68600  0.31800  0.61000  Biso   1.000  C
  C22      1.0000 0.93200  0.35400  0.76800  Biso   1.000  C
  C23      1.0000 0.84900  0.36400  0.79700  Biso   1.000  C
  C24      1.0000 0.84400  0.42200  0.83300  Biso   1.000  C
  C25      1.0000 0.92400  0.47900  0.83200  Biso   1.000  C
  C26      1.0000 0.00600  0.45300  0.80100  Biso   1.000  C
  C27      1.0000 0.76400  0.31800  0.79500  Biso   1.000  C
  C28      1.0000 0.08800  0.50500  0.80000  Biso   1.000  C
  H1       1.0000 0.21870  0.14800  0.51080  Biso   1.000  H
  H2       1.0000 0.23950  0.11130  0.61450  Biso   1.000  H
  H3       1.0000 0.41080  0.28290  0.56070  Biso   1.000  H
  H4       1.0000 0.29470  0.34910  0.48460  Biso   1.000  H
  H5       1.0000 0.66610  0.52200  0.69170  Biso   1.000  H
  H6       1.0000 0.60420  0.41160  0.65510  Biso   1.000  H
  H7       1.0000 0.79140  0.42730  0.85780  Biso   1.000  H
  H8       1.0000 0.92130  0.52310  0.84910  Biso   1.000  H
  H9       1.0000 0.11750  0.45880  0.49790  Biso   1.000  H
  H10      1.0000 0.14950  0.40890  0.44850  Biso   1.000  H
  H11      1.0000 0.06180  0.38980  0.48450  Biso   1.000  H
  H12      1.0000 0.15940  0.11700  0.71460  Biso   1.000  H
  H13      1.0000 0.25030  0.16830  0.72510  Biso   1.000  H
  H14      1.0000 0.14170  0.19060  0.73490  Biso   1.000  H
  H15      1.0000 0.66770  0.29830  0.64660  Biso   1.000  H
  H16      1.0000 0.62580  0.32570  0.57660  Biso   1.000  H
  H17      1.0000 0.73250  0.28950  0.59310  Biso   1.000  H
  H18      1.0000 0.15430  0.48620  0.81850  Biso   1.000  H
  H19      1.0000 0.08640  0.51770  0.75610  Biso   1.000  H
  H20      1.0000 0.07590  0.54290  0.82460  Biso   1.000  H
  Cu6      1.0000 0.43170  0.92340  0.87910  Biso   1.000  Cu
  Cu7      1.0000 0.38090  0.86930  0.76190  Biso   1.000  Cu
  Cu8      1.0000 0.50060  0.76850  0.82200  Biso   1.000  Cu
  Cu9      1.0000 0.59660  0.84290  0.92250  Biso   1.000  Cu
  Cu10     1.0000 0.92530  0.72280  0.69990  Biso   1.000  Cu
  O5       1.0000 0.26600  0.84200  0.79300  Biso   1.000  O
  O6       1.0000 0.52800  0.78700  0.96600  Biso   1.000  O
  O7       1.0000 0.53900  0.98000  0.86600  Biso   1.000  O
  O8       1.0000 0.57700  0.79600  0.76200  Biso   1.000  O
  N9       1.0000 0.03500  0.74400  0.76600  Biso   1.000  N
  N10      1.0000 0.31000  0.88000  0.89800  Biso   1.000  N
  N11      1.0000 0.94000  0.75200  0.60700  Biso   1.000  N
  N12      1.0000 0.43300  0.72600  0.88500  Biso   1.000  N
  N13      1.0000 0.88900  0.62900  0.69600  Biso   1.000  N
  N14      1.0000 0.67000  0.89900  0.88100  Biso   1.000  N
  N15      1.0000 0.80500  0.78400  0.70900  Biso   1.000  N
  N16      1.0000 0.49400  0.89700  0.72900  Biso   1.000  N
  C29      1.0000 0.25000  0.84600  0.85300  Biso   1.000  C
  C30      1.0000 0.16300  0.81200  0.86800  Biso   1.000  C
  C31      1.0000 0.14400  0.80800  0.92800  Biso   1.000  C
  C32      1.0000 0.21400  0.84700  0.97200  Biso   1.000  C
  C33      1.0000 0.29400  0.88100  0.95600  Biso   1.000  C
  C34      1.0000 0.09200  0.77200  0.81100  Biso   1.000  C
  C35      1.0000 0.37400  0.91300  0.01200  Biso   1.000  C
  C36      1.0000 0.45800  0.74300  0.94800  Biso   1.000  C
  C37      1.0000 0.40800  0.70900  0.99200  Biso   1.000  C
  C38      1.0000 0.32500  0.66500  0.96200  Biso   1.000  C
  C39      1.0000 0.30600  0.64800  0.90100  Biso   1.000  C
  C40      1.0000 0.35300  0.68300  0.86300  Biso   1.000  C
  C41      1.0000 0.92700  0.76900  0.55700  Biso   1.000  C
  C42      1.0000 0.32200  0.66300  0.79000  Biso   1.000  C
  C43      1.0000 0.62900  0.95800  0.86200  Biso   1.000  C
  C44      1.0000 0.68300  0.01200  0.83100  Biso   1.000  C
  C45      1.0000 0.79100  0.99200  0.82600  Biso   1.000  C
  C46      1.0000 0.82800  0.92500  0.84700  Biso   1.000  C
  C47      1.0000 0.76300  0.88200  0.87200  Biso   1.000  C
  C48      1.0000 0.85600  0.57600  0.68400  Biso   1.000  C
  C49      1.0000 0.81400  0.81800  0.89000  Biso   1.000  C
  C50      1.0000 0.56800  0.85400  0.73200  Biso   1.000  C
  C51      1.0000 0.65100  0.86400  0.70300  Biso   1.000  C
  C52      1.0000 0.65600  0.92200  0.66700  Biso   1.000  C
  C53      1.0000 0.57600  0.97900  0.66800  Biso   1.000  C
  C54      1.0000 0.49400  0.95300  0.69900  Biso   1.000  C
  C55      1.0000 0.73600  0.81800  0.70500  Biso   1.000  C
  C56      1.0000 0.41200  0.00500  0.70000  Biso   1.000  C
  H21      1.0000 0.28130  0.64800  0.98920  Biso   1.000  H
  H22      1.0000 0.26050  0.61130  0.88550  Biso   1.000  H
  H23      1.0000 0.08920  0.78290  0.93930  Biso   1.000  H
  H24      1.0000 0.20530  0.84910  0.01540  Biso   1.000  H
  H25      1.0000 0.83390  0.02200  0.80830  Biso   1.000  H
  H26      1.0000 0.89580  0.91160  0.84490  Biso   1.000  H
  H27      1.0000 0.70860  0.92730  0.64220  Biso   1.000  H
  H28      1.0000 0.57870  0.02310  0.65090  Biso   1.000  H
  H29      1.0000 0.38250  0.95880  0.00210  Biso   1.000  H
  H30      1.0000 0.35050  0.90890  0.05150  Biso   1.000  H
  H31      1.0000 0.43820  0.88980  0.01550  Biso   1.000  H
  H32      1.0000 0.34060  0.61700  0.78540  Biso   1.000  H
  H33      1.0000 0.24970  0.66830  0.77490  Biso   1.000  H
  H34      1.0000 0.35830  0.69060  0.76510  Biso   1.000  H
  H35      1.0000 0.83230  0.79830  0.85340  Biso   1.000  H
  H36      1.0000 0.87420  0.82570  0.92340  Biso   1.000  H
  H37      1.0000 0.76750  0.78950  0.90690  Biso   1.000  H
  H38      1.0000 0.34570  0.98620  0.68150  Biso   1.000  H
  H39      1.0000 0.41360  0.01770  0.74390  Biso   1.000  H
  H40      1.0000 0.42410  0.04290  0.67540  Biso   1.000  H
  Cu11     1.0000 0.93170  0.57660  0.37910  Biso   1.000  Cu
  Cu12     1.0000 0.88090  0.63070  0.26190  Biso   1.000  Cu
  Cu13     1.0000 0.00060  0.73150  0.32200  Biso   1.000  Cu
  Cu14     1.0000 0.09660  0.65710  0.42250  Biso   1.000  Cu
  Cu15     1.0000 0.42530  0.77720  0.19990  Biso   1.000  Cu
  O9       1.0000 0.76600  0.65800  0.29300  Biso   1.000  O
  O10      1.0000 0.02800  0.71300  0.46600  Biso   1.000  O
  O11      1.0000 0.03900  0.52000  0.36600  Biso   1.000  O
  O12      1.0000 0.07700  0.70400  0.26200  Biso   1.000  O
  N17      1.0000 0.53500  0.75600  0.26600  Biso   1.000  N
  N18      1.0000 0.81000  0.62000  0.39800  Biso   1.000  N
  N19      1.0000 0.44000  0.74800  0.10700  Biso   1.000  N
  N20      1.0000 0.93300  0.77400  0.38500  Biso   1.000  N
  N21      1.0000 0.38900  0.87100  0.19600  Biso   1.000  N
  N22      1.0000 0.17000  0.60100  0.38100  Biso   1.000  N
  N23      1.0000 0.30500  0.71600  0.20900  Biso   1.000  N
  N24      1.0000 0.99400  0.60300  0.22900  Biso   1.000  N
  C57      1.0000 0.75000  0.65400  0.35300  Biso   1.000  C
  C58      1.0000 0.66300  0.68800  0.36800  Biso   1.000  C
  C59      1.0000 0.64400  0.69200  0.42800  Biso   1.000  C
  C60      1.0000 0.71400  0.65300  0.47200  Biso   1.000  C
  C61      1.0000 0.79400  0.61900  0.45600  Biso   1.000  C
  C62      1.0000 0.59200  0.72800  0.31100  Biso   1.000  C
  C63      1.0000 0.87400  0.58700  0.51200  Biso   1.000  C
  C64      1.0000 0.95800  0.75700  0.44800  Biso   1.000  C
  C65      1.0000 0.90800  0.79100  0.49200  Biso   1.000  C
  C66      1.0000 0.82500  0.83500  0.46200  Biso   1.000  C
  C67      1.0000 0.80600  0.85200  0.40100  Biso   1.000  C
  C68      1.0000 0.85300  0.81700  0.36300  Biso   1.000  C
  C69      1.0000 0.42700  0.73100  0.05700  Biso   1.000  C
  C70      1.0000 0.82200  0.83700  0.29000  Biso   1.000  C
  C71      1.0000 0.12900  0.54200  0.36200  Biso   1.000  C
  C72      1.0000 0.18300  0.48800  0.33100  Biso   1.000  C
  C73      1.0000 0.29100  0.50800  0.32600  Biso   1.000  C
  C74      1.0000 0.32800  0.57500  0.34700  Biso   1.000  C
  C75      1.0000 0.26300  0.61800  0.37200  Biso   1.000  C
  C76      1.0000 0.35600  0.92400  0.18400  Biso   1.000  C
  C77      1.0000 0.31400  0.68200  0.39000  Biso   1.000  C
  C78      1.0000 0.06800  0.64600  0.23200  Biso   1.000  C
  C79      1.0000 0.15100  0.63600  0.20300  Biso   1.000  C
  C80      1.0000 0.15600  0.57800  0.16700  Biso   1.000  C
  C81      1.0000 0.07600  0.52100  0.16800  Biso   1.000  C
  C82      1.0000 0.99400  0.54700  0.19900  Biso   1.000  C
  C83      1.0000 0.23600  0.68200  0.20500  Biso   1.000  C
  C84      1.0000 0.91200  0.49500  0.20000  Biso   1.000  C
  H41      1.0000 0.78130  0.85200  0.48920  Biso   1.000  H
  H42      1.0000 0.76050  0.88870  0.38550  Biso   1.000  H
  H43      1.0000 0.58920  0.71710  0.43930  Biso   1.000  H
  H44      1.0000 0.70530  0.65090  0.51540  Biso   1.000  H
  H45      1.0000 0.33390  0.47800  0.30830  Biso   1.000  H
  H46      1.0000 0.39580  0.58840  0.34490  Biso   1.000  H
  H47      1.0000 0.20860  0.57270  0.14220  Biso   1.000  H
  H48      1.0000 0.07870  0.47690  0.15090  Biso   1.000  H
  H49      1.0000 0.88250  0.54120  0.50210  Biso   1.000  H
  H50      1.0000 0.85050  0.59110  0.55150  Biso   1.000  H
  H51      1.0000 0.93820  0.61020  0.51550  Biso   1.000  H
  H52      1.0000 0.84060  0.88300  0.28540  Biso   1.000  H
  H53      1.0000 0.74970  0.83170  0.27490  Biso   1.000  H
  H54      1.0000 0.85830  0.80940  0.26510  Biso   1.000  H
  H55      1.0000 0.33230  0.70170  0.35340  Biso   1.000  H
  H56      1.0000 0.37420  0.67430  0.42340  Biso   1.000  H
  H57      1.0000 0.26750  0.71050  0.40690  Biso   1.000  H
  H58      1.0000 0.84570  0.51380  0.18150  Biso   1.000  H
  H59      1.0000 0.91360  0.48230  0.24390  Biso   1.000  H
  H60      1.0000 0.92410  0.45710  0.17540  Biso   1.000  H
  Cu16     1.0000 0.56830  0.07660  0.12090  Biso   1.000  Cu
  Cu17     1.0000 0.61910  0.13070  0.23810  Biso   1.000  Cu
  Cu18     1.0000 0.49940  0.23150  0.17800  Biso   1.000  Cu
  Cu19     1.0000 0.40340  0.15710  0.07750  Biso   1.000  Cu
  Cu20     1.0000 0.07470  0.27720  0.30010  Biso   1.000  Cu
  O13      1.0000 0.73400  0.15800  0.20700  Biso   1.000  O
  O14      1.0000 0.47200  0.21300  0.03400  Biso   1.000  O
  O15      1.0000 0.46100  0.02000  0.13400  Biso   1.000  O
  O16      1.0000 0.42300  0.20400  0.23800  Biso   1.000  O
  N25      1.0000 0.96500  0.25600  0.23400  Biso   1.000  N
  N26      1.0000 0.69000  0.12000  0.10200  Biso   1.000  N
  N27      1.0000 0.06000  0.24800  0.39300  Biso   1.000  N
  N28      1.0000 0.56700  0.27400  0.11500  Biso   1.000  N
  N29      1.0000 0.11100  0.37100  0.30400  Biso   1.000  N
  N30      1.0000 0.33000  0.10100  0.11900  Biso   1.000  N
  N31      1.0000 0.19500  0.21600  0.29100  Biso   1.000  N
  N32      1.0000 0.50600  0.10300  0.27100  Biso   1.000  N
  C85      1.0000 0.75000  0.15400  0.14700  Biso   1.000  C
  C86      1.0000 0.83700  0.18800  0.13200  Biso   1.000  C
  C87      1.0000 0.85600  0.19200  0.07200  Biso   1.000  C
  C88      1.0000 0.78600  0.15300  0.02800  Biso   1.000  C
  C89      1.0000 0.70600  0.11900  0.04400  Biso   1.000  C
  C90      1.0000 0.90800  0.22800  0.18900  Biso   1.000  C
  C91      1.0000 0.62600  0.08700  0.98800  Biso   1.000  C
  C92      1.0000 0.54200  0.25700  0.05200  Biso   1.000  C
  C93      1.0000 0.59200  0.29100  0.00800  Biso   1.000  C
  C94      1.0000 0.67500  0.33500  0.03800  Biso   1.000  C
  C95      1.0000 0.69400  0.35200  0.09900  Biso   1.000  C
  C96      1.0000 0.64700  0.31700  0.13700  Biso   1.000  C
  C97      1.0000 0.07300  0.23100  0.44300  Biso   1.000  C
  C98      1.0000 0.67800  0.33700  0.21000  Biso   1.000  C
  C99      1.0000 0.37100  0.04200  0.13800  Biso   1.000  C
  C100     1.0000 0.31700  0.98800  0.16900  Biso   1.000  C
  C101     1.0000 0.20900  0.00800  0.17400  Biso   1.000  C
  C102     1.0000 0.17200  0.07500  0.15300  Biso   1.000  C
  C103     1.0000 0.23700  0.11800  0.12800  Biso   1.000  C
  C104     1.0000 0.14400  0.42400  0.31600  Biso   1.000  C
  C105     1.0000 0.18600  0.18200  0.11000  Biso   1.000  C
  C106     1.0000 0.43200  0.14600  0.26800  Biso   1.000  C
  C107     1.0000 0.34900  0.13600  0.29700  Biso   1.000  C
  C108     1.0000 0.34400  0.07800  0.33300  Biso   1.000  C
  C109     1.0000 0.42400  0.02100  0.33200  Biso   1.000  C
  C110     1.0000 0.50600  0.04700  0.30100  Biso   1.000  C
  C111     1.0000 0.26400  0.18200  0.29500  Biso   1.000  C
  C112     1.0000 0.58800  0.99500  0.30000  Biso   1.000  C
  H61      1.0000 0.71870  0.35200  0.01080  Biso   1.000  H
  H62      1.0000 0.73950  0.38870  0.11450  Biso   1.000  H
  H63      1.0000 0.91080  0.21710  0.06070  Biso   1.000  H
  H64      1.0000 0.79470  0.15090  0.98460  Biso   1.000  H
  H65      1.0000 0.16610  0.97800  0.19170  Biso   1.000  H
  H66      1.0000 0.10420  0.08840  0.15510  Biso   1.000  H
  H67      1.0000 0.29140  0.07270  0.35780  Biso   1.000  H
  H68      1.0000 0.42130  0.97690  0.34910  Biso   1.000  H
  H69      1.0000 0.61750  0.04120  0.99790  Biso   1.000  H
  H70      1.0000 0.64950  0.09110  0.94850  Biso   1.000  H
  H71      1.0000 0.56180  0.11020  0.98450  Biso   1.000  H
  H72      1.0000 0.65940  0.38300  0.21460  Biso   1.000  H
  H73      1.0000 0.75030  0.33170  0.22510  Biso   1.000  H
  H74      1.0000 0.64170  0.30940  0.23490  Biso   1.000  H
  H75      1.0000 0.16770  0.20170  0.14660  Biso   1.000  H
  H76      1.0000 0.12580  0.17430  0.07660  Biso   1.000  H
  H77      1.0000 0.23250  0.21050  0.09310  Biso   1.000  H
  H78      1.0000 0.65430  0.01380  0.31850  Biso   1.000  H
  H79      1.0000 0.58640  0.98230  0.25610  Biso   1.000  H
  H80      1.0000 0.57590  0.95710  0.32460  Biso   1.000  H
