data_TEQVAO_clean5b
_audit_creation_date              2014-07-02
_audit_creation_method            'Materials Studio'
_symmetry_space_group_name_H-M    'P1'
_symmetry_Int_Tables_number       1
_symmetry_cell_setting            triclinic
loop_
_symmetry_equiv_pos_as_xyz
  x,y,z
_cell_length_a                    13.7909
_cell_length_b                    16.2879
_cell_length_c                    22.0170
_cell_angle_alpha                 90.0000
_cell_angle_beta                  90.0000
_cell_angle_gamma                 90.0000
loop_
_atom_site_label
_atom_site_type_symbol
_atom_site_fract_x
_atom_site_fract_y
_atom_site_fract_z
_atom_site_U_iso_or_equiv
_atom_site_adp_type
_atom_site_occupancy
Mg1    Mg    0.22210   0.55091   0.75915   0.01267  Uiso   1.00
Mg2    Mg    0.72210   0.44909   0.74085   0.01267  Uiso   1.00
Mg3    Mg    0.77790   0.05091   0.24085   0.01267  Uiso   1.00
Mg4    Mg    0.27790   0.94909   0.25915   0.01267  Uiso   1.00
Mg5    Mg    0.77790   0.44909   0.24085   0.01267  Uiso   1.00
Mg6    Mg    0.27790   0.55091   0.25915   0.01267  Uiso   1.00
Mg7    Mg    0.22210   0.94909   0.75915   0.01267  Uiso   1.00
Mg8    Mg    0.72210   0.05091   0.74085   0.01267  Uiso   1.00
Zn9    Zn    0.97979   0.49791   0.66883   0.01267  Uiso   1.00
Zn10   Zn    0.47979   0.50209   0.83117   0.01267  Uiso   1.00
Zn11   Zn    0.02021   0.99791   0.33117   0.01267  Uiso   1.00
Zn12   Zn    0.52021   0.00209   0.16883   0.01267  Uiso   1.00
Zn13   Zn    0.02021   0.50209   0.33117   0.01267  Uiso   1.00
Zn14   Zn    0.52021   0.49791   0.16883   0.01267  Uiso   1.00
Zn15   Zn    0.97979   0.00209   0.66883   0.01267  Uiso   1.00
Zn16   Zn    0.47979   0.99791   0.83117   0.01267  Uiso   1.00
H17    H     0.35922   0.58260   0.61746   0.01267  Uiso   1.00
H18    H     0.49485   0.66489   0.56438   0.01267  Uiso   1.00
H19    H     0.52094   0.63673   0.48408   0.01267  Uiso   1.00
H20    H     0.53433   0.55869   0.54528   0.01267  Uiso   1.00
H21    H     0.39295   0.58444   0.42097   0.01267  Uiso   1.00
H22    H     0.11382   0.51897   0.50132   0.01267  Uiso   1.00
H23    H     0.75801   0.61662   0.84483   0.01267  Uiso   1.00
H24    H     0.66695   0.68407   0.91755   0.01267  Uiso   1.00
H25    H     0.17861   0.38409   0.85997   0.01267  Uiso   1.00
H26    H     0.31499   0.28393   0.91498   0.01267  Uiso   1.00
H27    H     0.85922   0.41740   0.88254   0.01267  Uiso   1.00
H28    H     0.01247   0.39652   0.92159   0.01267  Uiso   1.00
H29    H     0.03856   0.42468   0.00189   0.01267  Uiso   1.00
H30    H     0.99909   0.31848   0.98279   0.01267  Uiso   1.00
H31    H     0.89295   0.41556   0.07903   0.01267  Uiso   1.00
H32    H     0.61382   0.48103   0.99868   0.01267  Uiso   1.00
H33    H     0.25801   0.38338   0.65517   0.01267  Uiso   1.00
H34    H     0.16180   0.18407   0.58511   0.01267  Uiso   1.00
H35    H     0.67861   0.61591   0.64003   0.01267  Uiso   1.00
H36    H     0.75835   0.68402   0.56131   0.01267  Uiso   1.00
H37    H     0.64078   0.08260   0.38254   0.01267  Uiso   1.00
H38    H     0.46038   0.05932   0.48120   0.01267  Uiso   1.00
H39    H     0.49782   0.13450   0.42199   0.01267  Uiso   1.00
H40    H     0.49168   0.16650   0.50308   0.01267  Uiso   1.00
H41    H     0.60705   0.08444   0.57903   0.01267  Uiso   1.00
H42    H     0.88618   0.01897   0.49868   0.01267  Uiso   1.00
H43    H     0.24199   0.11662   0.15517   0.01267  Uiso   1.00
H44    H     0.28230   0.28052   0.05625   0.01267  Uiso   1.00
H45    H     0.82139   0.88409   0.14003   0.01267  Uiso   1.00
H46    H     0.79616   0.78393   0.03848   0.01267  Uiso   1.00
H47    H     0.14078   0.91740   0.11746   0.01267  Uiso   1.00
H48    H     0.96877   0.89429  -0.01552   0.01267  Uiso   1.00
H49    H     0.97491   0.92628   1.06556   0.01267  Uiso   1.00
H50    H     0.00620   0.81911   0.04369   0.01267  Uiso   1.00
H51    H     0.10705   0.91556   0.92097   0.01267  Uiso   1.00
H52    H     0.38618   0.98103   0.00132   0.01267  Uiso   1.00
H53    H     0.74199   0.88338   0.34483   0.01267  Uiso   1.00
H54    H     0.83305   0.68407   0.41755   0.01267  Uiso   1.00
H55    H     0.32139   0.11591   0.35997   0.01267  Uiso   1.00
H56    H     0.23953   0.18402   0.43780   0.01267  Uiso   1.00
H57    H     0.64078   0.41740   0.38254   0.01267  Uiso   1.00
H58    H     0.50091   0.31848   0.48279   0.01267  Uiso   1.00
H59    H     0.48753   0.39652   0.42159   0.01267  Uiso   1.00
H60    H     0.46144   0.42468   0.50189   0.01267  Uiso   1.00
H61    H     0.60705   0.41556   0.57903   0.01267  Uiso   1.00
H62    H     0.88618   0.48103   0.49868   0.01267  Uiso   1.00
H63    H     0.24199   0.38338   0.15517   0.01267  Uiso   1.00
H64    H     0.33820   0.18407   0.08511   0.01267  Uiso   1.00
H65    H     0.82139   0.61591   0.14003   0.01267  Uiso   1.00
H66    H     0.74165   0.68402   0.06131   0.01267  Uiso   1.00
H67    H     0.14078   0.58260   0.11746   0.01267  Uiso   1.00
H68    H     0.97906   0.63673  -0.01592   0.01267  Uiso   1.00
H69    H     1.00515   0.66489   1.06438   0.01267  Uiso   1.00
H70    H    -0.03433   0.55869   0.04528   0.01267  Uiso   1.00
H71    H     0.10705   0.58444   0.92097   0.01267  Uiso   1.00
H72    H     0.38618   0.51897   0.00132   0.01267  Uiso   1.00
H73    H     0.74199   0.61662   0.34483   0.01267  Uiso   1.00
H74    H     0.88895   0.78052   0.38869   0.01267  Uiso   1.00
H75    H     0.32139   0.38409   0.35997   0.01267  Uiso   1.00
H76    H     0.18501   0.28393   0.41498   0.01267  Uiso   1.00
H77    H     0.35922   0.91740   0.61746   0.01267  Uiso   1.00
H78    H     0.52509   0.92628   0.56556   0.01267  Uiso   1.00
H79    H     0.53123   0.89429   0.48448   0.01267  Uiso   1.00
H80    H     0.49380   0.81911   0.54369   0.01267  Uiso   1.00
H81    H     0.39295   0.91556   0.42097   0.01267  Uiso   1.00
H82    H     0.11382   0.98103   0.50132   0.01267  Uiso   1.00
H83    H     0.75801   0.88338   0.84483   0.01267  Uiso   1.00
H84    H     0.61105   0.78052   0.88869   0.01267  Uiso   1.00
H85    H     0.17861   0.11591   0.85997   0.01267  Uiso   1.00
H86    H     0.26047   0.18402   0.93780   0.01267  Uiso   1.00
H87    H     0.85922   0.08260   0.88254   0.01267  Uiso   1.00
H88    H     0.00218   0.13450   0.92199   0.01267  Uiso   1.00
H89    H     0.00832   0.16650   0.00308   0.01267  Uiso   1.00
H90    H     1.03962   0.05932   0.98120   0.01267  Uiso   1.00
H91    H     0.89295   0.08444   0.07903   0.01267  Uiso   1.00
H92    H     0.61382   0.01897   0.99868   0.01267  Uiso   1.00
H93    H     0.25801   0.11662   0.65517   0.01267  Uiso   1.00
H94    H     0.21770   0.28052   0.55625   0.01267  Uiso   1.00
H95    H     0.67861   0.88409   0.64003   0.01267  Uiso   1.00
H96    H     0.70384   0.78393   0.53848   0.01267  Uiso   1.00
H97    H     0.93136   0.74960   0.71100   0.01267  Uiso   1.00
H98    H     0.43136   0.25040   0.78900   0.01267  Uiso   1.00
H99    H     0.06864   0.25040   0.28900   0.01267  Uiso   1.00
H100   H     0.56864   0.74960   0.21100   0.01267  Uiso   1.00
H101   H     0.01763   0.24972   0.72112   0.01267  Uiso   1.00
H102   H     0.51763   0.75028   0.77888   0.01267  Uiso   1.00
H103   H     0.98237   0.75028   0.27888   0.01267  Uiso   1.00
H104   H     0.48237   0.24972   0.22112   0.01267  Uiso   1.00
C105   C     0.16790   0.53980   0.61940   0.01267  Uiso   1.00
C106   C     0.23070   0.55090   0.56415   0.01267  Uiso   1.00
C107   C     0.32650   0.57440   0.57030   0.01267  Uiso   1.00
C108   C     0.38360   0.58820   0.52040   0.01267  Uiso   1.00
C109   C     0.49040   0.61380   0.52910   0.01267  Uiso   1.00
C110   C     0.34540   0.57540   0.46280   0.01267  Uiso   1.00
C111   C     0.24850   0.55140   0.45610   0.01267  Uiso   1.00
C112   C     0.20660   0.54250   0.39390   0.01267  Uiso   1.00
C113   C     0.19250   0.53910   0.50681   0.01267  Uiso   1.00
C114   C     0.87470   0.59750   0.74555   0.01267  Uiso   1.00
C115   C     0.84520   0.67610   0.77506   0.01267  Uiso   1.00
C116   C     0.78390   0.67690   0.82410   0.01267  Uiso   1.00
C117   C     0.07230   0.40270   0.75640   0.01267  Uiso   1.00
C118   C     0.09670   0.32320   0.78742   0.01267  Uiso   1.00
C119   C     0.15420   0.32340   0.83920   0.01267  Uiso   1.00
C120   C     0.66790   0.46020   0.88060   0.01267  Uiso   1.00
C121   C     0.73070   0.44910   0.93585   0.01267  Uiso   1.00
C122   C     0.82650   0.42560   0.92970   0.01267  Uiso   1.00
C123   C     0.88360   0.41180   0.97960   0.01267  Uiso   1.00
C124   C     0.99040   0.38620   0.97090   0.01267  Uiso   1.00
C125   C     0.84540   0.42460   0.03720   0.01267  Uiso   1.00
C126   C     0.74850   0.44860   0.04390   0.01267  Uiso   1.00
C127   C     0.70660   0.45750   0.10610   0.01267  Uiso   1.00
C128   C     0.69250   0.46090   0.99319   0.01267  Uiso   1.00
C129   C     0.37470   0.40250   0.75445   0.01267  Uiso   1.00
C130   C     0.34520   0.32390   0.72494   0.01267  Uiso   1.00
C131   C     0.28390   0.32310   0.67590   0.01267  Uiso   1.00
C132   C     0.57230   0.59730   0.74360   0.01267  Uiso   1.00
C133   C     0.59670   0.67680   0.71258   0.01267  Uiso   1.00
C134   C     0.65420   0.67660   0.66080   0.01267  Uiso   1.00
C135   C     0.83210   0.03980   0.38060   0.01267  Uiso   1.00
C136   C     0.76930   0.05090   0.43585   0.01267  Uiso   1.00
C137   C     0.67350   0.07440   0.42970   0.01267  Uiso   1.00
C138   C     0.61640   0.08820   0.47960   0.01267  Uiso   1.00
C139   C     0.50960   0.11380   0.47090   0.01267  Uiso   1.00
C140   C     0.65460   0.07540   0.53720   0.01267  Uiso   1.00
C141   C     0.75150   0.05140   0.54390   0.01267  Uiso   1.00
C142   C     0.79340   0.04250   0.60610   0.01267  Uiso   1.00
C143   C     0.80750   0.03910   0.49319   0.01267  Uiso   1.00
C144   C     0.12530   0.09750   0.25445   0.01267  Uiso   1.00
C145   C     0.15480   0.17610   0.22494   0.01267  Uiso   1.00
C146   C     0.21610   0.17690   0.17590   0.01267  Uiso   1.00
C147   C     0.92770   0.90270   0.24360   0.01267  Uiso   1.00
C148   C     0.90330   0.82320   0.21258   0.01267  Uiso   1.00
C149   C     0.84580   0.82340   0.16080   0.01267  Uiso   1.00
C150   C     0.33210   0.96020   0.11940   0.01267  Uiso   1.00
C151   C     0.26930   0.94910   0.06415   0.01267  Uiso   1.00
C152   C     0.17350   0.92560   0.07030   0.01267  Uiso   1.00
C153   C     0.11640   0.91180   0.02040   0.01267  Uiso   1.00
C154   C     0.00960   0.88620   0.02910   0.01267  Uiso   1.00
C155   C     0.15460   0.92460   0.96280   0.01267  Uiso   1.00
C156   C     0.25150   0.94860   0.95610   0.01267  Uiso   1.00
C157   C     0.29340   0.95750   0.89390   0.01267  Uiso   1.00
C158   C     0.30750   0.96090   0.00681   0.01267  Uiso   1.00
C159   C     0.62530   0.90250   0.24555   0.01267  Uiso   1.00
C160   C     0.65480   0.82390   0.27506   0.01267  Uiso   1.00
C161   C     0.71610   0.82310   0.32410   0.01267  Uiso   1.00
C162   C     0.42770   0.09730   0.25640   0.01267  Uiso   1.00
C163   C     0.40330   0.17680   0.28742   0.01267  Uiso   1.00
C164   C     0.34580   0.17660   0.33920   0.01267  Uiso   1.00
C165   C     0.83210   0.46020   0.38060   0.01267  Uiso   1.00
C166   C     0.76930   0.44910   0.43585   0.01267  Uiso   1.00
C167   C     0.67350   0.42560   0.42970   0.01267  Uiso   1.00
C168   C     0.61640   0.41180   0.47960   0.01267  Uiso   1.00
C169   C     0.50960   0.38620   0.47090   0.01267  Uiso   1.00
C170   C     0.65460   0.42460   0.53720   0.01267  Uiso   1.00
C171   C     0.75150   0.44860   0.54390   0.01267  Uiso   1.00
C172   C     0.79340   0.45750   0.60610   0.01267  Uiso   1.00
C173   C     0.80750   0.46090   0.49319   0.01267  Uiso   1.00
C174   C     0.12530   0.40250   0.25445   0.01267  Uiso   1.00
C175   C     0.15480   0.32390   0.22494   0.01267  Uiso   1.00
C176   C     0.21610   0.32310   0.17590   0.01267  Uiso   1.00
C177   C     0.92770   0.59730   0.24360   0.01267  Uiso   1.00
C178   C     0.90330   0.67680   0.21258   0.01267  Uiso   1.00
C179   C     0.84580   0.67660   0.16080   0.01267  Uiso   1.00
C180   C     0.33210   0.53980   0.11940   0.01267  Uiso   1.00
C181   C     0.26930   0.55090   0.06415   0.01267  Uiso   1.00
C182   C     0.17350   0.57440   0.07030   0.01267  Uiso   1.00
C183   C     0.11640   0.58820   0.02040   0.01267  Uiso   1.00
C184   C     0.00960   0.61380   0.02910   0.01267  Uiso   1.00
C185   C     0.15460   0.57540   0.96280   0.01267  Uiso   1.00
C186   C     0.25150   0.55140   0.95610   0.01267  Uiso   1.00
C187   C     0.29340   0.54250   0.89390   0.01267  Uiso   1.00
C188   C     0.30750   0.53910   0.00681   0.01267  Uiso   1.00
C189   C     0.62530   0.59750   0.24555   0.01267  Uiso   1.00
C190   C     0.65480   0.67610   0.27506   0.01267  Uiso   1.00
C191   C     0.71610   0.67690   0.32410   0.01267  Uiso   1.00
C192   C     0.42770   0.40270   0.25640   0.01267  Uiso   1.00
C193   C     0.40330   0.32320   0.28742   0.01267  Uiso   1.00
C194   C     0.34580   0.32340   0.33920   0.01267  Uiso   1.00
C195   C     0.16790   0.96020   0.61940   0.01267  Uiso   1.00
C196   C     0.23070   0.94910   0.56415   0.01267  Uiso   1.00
C197   C     0.32650   0.92560   0.57030   0.01267  Uiso   1.00
C198   C     0.38360   0.91180   0.52040   0.01267  Uiso   1.00
C199   C     0.49040   0.88620   0.52910   0.01267  Uiso   1.00
C200   C     0.34540   0.92460   0.46280   0.01267  Uiso   1.00
C201   C     0.24850   0.94860   0.45610   0.01267  Uiso   1.00
C202   C     0.20660   0.95750   0.39390   0.01267  Uiso   1.00
C203   C     0.19250   0.96090   0.50681   0.01267  Uiso   1.00
C204   C     0.87470   0.90250   0.74555   0.01267  Uiso   1.00
C205   C     0.84520   0.82390   0.77506   0.01267  Uiso   1.00
C206   C     0.78390   0.82310   0.82410   0.01267  Uiso   1.00
C207   C     0.07230   0.09730   0.75640   0.01267  Uiso   1.00
C208   C     0.09670   0.17680   0.78742   0.01267  Uiso   1.00
C209   C     0.15420   0.17660   0.83920   0.01267  Uiso   1.00
C210   C     0.66790   0.03980   0.88060   0.01267  Uiso   1.00
C211   C     0.73070   0.05090   0.93585   0.01267  Uiso   1.00
C212   C     0.82650   0.07440   0.92970   0.01267  Uiso   1.00
C213   C     0.88360   0.08820   0.97960   0.01267  Uiso   1.00
C214   C     0.99040   0.11380   0.97090   0.01267  Uiso   1.00
C215   C     0.84540   0.07540   0.03720   0.01267  Uiso   1.00
C216   C     0.74850   0.05140   0.04390   0.01267  Uiso   1.00
C217   C     0.70660   0.04250   0.10610   0.01267  Uiso   1.00
C218   C     0.69250   0.03910   0.99319   0.01267  Uiso   1.00
C219   C     0.37470   0.09750   0.75445   0.01267  Uiso   1.00
C220   C     0.34520   0.17610   0.72494   0.01267  Uiso   1.00
C221   C     0.28390   0.17690   0.67590   0.01267  Uiso   1.00
C222   C     0.57230   0.90270   0.74360   0.01267  Uiso   1.00
C223   C     0.59670   0.82320   0.71258   0.01267  Uiso   1.00
C224   C     0.65420   0.82340   0.66080   0.01267  Uiso   1.00
C225   C     0.87810   0.75000   0.75060   0.01267  Uiso   1.00
C226   C     0.75150   0.75000   0.85000   0.01267  Uiso   1.00
C227   C     0.68190   0.75000   0.90290   0.01267  Uiso   1.00
C228   C     0.37810   0.25000   0.74940   0.01267  Uiso   1.00
C229   C     0.25150   0.25000   0.65000   0.01267  Uiso   1.00
C230   C     0.18190   0.25000   0.59710   0.01267  Uiso   1.00
C231   C     0.12190   0.25000   0.24940   0.01267  Uiso   1.00
C232   C     0.24850   0.25000   0.15000   0.01267  Uiso   1.00
C233   C     0.31810   0.25000   0.09710   0.01267  Uiso   1.00
C234   C     0.62190   0.75000   0.25060   0.01267  Uiso   1.00
C235   C     0.74850   0.75000   0.35000   0.01267  Uiso   1.00
C236   C     0.81810   0.75000   0.40290   0.01267  Uiso   1.00
C237   C     0.18200   0.25000   0.86570   0.01267  Uiso   1.00
C238   C     0.24410   0.25000   0.92390   0.01267  Uiso   1.00
C239   C     0.06710   0.25000   0.76260   0.01267  Uiso   1.00
C240   C     0.68200   0.75000   0.63430   0.01267  Uiso   1.00
C241   C     0.74410   0.75000   0.57610   0.01267  Uiso   1.00
C242   C     0.56710   0.75000   0.73740   0.01267  Uiso   1.00
C243   C     0.81800   0.75000   0.13430   0.01267  Uiso   1.00
C244   C     0.75590   0.75000   0.07610   0.01267  Uiso   1.00
C245   C     0.93290   0.75000   0.23740   0.01267  Uiso   1.00
C246   C     0.31800   0.25000   0.36570   0.01267  Uiso   1.00
C247   C     0.25590   0.25000   0.42390   0.01267  Uiso   1.00
C248   C     0.43290   0.25000   0.26260   0.01267  Uiso   1.00
O249   O     0.08230   0.51450   0.61041   0.01267  Uiso   1.00
O250   O     0.20060   0.55730   0.67012   0.01267  Uiso   1.00
O251   O     0.11690   0.52580   0.39226   0.01267  Uiso   1.00
O252   O     0.25800   0.55250   0.34946   0.01267  Uiso   1.00
O253   O     0.95000   0.59998   0.71173   0.01267  Uiso   1.00
O254   O     0.82800   0.53370   0.75437   0.01267  Uiso   1.00
O255   O     0.00410   0.40010   0.71678   0.01267  Uiso   1.00
O256   O     0.11470   0.46660   0.76944   0.01267  Uiso   1.00
O257   O     0.58230   0.48550   0.88959   0.01267  Uiso   1.00
O258   O     0.70060   0.44270   0.82988   0.01267  Uiso   1.00
O259   O     0.61690   0.47420   0.10774   0.01267  Uiso   1.00
O260   O     0.75800   0.44750   0.15054   0.01267  Uiso   1.00
O261   O     0.45000   0.40002   0.78827   0.01267  Uiso   1.00
O262   O     0.32800   0.46630   0.74563   0.01267  Uiso   1.00
O263   O     0.50410   0.59990   0.78322   0.01267  Uiso   1.00
O264   O     0.61470   0.53340   0.73056   0.01267  Uiso   1.00
O265   O     0.91770   0.01450   0.38959   0.01267  Uiso   1.00
O266   O     0.79940   0.05730   0.32988   0.01267  Uiso   1.00
O267   O     0.88310   0.02580   0.60774   0.01267  Uiso   1.00
O268   O     0.74200   0.05250   0.65054   0.01267  Uiso   1.00
O269   O     0.05000   0.09998   0.28827   0.01267  Uiso   1.00
O270   O     0.17200   0.03370   0.24563   0.01267  Uiso   1.00
O271   O     0.99590   0.90010   0.28322   0.01267  Uiso   1.00
O272   O     0.88530   0.96660   0.23056   0.01267  Uiso   1.00
O273   O     0.41770   0.98550   0.11041   0.01267  Uiso   1.00
O274   O     0.29940   0.94270   0.17012   0.01267  Uiso   1.00
O275   O     0.38310   0.97420   0.89226   0.01267  Uiso   1.00
O276   O     0.24200   0.94750   0.84946   0.01267  Uiso   1.00
O277   O     0.55000   0.90002   0.21173   0.01267  Uiso   1.00
O278   O     0.67200   0.96630   0.25437   0.01267  Uiso   1.00
O279   O     0.49590   0.09990   0.21678   0.01267  Uiso   1.00
O280   O     0.38530   0.03340   0.26944   0.01267  Uiso   1.00
O281   O     0.91770   0.48550   0.38959   0.01267  Uiso   1.00
O282   O     0.79940   0.44270   0.32988   0.01267  Uiso   1.00
O283   O     0.88310   0.47420   0.60774   0.01267  Uiso   1.00
O284   O     0.74200   0.44750   0.65054   0.01267  Uiso   1.00
O285   O     0.05000   0.40002   0.28827   0.01267  Uiso   1.00
O286   O     0.17200   0.46630   0.24563   0.01267  Uiso   1.00
O287   O     0.99590   0.59990   0.28322   0.01267  Uiso   1.00
O288   O     0.88530   0.53340   0.23056   0.01267  Uiso   1.00
O289   O     0.41770   0.51450   0.11041   0.01267  Uiso   1.00
O290   O     0.29940   0.55730   0.17012   0.01267  Uiso   1.00
O291   O     0.38310   0.52580   0.89226   0.01267  Uiso   1.00
O292   O     0.24200   0.55250   0.84946   0.01267  Uiso   1.00
O293   O     0.55000   0.59998   0.21173   0.01267  Uiso   1.00
O294   O     0.67200   0.53370   0.25437   0.01267  Uiso   1.00
O295   O     0.49590   0.40010   0.21678   0.01267  Uiso   1.00
O296   O     0.38530   0.46660   0.26944   0.01267  Uiso   1.00
O297   O     0.08230   0.98550   0.61041   0.01267  Uiso   1.00
O298   O     0.20060   0.94270   0.67012   0.01267  Uiso   1.00
O299   O     0.11690   0.97420   0.39226   0.01267  Uiso   1.00
O300   O     0.25800   0.94750   0.34946   0.01267  Uiso   1.00
O301   O     0.95000   0.90002   0.71173   0.01267  Uiso   1.00
O302   O     0.82800   0.96630   0.75437   0.01267  Uiso   1.00
O303   O     0.00410   0.09990   0.71678   0.01267  Uiso   1.00
O304   O     0.11470   0.03340   0.76944   0.01267  Uiso   1.00
O305   O     0.58230   0.01450   0.88959   0.01267  Uiso   1.00
O306   O     0.70060   0.05730   0.82988   0.01267  Uiso   1.00
O307   O     0.61690   0.02580   0.10774   0.01267  Uiso   1.00
O308   O     0.75800   0.05250   0.15054   0.01267  Uiso   1.00
O309   O     0.45000   0.09998   0.78827   0.01267  Uiso   1.00
O310   O     0.32800   0.03370   0.74563   0.01267  Uiso   1.00
O311   O     0.50410   0.90010   0.78322   0.01267  Uiso   1.00
O312   O     0.61470   0.96660   0.73056   0.01267  Uiso   1.00
H313   H     0.71513   0.78541   0.94242   0.00000  Uiso   1.00
H314   H     0.11363   0.28541   0.60998   0.00000  Uiso   1.00
H315   H     0.38637   0.28541   0.10998   0.00000  Uiso   1.00
H316   H     0.78487   0.78541   0.44242   0.00000  Uiso   1.00
H317   H     0.20277   0.28205   0.96196   0.00000  Uiso   1.00
H318   H     0.81605   0.78205   0.58546   0.00000  Uiso   1.00
H319   H     0.68395   0.78205   0.08546   0.00000  Uiso   1.00
H320   H     0.29723   0.28205   0.46196   0.00000  Uiso   1.00
loop_
_geom_bond_atom_site_label_1
_geom_bond_atom_site_label_2
_geom_bond_distance
_geom_bond_site_symmetry_2
_ccdc_geom_bond_type
Mg1    O250    1.985   .     S
Mg1    O256    2.032   .     S
Mg1    O262    2.030   .     S
Mg1    O292    2.007   .     S
Mg2    O254    2.030   .     S
Mg2    O258    1.985   .     S
Mg2    O264    2.032   .     S
Mg2    O284    2.007   .     S
Mg3    O266    1.985   .     S
Mg3    O308    2.007   .     S
Mg3    O272    2.032   1_545 S
Mg3    O278    2.030   1_545 S
Mg4    O274    1.985   .     S
Mg4    O300    2.007   .     S
Mg4    O270    2.030   1_565 S
Mg4    O280    2.032   1_565 S
Mg5    O260    2.007   .     S
Mg5    O282    1.985   .     S
Mg5    O288    2.032   .     S
Mg5    O294    2.030   .     S
Mg6    O252    2.007   .     S
Mg6    O286    2.030   .     S
Mg6    O290    1.985   .     S
Mg6    O296    2.032   .     S
Mg7    O276    2.007   .     S
Mg7    O298    1.985   .     S
Mg7    O304    2.032   1_565 S
Mg7    O310    2.030   1_565 S
Mg8    O268    2.007   .     S
Mg8    O306    1.985   .     S
Mg8    O302    2.030   1_545 S
Mg8    O312    2.032   1_545 S
Zn9    O253    1.956   .     S
Zn9    O283    1.933   .     S
Zn9    O249    1.930   1_655 S
Zn9    O255    1.940   1_655 S
Zn10   O257    1.930   .     S
Zn10   O261    1.956   .     S
Zn10   O263    1.940   .     S
Zn10   O291    1.933   .     S
Zn11   O299    1.933   .     S
Zn11   O265    1.930   1_465 S
Zn11   O269    1.956   1_565 S
Zn11   O271    1.940   1_455 S
Zn12   O279    1.940   .     S
Zn12   O307    1.933   .     S
Zn12   O273    1.930   1_545 S
Zn12   O277    1.956   1_545 S
Zn13   O251    1.933   .     S
Zn13   O285    1.956   .     S
Zn13   O281    1.930   1_455 S
Zn13   O287    1.940   1_455 S
Zn14   O259    1.933   .     S
Zn14   O289    1.930   .     S
Zn14   O293    1.956   .     S
Zn14   O295    1.940   .     S
Zn15   O267    1.933   .     S
Zn15   O297    1.930   1_645 S
Zn15   O301    1.956   1_545 S
Zn15   O303    1.940   1_655 S
Zn16   O275    1.933   .     S
Zn16   O311    1.940   .     S
Zn16   O305    1.930   1_565 S
Zn16   O309    1.956   1_565 S
H17    C107    1.140   .     S
H18    C109    1.140   .     S
H19    C109    1.140   .     S
H20    C109    1.140   .     S
H21    C110    1.140   .     S
H22    C113    1.140   .     S
H23    C116    1.140   .     S
H24    C227    1.140   .     S
H25    C119    1.140   .     S
H26    C238    1.140   .     S
H27    C122    1.140   .     S
H28    C124    1.140   1_455 S
H29    C124    1.140   1_454 S
H30    C124    1.140   .     S
H31    C125    1.140   .     S
H32    C128    1.140   .     S
H33    C131    1.140   .     S
H34    C230    1.140   .     S
H35    C134    1.140   .     S
H36    C241    1.140   .     S
H37    C137    1.140   .     S
H38    C139    1.140   .     S
H39    C139    1.140   .     S
H40    C139    1.140   .     S
H41    C140    1.140   .     S
H42    C143    1.140   .     S
H43    C146    1.140   .     S
H44    C233    1.140   .     S
H45    C149    1.140   .     S
H46    C244    1.140   .     S
H47    C152    1.140   .     S
H48    C154    1.140   1_655 S
H49    C154    1.140   1_656 S
H50    C154    1.140   .     S
H51    C155    1.140   .     S
H52    C158    1.140   .     S
H53    C161    1.140   .     S
H54    C236    1.140   .     S
H55    C164    1.140   .     S
H56    C247    1.140   .     S
H57    C167    1.140   .     S
H58    C169    1.140   .     S
H59    C169    1.140   .     S
H60    C169    1.140   .     S
H61    C170    1.140   .     S
H62    C173    1.140   .     S
H63    C176    1.140   .     S
H64    C233    1.140   .     S
H65    C179    1.140   .     S
H66    C244    1.140   .     S
H67    C182    1.140   .     S
H68    C184    1.140   1_655 S
H69    C184    1.140   1_656 S
H70    C184    1.140   .     S
H71    C185    1.140   .     S
H72    C188    1.140   .     S
H73    C191    1.140   .     S
H74    C236    1.140   .     S
H75    C194    1.140   .     S
H76    C247    1.140   .     S
H77    C197    1.140   .     S
H78    C199    1.140   .     S
H79    C199    1.140   .     S
H80    C199    1.140   .     S
H81    C200    1.140   .     S
H82    C203    1.140   .     S
H83    C206    1.140   .     S
H84    C227    1.140   .     S
H85    C209    1.140   .     S
H86    C238    1.140   .     S
H87    C212    1.140   .     S
H88    C214    1.140   1_455 S
H89    C214    1.140   1_454 S
H90    C214    1.140   .     S
H91    C215    1.140   .     S
H92    C218    1.140   .     S
H93    C221    1.140   .     S
H94    C230    1.140   .     S
H95    C224    1.140   .     S
H96    C241    1.140   .     S
H97    C225    1.140   .     S
H98    C228    1.140   .     S
H99    C231    1.140   .     S
H100   C234    1.140   .     S
H101   C239    1.140   .     S
H102   C242    1.140   .     S
H103   C245    1.140   .     S
H104   C248    1.140   .     S
C105   C106    1.504   .     S
C105   O249    1.266   .     A
C105   O250    1.238   .     A
C106   C107    1.382   .     A
C106   C113    1.381   .     A
C107   C108    1.370   .     A
C108   C109    1.543   .     S
C108   C110    1.389   .     A
C110   C111    1.400   .     A
C111   C112    1.493   .     S
C111   C113    1.372   .     A
C112   O251    1.267   .     A
C112   O252    1.219   .     A
C114   C115    1.492   .     S
C114   O253    1.278   .     A
C114   O254    1.238   .     A
C115   C116    1.371   .     A
C115   C225    1.395   .     A
C116   C226    1.394   .     A
C117   C118    1.502   .     S
C117   O255    1.283   .     A
C117   O256    1.228   .     A
C118   C119    1.389   .     A
C118   C239    1.374   .     A
C119   C237    1.384   .     A
C120   C121    1.504   .     S
C120   O257    1.266   .     A
C120   O258    1.238   .     A
C121   C122    1.382   .     A
C121   C128    1.381   .     A
C122   C123    1.370   .     A
C123   C124    1.543   .     S
C123   C125    1.389   1_556 S
C124   H28     1.140   1_655 S
C124   H29     1.140   1_656 S
C125   C126    1.400   .     A
C125   C123    1.389   1_554 S
C126   C127    1.493   .     S
C126   C128    1.372   1_554 S
C127   O259    1.267   .     A
C127   O260    1.219   .     A
C128   C126    1.372   1_556 S
C129   C130    1.492   .     S
C129   O261    1.278   .     A
C129   O262    1.238   .     A
C130   C131    1.371   .     A
C130   C228    1.395   .     A
C131   C229    1.394   .     A
C132   C133    1.502   .     S
C132   O263    1.283   .     A
C132   O264    1.228   .     A
C133   C134    1.389   .     A
C133   C242    1.374   .     A
C134   C240    1.384   .     A
C135   C136    1.504   .     S
C135   O265    1.266   .     A
C135   O266    1.238   .     A
C136   C137    1.382   .     A
C136   C143    1.381   .     A
C137   C138    1.370   .     A
C138   C139    1.543   .     S
C138   C140    1.389   .     A
C140   C141    1.400   .     A
C141   C142    1.493   .     S
C141   C143    1.372   .     A
C142   O267    1.267   .     A
C142   O268    1.219   .     A
C144   C145    1.492   .     S
C144   O269    1.278   .     A
C144   O270    1.238   .     A
C145   C146    1.371   .     A
C145   C231    1.395   .     A
C146   C232    1.394   .     A
C147   C148    1.502   .     S
C147   O271    1.283   .     A
C147   O272    1.228   .     A
C148   C149    1.389   .     A
C148   C245    1.374   .     A
C149   C243    1.384   .     A
C150   C151    1.504   .     S
C150   O273    1.266   .     A
C150   O274    1.238   .     A
C151   C152    1.382   .     A
C151   C158    1.381   .     A
C152   C153    1.370   .     A
C153   C154    1.543   .     S
C153   C155    1.389   1_554 S
C154   H48     1.140   1_455 S
C154   H49     1.140   1_454 S
C155   C156    1.400   .     A
C155   C153    1.389   1_556 S
C156   C157    1.493   .     S
C156   C158    1.372   1_556 S
C157   O275    1.267   .     A
C157   O276    1.219   .     A
C158   C156    1.372   1_554 S
C159   C160    1.492   .     S
C159   O277    1.278   .     A
C159   O278    1.238   .     A
C160   C161    1.371   .     A
C160   C234    1.395   .     A
C161   C235    1.394   .     A
C162   C163    1.502   .     S
C162   O279    1.283   .     A
C162   O280    1.228   .     A
C163   C164    1.389   .     A
C163   C248    1.374   .     A
C164   C246    1.384   .     A
C165   C166    1.504   .     S
C165   O281    1.266   .     A
C165   O282    1.238   .     A
C166   C167    1.382   .     A
C166   C173    1.381   .     A
C167   C168    1.370   .     A
C168   C169    1.543   .     S
C168   C170    1.389   .     A
C170   C171    1.400   .     A
C171   C172    1.493   .     S
C171   C173    1.372   .     A
C172   O283    1.267   .     A
C172   O284    1.219   .     A
C174   C175    1.492   .     S
C174   O285    1.278   .     A
C174   O286    1.238   .     A
C175   C176    1.371   .     A
C175   C231    1.395   .     A
C176   C232    1.394   .     A
C177   C178    1.502   .     S
C177   O287    1.283   .     A
C177   O288    1.228   .     A
C178   C179    1.389   .     A
C178   C245    1.374   .     A
C179   C243    1.384   .     A
C180   C181    1.504   .     S
C180   O289    1.266   .     A
C180   O290    1.238   .     A
C181   C182    1.382   .     A
C181   C188    1.381   .     A
C182   C183    1.370   .     A
C183   C184    1.543   .     S
C183   C185    1.389   1_554 S
C184   H68     1.140   1_455 S
C184   H69     1.140   1_454 S
C185   C186    1.400   .     A
C185   C183    1.389   1_556 S
C186   C187    1.493   .     S
C186   C188    1.372   1_556 S
C187   O291    1.267   .     A
C187   O292    1.219   .     A
C188   C186    1.372   1_554 S
C189   C190    1.492   .     S
C189   O293    1.278   .     A
C189   O294    1.238   .     A
C190   C191    1.371   .     A
C190   C234    1.395   .     A
C191   C235    1.394   .     A
C192   C193    1.502   .     S
C192   O295    1.283   .     A
C192   O296    1.228   .     A
C193   C194    1.389   .     A
C193   C248    1.374   .     A
C194   C246    1.384   .     A
C195   C196    1.504   .     S
C195   O297    1.266   .     A
C195   O298    1.238   .     A
C196   C197    1.382   .     A
C196   C203    1.381   .     A
C197   C198    1.370   .     A
C198   C199    1.543   .     S
C198   C200    1.389   .     A
C200   C201    1.400   .     A
C201   C202    1.493   .     S
C201   C203    1.372   .     A
C202   O299    1.267   .     A
C202   O300    1.219   .     A
C204   C205    1.492   .     S
C204   O301    1.278   .     A
C204   O302    1.238   .     A
C205   C206    1.371   .     A
C205   C225    1.395   .     A
C206   C226    1.394   .     A
C207   C208    1.502   .     S
C207   O303    1.283   .     A
C207   O304    1.228   .     A
C208   C209    1.389   .     A
C208   C239    1.374   .     A
C209   C237    1.384   .     A
C210   C211    1.504   .     S
C210   O305    1.266   .     A
C210   O306    1.238   .     A
C211   C212    1.382   .     A
C211   C218    1.381   .     A
C212   C213    1.370   .     A
C213   C214    1.543   .     S
C213   C215    1.389   1_556 S
C214   H88     1.140   1_655 S
C214   H89     1.140   1_656 S
C215   C216    1.400   .     A
C215   C213    1.389   1_554 S
C216   C217    1.493   .     S
C216   C218    1.372   1_554 S
C217   O307    1.267   .     A
C217   O308    1.219   .     A
C218   C216    1.372   1_556 S
C219   C220    1.492   .     S
C219   O309    1.278   .     A
C219   O310    1.238   .     A
C220   C221    1.371   .     A
C220   C228    1.395   .     A
C221   C229    1.394   .     A
C222   C223    1.502   .     S
C222   O311    1.283   .     A
C222   O312    1.228   .     A
C223   C224    1.389   .     A
C223   C242    1.374   .     A
C224   C240    1.384   .     A
C226   C227    1.509   .     S
C227   H313    1.140   .     S
C229   C230    1.509   .     S
C230   H314    1.140   .     S
C232   C233    1.509   .     S
C233   H315    1.140   .     S
C235   C236    1.509   .     S
C236   H316    1.140   .     S
C237   C238    1.541   .     S
C238   H317    1.140   .     S
C240   C241    1.541   .     S
C241   H318    1.140   .     S
C243   C244    1.541   .     S
C244   H319    1.140   .     S
C246   C247    1.541   .     S
C247   H320    1.140   .     S
O249   Zn9     1.930   1_455 S
O255   Zn9     1.940   1_455 S
O265   Zn11    1.930   1_645 S
O269   Zn11    1.956   1_545 S
O270   Mg4     2.030   1_545 S
O271   Zn11    1.940   1_655 S
O272   Mg3     2.032   1_565 S
O273   Zn12    1.930   1_565 S
O277   Zn12    1.956   1_565 S
O278   Mg3     2.030   1_565 S
O280   Mg4     2.032   1_545 S
O281   Zn13    1.930   1_655 S
O287   Zn13    1.940   1_655 S
O297   Zn15    1.930   1_465 S
O301   Zn15    1.956   1_565 S
O302   Mg8     2.030   1_565 S
O303   Zn15    1.940   1_455 S
O304   Mg7     2.032   1_545 S
O305   Zn16    1.930   1_545 S
O309   Zn16    1.956   1_545 S
O310   Mg7     2.030   1_545 S
O312   Mg8     2.032   1_565 S
