data_image0
_cell_length_a       5.7843
_cell_length_b       30.2512
_cell_length_c       7.547
_cell_angle_alpha    90
_cell_angle_beta     112.53
_cell_angle_gamma    90

_symmetry_space_group_name_H-M    "P 1"
_symmetry_int_tables_number       1

loop_
  _symmetry_equiv_pos_as_xyz
  'x, y, z'

loop_
  _atom_site_label
  _atom_site_occupancy
  _atom_site_fract_x
  _atom_site_fract_y
  _atom_site_fract_z
  _atom_site_thermal_displace_type
  _atom_site_B_iso_or_equiv
  _atom_site_type_symbol
  Cu1      1.0000 0.07880  0.45998  0.92319  Biso   1.000  Cu
  Cu2      1.0000 0.67576  0.28710  0.98615  Biso   1.000  Cu
  S1       1.0000 0.72040  0.51360  0.75520  Biso   1.000  S
  S2       1.0000 0.51130  0.24266  0.15730  Biso   1.000  S
  S3       1.0000 0.50160  0.35684  0.96570  Biso   1.000  S
  N1       1.0000 0.31190  0.47170  0.79630  Biso   1.000  N
  N2       1.0000 0.03260  0.27800  0.06790  Biso   1.000  N
  N3       1.0000 0.87570  0.40870  0.92230  Biso   1.000  N
  C1       1.0000 0.47750  0.48850  0.77910  Biso   1.000  C
  C2       1.0000 0.23150  0.26440  0.10550  Biso   1.000  C
  C3       1.0000 0.72500  0.38770  0.93980  Biso   1.000  C
  Cu3      1.0000 0.92120  0.95998  0.57681  Biso   1.000  Cu
  Cu4      1.0000 0.32424  0.78710  0.51385  Biso   1.000  Cu
  S4       1.0000 0.27960  0.01360  0.74480  Biso   1.000  S
  S5       1.0000 0.48870  0.74266  0.34270  Biso   1.000  S
  S6       1.0000 0.49840  0.85684  0.53430  Biso   1.000  S
  N4       1.0000 0.68810  0.97170  0.70370  Biso   1.000  N
  N5       1.0000 0.96740  0.77800  0.43210  Biso   1.000  N
  N6       1.0000 0.12430  0.90870  0.57770  Biso   1.000  N
  C4       1.0000 0.52250  0.98850  0.72090  Biso   1.000  C
  C5       1.0000 0.76850  0.76440  0.39450  Biso   1.000  C
  C6       1.0000 0.27500  0.88770  0.56020  Biso   1.000  C
  Cu5      1.0000 0.92120  0.54002  0.07681  Biso   1.000  Cu
  Cu6      1.0000 0.32424  0.71290  0.01385  Biso   1.000  Cu
  S7       1.0000 0.27960  0.48640  0.24480  Biso   1.000  S
  S8       1.0000 0.48870  0.75734  0.84270  Biso   1.000  S
  S9       1.0000 0.49840  0.64316  0.03430  Biso   1.000  S
  N7       1.0000 0.68810  0.52830  0.20370  Biso   1.000  N
  N8       1.0000 0.96740  0.72200  0.93210  Biso   1.000  N
  N9       1.0000 0.12430  0.59130  0.07770  Biso   1.000  N
  C7       1.0000 0.52250  0.51150  0.22090  Biso   1.000  C
  C8       1.0000 0.76850  0.73560  0.89450  Biso   1.000  C
  C9       1.0000 0.27500  0.61230  0.06020  Biso   1.000  C
  Cu7      1.0000 0.07880  0.04002  0.42319  Biso   1.000  Cu
  Cu8      1.0000 0.67576  0.21290  0.48615  Biso   1.000  Cu
  S10      1.0000 0.72040  0.98640  0.25520  Biso   1.000  S
  S11      1.0000 0.51130  0.25734  0.65730  Biso   1.000  S
  S12      1.0000 0.50160  0.14316  0.46570  Biso   1.000  S
  N10      1.0000 0.31190  0.02830  0.29630  Biso   1.000  N
  N11      1.0000 0.03260  0.22200  0.56790  Biso   1.000  N
  N12      1.0000 0.87570  0.09130  0.42230  Biso   1.000  N
  C10      1.0000 0.47750  0.01150  0.27910  Biso   1.000  C
  C11      1.0000 0.23150  0.23560  0.60550  Biso   1.000  C
  C12      1.0000 0.72500  0.11230  0.43980  Biso   1.000  C
