data_image0
_cell_length_a       5.784
_cell_length_b       30.282
_cell_length_c       7.551
_cell_angle_alpha    90
_cell_angle_beta     112.46
_cell_angle_gamma    90

_symmetry_space_group_name_H-M    "P 1"
_symmetry_int_tables_number       1

loop_
  _symmetry_equiv_pos_as_xyz
  'x, y, z'

loop_
  _atom_site_label
  _atom_site_occupancy
  _atom_site_fract_x
  _atom_site_fract_y
  _atom_site_fract_z
  _atom_site_thermal_displace_type
  _atom_site_B_iso_or_equiv
  _atom_site_type_symbol
  Cu1      1.0000 0.34440  0.46010  0.92290  Biso   1.000  Cu
  Cu2      1.0000 0.18960  0.71300  0.01440  Biso   1.000  Cu
  S1       1.0000 0.46560  0.48630  0.24510  Biso   1.000  S
  S2       1.0000 0.03490  0.64310  0.03390  Biso   1.000  S
  S3       1.0000 0.85400  0.75760  0.84280  Biso   1.000  S
  N1       1.0000 0.98680  0.47170  0.79830  Biso   1.000  N
  N2       1.0000 0.45470  0.59110  0.07720  Biso   1.000  N
  N3       1.0000 0.46530  0.72160  0.93050  Biso   1.000  N
  C1       1.0000 0.79880  0.48890  0.77840  Biso   1.000  C
  C2       1.0000 0.28100  0.61270  0.05940  Biso   1.000  C
  C3       1.0000 0.62490  0.73570  0.89400  Biso   1.000  C
  Cu3      1.0000 0.15560  0.96010  0.57710  Biso   1.000  Cu
  Cu4      1.0000 0.31040  0.21300  0.48560  Biso   1.000  Cu
  S4       1.0000 0.03440  0.98630  0.25490  Biso   1.000  S
  S5       1.0000 0.46510  0.14310  0.46610  Biso   1.000  S
  S6       1.0000 0.64600  0.25760  0.65720  Biso   1.000  S
  N4       1.0000 0.51320  0.97170  0.70170  Biso   1.000  N
  N5       1.0000 0.04530  0.09110  0.42280  Biso   1.000  N
  N6       1.0000 0.03470  0.22160  0.56950  Biso   1.000  N
  C4       1.0000 0.70120  0.98890  0.72160  Biso   1.000  C
  C5       1.0000 0.21900  0.11270  0.44060  Biso   1.000  C
  C6       1.0000 0.87510  0.23570  0.60600  Biso   1.000  C
  Cu5      1.0000 0.65560  0.53990  0.07710  Biso   1.000  Cu
  Cu6      1.0000 0.81040  0.28700  0.98560  Biso   1.000  Cu
  S7       1.0000 0.53440  0.51370  0.75490  Biso   1.000  S
  S8       1.0000 0.96510  0.35690  0.96610  Biso   1.000  S
  S9       1.0000 0.14600  0.24240  0.15720  Biso   1.000  S
  N7       1.0000 0.01320  0.52830  0.20170  Biso   1.000  N
  N8       1.0000 0.54530  0.40890  0.92280  Biso   1.000  N
  N9       1.0000 0.53470  0.27840  0.06950  Biso   1.000  N
  C7       1.0000 0.20120  0.51110  0.22160  Biso   1.000  C
  C8       1.0000 0.71900  0.38730  0.94060  Biso   1.000  C
  C9       1.0000 0.37510  0.26430  0.10600  Biso   1.000  C
  Cu7      1.0000 0.84440  0.03990  0.42290  Biso   1.000  Cu
  Cu8      1.0000 0.68960  0.78700  0.51440  Biso   1.000  Cu
  S10      1.0000 0.96560  0.01370  0.74510  Biso   1.000  S
  S11      1.0000 0.53490  0.85690  0.53390  Biso   1.000  S
  S12      1.0000 0.35400  0.74240  0.34280  Biso   1.000  S
  N10      1.0000 0.48680  0.02830  0.29830  Biso   1.000  N
  N11      1.0000 0.95470  0.90890  0.57720  Biso   1.000  N
  N12      1.0000 0.96530  0.77840  0.43050  Biso   1.000  N
  C10      1.0000 0.29880  0.01110  0.27840  Biso   1.000  C
  C11      1.0000 0.78100  0.88730  0.55940  Biso   1.000  C
  C12      1.0000 0.12490  0.76430  0.39400  Biso   1.000  C
