data_TERFUT_clean
_audit_creation_date              2014-07-02
_audit_creation_method            'Materials Studio'
_symmetry_space_group_name_H-M    'P1'
_symmetry_Int_Tables_number       1
_symmetry_cell_setting            triclinic
loop_
_symmetry_equiv_pos_as_xyz
  x,y,z
_cell_length_a                    14.0869
_cell_length_b                    15.1333
_cell_length_c                    15.1402
_cell_angle_alpha                 86.5170
_cell_angle_beta                  87.2860
_cell_angle_gamma                 86.8960
loop_
_atom_site_label
_atom_site_type_symbol
_atom_site_fract_x
_atom_site_fract_y
_atom_site_fract_z
_atom_site_U_iso_or_equiv
_atom_site_adp_type
_atom_site_occupancy
Zn1    Zn    0.90400   0.60357   0.83905   0.01267  Uiso   1.00
Zn2    Zn    0.69397   0.61283   0.84721   0.01267  Uiso   1.00
H1     H     0.21960   0.60560   0.97530   0.01267  Uiso   1.00
H2     H     0.07080   0.62010   0.71190   0.01267  Uiso   1.00
H3     H     0.23380   0.62310   0.71030   0.01267  Uiso   1.00
H4     H     0.05710   0.60200   0.97060   0.01267  Uiso   1.00
H5     H     0.65810   0.62620   0.28700   0.01267  Uiso   1.00
H6     H     0.65450   0.62610   0.13690   0.01267  Uiso   1.00
H7     H     0.93860   0.59840   0.12090   0.01267  Uiso   1.00
H8     H     0.67020   0.64560   0.56390   0.01267  Uiso   1.00
H9     H     0.66640   0.64310   0.41430   0.01267  Uiso   1.00
H10    H     0.93900   0.57810   0.40040   0.01267  Uiso   1.00
H11    H     0.94360   0.57650   0.55030   0.01267  Uiso   1.00
H12    H     0.66160   0.32820   0.85120   0.01267  Uiso   1.00
H13    H     0.65410   0.90500   0.84940   0.01267  Uiso   1.00
H14    H     0.94040   0.31370   0.82720   0.01267  Uiso   1.00
H15    H     0.93810   0.16570   0.81330   0.01267  Uiso   1.00
H16    H     0.93010   0.88350   0.79540   0.01267  Uiso   1.00
H17    H     0.93360   0.03520   0.79070   0.01267  Uiso   1.00
H18    H     0.53730   0.67760   0.73170   0.01267  Uiso   1.00
H19    H     0.52930   0.54660   0.95960   0.01267  Uiso   1.00
H20    H     0.36770   0.54630   0.95990   0.01267  Uiso   1.00
H21    H     0.37470   0.67750   0.72530   0.01267  Uiso   1.00
Rh1    Rh    0.62210   0.12180   0.84360   0.01267  Uiso   1.00
C1     C     0.24570   0.61270   0.84300   0.01267  Uiso   1.00
C2     C     0.19097   0.60780   0.92100   0.01267  Uiso   1.00
C3     C     0.80100   0.33931   0.83800   0.01267  Uiso   1.00
C4     C     0.10110   0.61670   0.76532   0.01267  Uiso   1.00
C5     C     0.79570   0.61161   0.11145   0.01267  Uiso   1.00
C6     C     0.80660   0.60890   0.57487   0.01267  Uiso   1.00
C7     C     0.19916   0.61830   0.76400   0.01267  Uiso   1.00
C8     C     0.09314   0.60620   0.91760   0.01267  Uiso   1.00
C9     C     0.79427   0.60910   0.01316   0.01267  Uiso   1.00
C10    C     0.80202   0.43704   0.84571   0.01267  Uiso   1.00
C11    C     0.71470   0.62070   0.25319   0.01267  Uiso   1.00
C12    C     0.78870   0.77816   0.83230   0.01267  Uiso   1.00
C13    C     0.71280   0.62030   0.16370   0.01267  Uiso   1.00
C14    C     0.88170   0.60420   0.15432   0.01267  Uiso   1.00
C15    C     0.80786   0.60790   0.67356   0.01267  Uiso   1.00
C16    C     0.35144   0.61190   0.84399   0.01267  Uiso   1.00
C17    C     0.80070   0.61280   0.29440   0.01267  Uiso   1.00
C18    C     0.80280   0.61150   0.39180   0.01267  Uiso   1.00
C19    C     0.72570   0.63030   0.53140   0.01267  Uiso   1.00
C20    C     0.79080   0.87710   0.82660   0.01267  Uiso   1.00
C21    C     0.72360   0.63010   0.44160   0.01267  Uiso   1.00
C22    C     0.88340   0.59150   0.43360   0.01267  Uiso   1.00
C23    C     0.88620   0.59030   0.52360   0.01267  Uiso   1.00
C24    C     0.71890   0.29560   0.84330   0.01267  Uiso   1.00
C25    C     0.71230   0.93070   0.83890   0.01267  Uiso   1.00
C26    C     0.88210   0.28750   0.82860   0.01267  Uiso   1.00
C27    C     0.71670   0.20630   0.83760   0.01267  Uiso   1.00
C28    C     0.79810   0.15730   0.82500   0.01267  Uiso   1.00
C29    C     0.79580   0.05970   0.82050   0.01267  Uiso   1.00
C30    C     0.88100   0.19860   0.82110   0.01267  Uiso   1.00
C31    C     0.87450   0.91760   0.80690   0.01267  Uiso   1.00
C32    C     0.87640   0.00830   0.80410   0.01267  Uiso   1.00
C33    C     0.50250   0.65000   0.77830   0.01267  Uiso   1.00
C34    C     0.49820   0.57380   0.91160   0.01267  Uiso   1.00
C35    C     0.40060   0.57350   0.91190   0.01267  Uiso   1.00
C36    C     0.40460   0.65090   0.77430   0.01267  Uiso   1.00
N1     N     0.04798   0.61032   0.84197   0.01267  Uiso   1.00
N2     N     0.54933   0.61109   0.84627   0.01267  Uiso   1.00
N3     N     0.88390   0.60520   0.24409   0.01267  Uiso   1.00
N4     N     0.71410   0.02060   0.83670   0.01267  Uiso   1.00
O1     O     0.87314   0.60592   0.97089   0.01267  Uiso   1.00
O2     O     0.72983   0.61621   0.71541   0.01267  Uiso   1.00
O3     O     0.71503   0.60830   0.97927   0.01267  Uiso   1.00
O4     O     0.72285   0.47907   0.84960   0.01267  Uiso   1.00
O5     O     0.88791   0.59877   0.70721   0.01267  Uiso   1.00
O6     O     0.88119   0.47062   0.84777   0.01267  Uiso   1.00
O7     O     0.70905   0.74517   0.84335   0.01267  Uiso   1.00
O8     O     0.86700   0.73559   0.82582   0.01267  Uiso   1.00
Zn3    Zn    0.09600   0.39643   0.16095   0.01267  Uiso   1.00
Zn4    Zn    0.30603   0.38717   0.15279   0.01267  Uiso   1.00
H22    H     0.78040   0.39440   0.02470   0.01267  Uiso   1.00
H23    H     0.92920   0.37990   0.28810   0.01267  Uiso   1.00
H24    H     0.76620   0.37690   0.28970   0.01267  Uiso   1.00
H25    H     0.94290   0.39800   0.02940   0.01267  Uiso   1.00
H26    H     0.34190   0.37380   0.71300   0.01267  Uiso   1.00
H27    H     0.34550   0.37390   0.86310   0.01267  Uiso   1.00
H28    H     0.06140   0.40160   0.87910   0.01267  Uiso   1.00
H29    H     0.32980   0.35440   0.43610   0.01267  Uiso   1.00
H30    H     0.33360   0.35690   0.58570   0.01267  Uiso   1.00
H31    H     0.06100   0.42190   0.59960   0.01267  Uiso   1.00
H32    H     0.05640   0.42350   0.44970   0.01267  Uiso   1.00
H33    H     0.33840   0.67180   0.14880   0.01267  Uiso   1.00
H34    H     0.34590   0.09500   0.15060   0.01267  Uiso   1.00
H35    H     0.05960   0.68630   0.17280   0.01267  Uiso   1.00
H36    H     0.06190   0.83430   0.18670   0.01267  Uiso   1.00
H37    H     0.06990   0.11650   0.20460   0.01267  Uiso   1.00
H38    H     0.06640   0.96480   0.20930   0.01267  Uiso   1.00
H39    H     0.46270   0.32240   0.26830   0.01267  Uiso   1.00
H40    H     0.47070   0.45340   0.04040   0.01267  Uiso   1.00
H41    H     0.63230   0.45370   0.04010   0.01267  Uiso   1.00
H42    H     0.62530   0.32250   0.27470   0.01267  Uiso   1.00
Rh2    Rh    0.37790   0.87820   0.15640   0.01267  Uiso   1.00
C37    C     0.75430   0.38730   0.15700   0.01267  Uiso   1.00
C38    C     0.80903   0.39220   0.07900   0.01267  Uiso   1.00
C39    C     0.19900   0.66069   0.16200   0.01267  Uiso   1.00
C40    C     0.89890   0.38330   0.23468   0.01267  Uiso   1.00
C41    C     0.20430   0.38839   0.88855   0.01267  Uiso   1.00
C42    C     0.19340   0.39110   0.42513   0.01267  Uiso   1.00
C43    C     0.80084   0.38170   0.23600   0.01267  Uiso   1.00
C44    C     0.90686   0.39380   0.08240   0.01267  Uiso   1.00
C45    C     0.20573   0.39090   0.98684   0.01267  Uiso   1.00
C46    C     0.19798   0.56296   0.15429   0.01267  Uiso   1.00
C47    C     0.28530   0.37930   0.74681   0.01267  Uiso   1.00
C48    C     0.21130   0.22184   0.16770   0.01267  Uiso   1.00
C49    C     0.28720   0.37970   0.83630   0.01267  Uiso   1.00
C50    C     0.11830   0.39580   0.84568   0.01267  Uiso   1.00
C51    C     0.19214   0.39210   0.32644   0.01267  Uiso   1.00
C52    C     0.64856   0.38810   0.15601   0.01267  Uiso   1.00
C53    C     0.19930   0.38720   0.70560   0.01267  Uiso   1.00
C54    C     0.19720   0.38850   0.60820   0.01267  Uiso   1.00
C55    C     0.27430   0.36970   0.46860   0.01267  Uiso   1.00
C56    C     0.20920   0.12290   0.17340   0.01267  Uiso   1.00
C57    C     0.27640   0.36990   0.55840   0.01267  Uiso   1.00
C58    C     0.11660   0.40850   0.56640   0.01267  Uiso   1.00
C59    C     0.11380   0.40970   0.47640   0.01267  Uiso   1.00
C60    C     0.28110   0.70440   0.15670   0.01267  Uiso   1.00
C61    C     0.28770   0.06930   0.16110   0.01267  Uiso   1.00
C62    C     0.11790   0.71250   0.17140   0.01267  Uiso   1.00
C63    C     0.28330   0.79370   0.16240   0.01267  Uiso   1.00
C64    C     0.20190   0.84270   0.17500   0.01267  Uiso   1.00
C65    C     0.20420   0.94030   0.17950   0.01267  Uiso   1.00
C66    C     0.11900   0.80140   0.17890   0.01267  Uiso   1.00
C67    C     0.12550   0.08240   0.19310   0.01267  Uiso   1.00
C68    C     0.12360   0.99170   0.19590   0.01267  Uiso   1.00
C69    C     0.49750   0.35000   0.22170   0.01267  Uiso   1.00
C70    C     0.50180   0.42620   0.08840   0.01267  Uiso   1.00
C71    C     0.59940   0.42650   0.08810   0.01267  Uiso   1.00
C72    C     0.59540   0.34910   0.22570   0.01267  Uiso   1.00
N5     N     0.95202   0.38968   0.15803   0.01267  Uiso   1.00
N6     N     0.45067   0.38891   0.15373   0.01267  Uiso   1.00
N7     N     0.11610   0.39480   0.75591   0.01267  Uiso   1.00
N8     N     0.28590   0.97940   0.16330   0.01267  Uiso   1.00
O9     O     0.12686   0.39408   0.02911   0.01267  Uiso   1.00
O10    O     0.27017   0.38379   0.28459   0.01267  Uiso   1.00
O11    O     0.28497   0.39170   0.02073   0.01267  Uiso   1.00
O12    O     0.27715   0.52093   0.15040   0.01267  Uiso   1.00
O13    O     0.11209   0.40123   0.29279   0.01267  Uiso   1.00
O14    O     0.11881   0.52938   0.15223   0.01267  Uiso   1.00
O15    O     0.29095   0.25483   0.15665   0.01267  Uiso   1.00
O16    O     0.13300   0.26441   0.17418   0.01267  Uiso   1.00
