data_image0
_cell_length_a       16.1094
_cell_length_b       11.8543
_cell_length_c       17.8232
_cell_angle_alpha    90
_cell_angle_beta     103.296
_cell_angle_gamma    90

_symmetry_space_group_name_H-M    "P 1"
_symmetry_int_tables_number       1

loop_
  _symmetry_equiv_pos_as_xyz
  'x, y, z'

loop_
  _atom_site_label
  _atom_site_occupancy
  _atom_site_fract_x
  _atom_site_fract_y
  _atom_site_fract_z
  _atom_site_thermal_displace_type
  _atom_site_B_iso_or_equiv
  _atom_site_type_symbol
  P1       1.0000 0.67484  0.47726  0.88457  Biso   1.000  P
  P2       1.0000 0.62263  0.16305  0.78734  Biso   1.000  P
  P3       1.0000 0.56147  0.80358  0.73700  Biso   1.000  P
  P4       1.0000 0.88939  0.49022  0.05655  Biso   1.000  P
  Mo1      1.0000 0.71545  0.35949  0.06670  Biso   1.000  Mo
  Mo2      1.0000 0.48031  0.35736  0.80391  Biso   1.000  Mo
  Mo3      1.0000 0.71605  0.65072  0.03756  Biso   1.000  Mo
  Mo4      1.0000 0.61579  0.23521  0.96508  Biso   1.000  Mo
  Mo5      1.0000 0.47785  0.57372  0.78708  Biso   1.000  Mo
  Mo6      1.0000 0.61136  0.74521  0.92274  Biso   1.000  Mo
  Co1      1.0000 0.87832  0.49755  0.86571  Biso   1.000  Co
  O1       1.0000 0.73530  0.72740  0.94646  Biso   1.000  O
  O2       1.0000 0.59090  0.36890  0.02244  Biso   1.000  O
  O3       1.0000 0.59140  0.63640  0.00147  Biso   1.000  O
  O4       1.0000 0.73840  0.25430  0.99030  Biso   1.000  O
  O5       1.0000 0.61610  0.57890  0.85766  Biso   1.000  O
  O6       1.0000 0.84090  0.39810  0.09089  Biso   1.000  O
  O7       1.0000 0.70460  0.51870  0.11518  Biso   1.000  O
  O8       1.0000 0.46660  0.47870  0.87627  Biso   1.000  O
  O9       1.0000 0.53030  0.68050  0.72110  Biso   1.000  O
  O10      1.0000 0.71250  0.49080  0.97213  Biso   1.000  O
  O11      1.0000 0.63200  0.13790  0.87400  Biso   1.000  O
  O12      1.0000 0.74370  0.46300  0.84093  Biso   1.000  O
  O13      1.0000 0.62210  0.80800  0.81865  Biso   1.000  O
  O14      1.0000 0.61760  0.37030  0.87505  Biso   1.000  O
  O15      1.0000 0.48460  0.88170  0.73440  Biso   1.000  O
  O16      1.0000 0.48610  0.71130  0.86332  Biso   1.000  O
  O17      1.0000 0.84430  0.60470  0.06020  Biso   1.000  O
  O18      1.0000 0.53930  0.22820  0.75720  Biso   1.000  O
  O19      1.0000 0.97820  0.49920  0.11652  Biso   1.000  O
  O20      1.0000 0.51950  0.45350  0.73080  Biso   1.000  O
  O21      1.0000 0.49050  0.24840  0.89904  Biso   1.000  O
  O22      1.0000 0.90220  0.45720  0.97950  Biso   1.000  O
  O23      1.0000 0.62840  0.05580  0.74509  Biso   1.000  O
  O24      1.0000 0.70160  0.23710  0.77860  Biso   1.000  O
  O25      1.0000 0.60940  0.83600  0.67643  Biso   1.000  O
  P5       1.0000 0.82516  0.97726  0.61543  Biso   1.000  P
  P6       1.0000 0.87737  0.66305  0.71266  Biso   1.000  P
  P7       1.0000 0.93853  0.30358  0.76300  Biso   1.000  P
  P8       1.0000 0.61061  0.99022  0.44345  Biso   1.000  P
  Mo7      1.0000 0.78455  0.85949  0.43330  Biso   1.000  Mo
  Mo8      1.0000 0.01969  0.85736  0.69609  Biso   1.000  Mo
  Mo9      1.0000 0.78395  0.15072  0.46244  Biso   1.000  Mo
  Mo10     1.0000 0.88421  0.73521  0.53492  Biso   1.000  Mo
  Mo11     1.0000 0.02215  0.07372  0.71292  Biso   1.000  Mo
  Mo12     1.0000 0.88864  0.24521  0.57726  Biso   1.000  Mo
  Co2      1.0000 0.62168  0.99755  0.63429  Biso   1.000  Co
  O26      1.0000 0.76470  0.22740  0.55354  Biso   1.000  O
  O27      1.0000 0.90910  0.86890  0.47756  Biso   1.000  O
  O28      1.0000 0.90860  0.13640  0.49853  Biso   1.000  O
  O29      1.0000 0.76160  0.75430  0.50970  Biso   1.000  O
  O30      1.0000 0.88390  0.07890  0.64234  Biso   1.000  O
  O31      1.0000 0.65910  0.89810  0.40911  Biso   1.000  O
  O32      1.0000 0.79540  0.01870  0.38482  Biso   1.000  O
  O33      1.0000 0.03340  0.97870  0.62373  Biso   1.000  O
  O34      1.0000 0.96970  0.18050  0.77890  Biso   1.000  O
  O35      1.0000 0.78750  0.99080  0.52787  Biso   1.000  O
  O36      1.0000 0.86800  0.63790  0.62600  Biso   1.000  O
  O37      1.0000 0.75630  0.96300  0.65907  Biso   1.000  O
  O38      1.0000 0.87790  0.30800  0.68135  Biso   1.000  O
  O39      1.0000 0.88240  0.87030  0.62495  Biso   1.000  O
  O40      1.0000 0.01540  0.38170  0.76560  Biso   1.000  O
  O41      1.0000 0.01390  0.21130  0.63668  Biso   1.000  O
  O42      1.0000 0.65570  0.10470  0.43980  Biso   1.000  O
  O43      1.0000 0.96070  0.72820  0.74280  Biso   1.000  O
  O44      1.0000 0.52180  0.99920  0.38348  Biso   1.000  O
  O45      1.0000 0.98050  0.95350  0.76920  Biso   1.000  O
  O46      1.0000 0.00950  0.74840  0.60096  Biso   1.000  O
  O47      1.0000 0.59780  0.95720  0.52050  Biso   1.000  O
  O48      1.0000 0.87160  0.55580  0.75491  Biso   1.000  O
  O49      1.0000 0.79840  0.73710  0.72140  Biso   1.000  O
  O50      1.0000 0.89060  0.33600  0.82357  Biso   1.000  O
  P9       1.0000 0.32516  0.52274  0.11543  Biso   1.000  P
  P10      1.0000 0.37737  0.83695  0.21266  Biso   1.000  P
  P11      1.0000 0.43853  0.19642  0.26300  Biso   1.000  P
  P12      1.0000 0.11061  0.50978  0.94345  Biso   1.000  P
  Mo13     1.0000 0.28455  0.64051  0.93330  Biso   1.000  Mo
  Mo14     1.0000 0.51969  0.64264  0.19609  Biso   1.000  Mo
  Mo15     1.0000 0.28395  0.34928  0.96244  Biso   1.000  Mo
  Mo16     1.0000 0.38421  0.76479  0.03492  Biso   1.000  Mo
  Mo17     1.0000 0.52215  0.42628  0.21292  Biso   1.000  Mo
  Mo18     1.0000 0.38864  0.25479  0.07726  Biso   1.000  Mo
  Co3      1.0000 0.12168  0.50245  0.13429  Biso   1.000  Co
  O51      1.0000 0.26470  0.27260  0.05354  Biso   1.000  O
  O52      1.0000 0.40910  0.63110  0.97756  Biso   1.000  O
  O53      1.0000 0.40860  0.36360  0.99853  Biso   1.000  O
  O54      1.0000 0.26160  0.74570  0.00970  Biso   1.000  O
  O55      1.0000 0.38390  0.42110  0.14234  Biso   1.000  O
  O56      1.0000 0.15910  0.60190  0.90911  Biso   1.000  O
  O57      1.0000 0.29540  0.48130  0.88482  Biso   1.000  O
  O58      1.0000 0.53340  0.52130  0.12373  Biso   1.000  O
  O59      1.0000 0.46970  0.31950  0.27890  Biso   1.000  O
  O60      1.0000 0.28750  0.50920  0.02787  Biso   1.000  O
  O61      1.0000 0.36800  0.86210  0.12600  Biso   1.000  O
  O62      1.0000 0.25630  0.53700  0.15907  Biso   1.000  O
  O63      1.0000 0.37790  0.19200  0.18135  Biso   1.000  O
  O64      1.0000 0.38240  0.62970  0.12495  Biso   1.000  O
  O65      1.0000 0.51540  0.11830  0.26560  Biso   1.000  O
  O66      1.0000 0.51390  0.28870  0.13668  Biso   1.000  O
  O67      1.0000 0.15570  0.39530  0.93980  Biso   1.000  O
  O68      1.0000 0.46070  0.77180  0.24280  Biso   1.000  O
  O69      1.0000 0.02180  0.50080  0.88348  Biso   1.000  O
  O70      1.0000 0.48050  0.54650  0.26920  Biso   1.000  O
  O71      1.0000 0.50950  0.75160  0.10096  Biso   1.000  O
  O72      1.0000 0.09780  0.54280  0.02050  Biso   1.000  O
  O73      1.0000 0.37160  0.94420  0.25491  Biso   1.000  O
  O74      1.0000 0.29840  0.76290  0.22140  Biso   1.000  O
  O75      1.0000 0.39060  0.16400  0.32357  Biso   1.000  O
  P13      1.0000 0.17484  0.02274  0.38457  Biso   1.000  P
  P14      1.0000 0.12263  0.33695  0.28734  Biso   1.000  P
  P15      1.0000 0.06147  0.69642  0.23700  Biso   1.000  P
  P16      1.0000 0.38939  0.00978  0.55655  Biso   1.000  P
  Mo19     1.0000 0.21545  0.14051  0.56670  Biso   1.000  Mo
  Mo20     1.0000 0.98031  0.14264  0.30391  Biso   1.000  Mo
  Mo21     1.0000 0.21605  0.84928  0.53756  Biso   1.000  Mo
  Mo22     1.0000 0.11579  0.26479  0.46508  Biso   1.000  Mo
  Mo23     1.0000 0.97785  0.92628  0.28708  Biso   1.000  Mo
  Mo24     1.0000 0.11136  0.75479  0.42274  Biso   1.000  Mo
  Co4      1.0000 0.37832  0.00245  0.36571  Biso   1.000  Co
  O76      1.0000 0.23530  0.77260  0.44646  Biso   1.000  O
  O77      1.0000 0.09090  0.13110  0.52244  Biso   1.000  O
  O78      1.0000 0.09140  0.86360  0.50147  Biso   1.000  O
  O79      1.0000 0.23840  0.24570  0.49030  Biso   1.000  O
  O80      1.0000 0.11610  0.92110  0.35766  Biso   1.000  O
  O81      1.0000 0.34090  0.10190  0.59089  Biso   1.000  O
  O82      1.0000 0.20460  0.98130  0.61518  Biso   1.000  O
  O83      1.0000 0.96660  0.02130  0.37627  Biso   1.000  O
  O84      1.0000 0.03030  0.81950  0.22110  Biso   1.000  O
  O85      1.0000 0.21250  0.00920  0.47213  Biso   1.000  O
  O86      1.0000 0.13200  0.36210  0.37400  Biso   1.000  O
  O87      1.0000 0.24370  0.03700  0.34093  Biso   1.000  O
  O88      1.0000 0.12210  0.69200  0.31865  Biso   1.000  O
  O89      1.0000 0.11760  0.12970  0.37505  Biso   1.000  O
  O90      1.0000 0.98460  0.61830  0.23440  Biso   1.000  O
  O91      1.0000 0.98610  0.78870  0.36332  Biso   1.000  O
  O92      1.0000 0.34430  0.89530  0.56020  Biso   1.000  O
  O93      1.0000 0.03930  0.27180  0.25720  Biso   1.000  O
  O94      1.0000 0.47820  0.00080  0.61652  Biso   1.000  O
  O95      1.0000 0.01950  0.04650  0.23080  Biso   1.000  O
  O96      1.0000 0.99050  0.25160  0.39904  Biso   1.000  O
  O97      1.0000 0.40220  0.04280  0.47950  Biso   1.000  O
  O98      1.0000 0.12840  0.44420  0.24509  Biso   1.000  O
  O99      1.0000 0.20160  0.26290  0.27860  Biso   1.000  O
  O100     1.0000 0.10940  0.66400  0.17643  Biso   1.000  O
  Co5      1.0000 0.50000  0.50000  0.00000  Biso   1.000  Co
  Co6      1.0000 0.00000  0.00000  0.50000  Biso   1.000  Co
