data_TETWOG_clean
_audit_creation_date              2014-07-02
_audit_creation_method            'Materials Studio'
_symmetry_space_group_name_H-M    'P1'
_symmetry_Int_Tables_number       1
_symmetry_cell_setting            triclinic
loop_
_symmetry_equiv_pos_as_xyz
  x,y,z
_cell_length_a                    9.1238
_cell_length_b                    9.6201
_cell_length_c                    12.6475
_cell_angle_alpha                 94.4750
_cell_angle_beta                  104.7220
_cell_angle_gamma                 114.4370
loop_
_atom_site_label
_atom_site_type_symbol
_atom_site_fract_x
_atom_site_fract_y
_atom_site_fract_z
_atom_site_U_iso_or_equiv
_atom_site_adp_type
_atom_site_occupancy
Co1    Co    0.87208   0.51391   0.70196   0.01267  Uiso   1.00
Co2    Co    0.12792   0.48609   0.29804   0.01267  Uiso   1.00
Co3    Co    0.50000   0.50000   0.50000   0.01267  Uiso   1.00
Co4    Co    0.00000   0.00000   0.50000   0.01267  Uiso   1.00
H1     H     0.36230   0.87510   0.59780   0.01267  Uiso   1.00
H2     H     0.72730   0.88170   0.81650   0.01267  Uiso   1.00
H3     H     0.51300   0.71620   0.86480   0.01267  Uiso   1.00
H4     H     0.44520   0.58770   0.75540   0.01267  Uiso   1.00
H5     H     0.39710   0.85830   0.77750   0.01267  Uiso   1.00
H6     H     0.63670   0.97300   0.67980   0.01267  Uiso   1.00
H7     H     0.42300   0.13630   0.83480   0.01267  Uiso   1.00
H8     H     0.99280   0.39410   0.90290   0.01267  Uiso   1.00
H9     H     0.89480   0.22570   0.01400   0.01267  Uiso   1.00
H10    H     0.53690   0.30640   0.72910   0.01267  Uiso   1.00
H11    H     0.68500   0.03300   0.07100   0.01267  Uiso   1.00
H12    H     0.63770   0.12490   0.40220   0.01267  Uiso   1.00
H13    H     0.27270   0.11830   0.18350   0.01267  Uiso   1.00
H14    H     0.48700   0.28380   0.13520   0.01267  Uiso   1.00
H15    H     0.55480   0.41230   0.24460   0.01267  Uiso   1.00
H16    H     0.60290   0.14170   0.22250   0.01267  Uiso   1.00
H17    H     0.36330   0.02700   0.32020   0.01267  Uiso   1.00
H18    H     0.57700   0.86370   0.16520   0.01267  Uiso   1.00
H19    H     0.00720   0.60590   0.09710   0.01267  Uiso   1.00
H20    H     0.10520   0.77430   0.98600   0.01267  Uiso   1.00
H21    H     0.46310   0.69360   0.27090   0.01267  Uiso   1.00
H22    H     0.31500   0.96700   0.92900   0.01267  Uiso   1.00
C1     C     0.67030   0.84870   0.55900   0.01267  Uiso   1.00
C2     C     0.73950   0.69510   0.74110   0.01267  Uiso   1.00
C3     C     0.29680   0.64990   0.52440   0.01267  Uiso   1.00
C4     C     0.39540   0.79370   0.61830   0.01267  Uiso   1.00
C5     C     0.65080   0.79330   0.75390   0.01267  Uiso   1.00
C6     C     0.48940   0.69850   0.78440   0.01267  Uiso   1.00
C7     C     0.36370   0.75800   0.72990   0.01267  Uiso   1.00
C8     C     0.18120   0.65580   0.71970   0.01267  Uiso   1.00
C9     C     0.58100   0.04130   0.00390   0.01267  Uiso   1.00
C10    C     0.59190   0.86100   0.65100   0.01267  Uiso   1.00
C11    C     0.64470   0.15500   0.93590   0.01267  Uiso   1.00
C12    C     0.54000   0.18580   0.84970   0.01267  Uiso   1.00
C13    C     0.87620   0.34020   0.88870   0.01267  Uiso   1.00
C14    C     0.81850   0.23850   0.95590   0.01267  Uiso   1.00
C15    C     0.60940   0.28910   0.78700   0.01267  Uiso   1.00
C16    C     0.32970   0.15130   0.44100   0.01267  Uiso   1.00
C17    C     0.26050   0.30490   0.25890   0.01267  Uiso   1.00
C18    C     0.70320   0.35010   0.47560   0.01267  Uiso   1.00
C19    C     0.60460   0.20630   0.38170   0.01267  Uiso   1.00
C20    C     0.34920   0.20670   0.24610   0.01267  Uiso   1.00
C21    C     0.51060   0.30150   0.21560   0.01267  Uiso   1.00
C22    C     0.63630   0.24200   0.27010   0.01267  Uiso   1.00
C23    C     0.81880   0.34420   0.28030   0.01267  Uiso   1.00
C24    C     0.41900   0.95870   0.99610   0.01267  Uiso   1.00
C25    C     0.40810   0.13900   0.34900   0.01267  Uiso   1.00
C26    C     0.35530   0.84500   0.06410   0.01267  Uiso   1.00
C27    C     0.46000   0.81420   0.15030   0.01267  Uiso   1.00
C28    C     0.12380   0.65980   0.11130   0.01267  Uiso   1.00
C29    C     0.18150   0.76150   0.04410   0.01267  Uiso   1.00
C30    C     0.39060   0.71090   0.21300   0.01267  Uiso   1.00
N1     N     0.77690   0.36640   0.80520   0.01267  Uiso   1.00
N2     N     0.22310   0.63360   0.19480   0.01267  Uiso   1.00
O1     O     0.87990   0.72540   0.80780   0.01267  Uiso   1.00
O2     O     0.59940   0.72930   0.48140   0.01267  Uiso   1.00
O3     O     0.67010   0.57460   0.66120   0.01267  Uiso   1.00
O4     O     0.20780   0.65900   0.43470   0.01267  Uiso   1.00
O5     O     0.30690   0.52560   0.54320   0.01267  Uiso   1.00
O6     O     0.80880   0.96240   0.57030   0.01267  Uiso   1.00
O7     O     0.06780   0.68320   0.65790   0.01267  Uiso   1.00
O8     O     0.13990   0.54840   0.77230   0.01267  Uiso   1.00
O9     O     0.12010   0.27460   0.19220   0.01267  Uiso   1.00
O10    O     0.40060   0.27070   0.51860   0.01267  Uiso   1.00
O11    O     0.32990   0.42540   0.33880   0.01267  Uiso   1.00
O12    O     0.79220   0.34100   0.56530   0.01267  Uiso   1.00
O13    O     0.69310   0.47440   0.45680   0.01267  Uiso   1.00
O14    O     0.19120   0.03760   0.42970   0.01267  Uiso   1.00
O15    O     0.93220   0.31680   0.34210   0.01267  Uiso   1.00
O16    O     0.86010   0.45160   0.22770   0.01267  Uiso   1.00
