data_image0
_cell_length_a       12.397
_cell_length_b       15.1947
_cell_length_c       20.9508
_cell_angle_alpha    90.95
_cell_angle_beta     92.997
_cell_angle_gamma    96.049

_symmetry_space_group_name_H-M    "P 1"
_symmetry_int_tables_number       1

loop_
  _symmetry_equiv_pos_as_xyz
  'x, y, z'

loop_
  _atom_site_label
  _atom_site_occupancy
  _atom_site_fract_x
  _atom_site_fract_y
  _atom_site_fract_z
  _atom_site_thermal_displace_type
  _atom_site_B_iso_or_equiv
  _atom_site_type_symbol
  Na1      1.0000 0.75700  0.74680  0.25056  Biso   1.000  Na
  P1       1.0000 0.50502  0.37183  0.15790  Biso   1.000  P
  P2       1.0000 0.79805  0.22200  0.10682  Biso   1.000  P
  P3       1.0000 0.56297  0.58756  0.29173  Biso   1.000  P
  P4       1.0000 0.14188  0.23479  0.10960  Biso   1.000  P
  P5       1.0000 0.98958  0.13085  0.34428  Biso   1.000  P
  P6       1.0000 0.67736  0.26175  0.39875  Biso   1.000  P
  P7       1.0000 0.33706  0.28302  0.39249  Biso   1.000  P
  P8       1.0000 0.94929  0.91557  0.20587  Biso   1.000  P
  Mo1      1.0000 0.36236  0.25944  0.03045  Biso   1.000  Mo
  Mo2      1.0000 0.91090  0.23815  0.47791  Biso   1.000  Mo
  Mo3      1.0000 0.12079  0.24434  0.47359  Biso   1.000  Mo
  Mo4      1.0000 0.57046  0.25629  0.02620  Biso   1.000  Mo
  Mo5      1.0000 0.24058  0.07174  0.39493  Biso   1.000  Mo
  Mo6      1.0000 0.67646  0.56457  0.15285  Biso   1.000  Mo
  Mo7      1.0000 0.11837  0.94234  0.33699  Biso   1.000  Mo
  Mo8      1.0000 0.39065  0.56830  0.16255  Biso   1.000  Mo
  Mo9      1.0000 0.25831  0.44159  0.10757  Biso   1.000  Mo
  Mo10     1.0000 0.75197  0.43357  0.09381  Biso   1.000  Mo
  Mo11     1.0000 0.83022  0.93212  0.34398  Biso   1.000  Mo
  Mo12     1.0000 0.74519  0.05735  0.40196  Biso   1.000  Mo
  Zn1      1.0000 0.95967  0.12641  0.19740  Biso   1.000  Zn
  Zn2      1.0000 0.51918  0.37671  0.30606  Biso   1.000  Zn
  O1       1.0000 0.46280  0.18870  0.07640  Biso   1.000  O
  O2       1.0000 0.01240  0.15400  0.50470  Biso   1.000  O
  O3       1.0000 0.47580  0.34430  0.99800  Biso   1.000  O
  O4       1.0000 0.01440  0.31250  0.42990  Biso   1.000  O
  O5       1.0000 0.37700  0.52050  0.07520  Biso   1.000  O
  O6       1.0000 0.20590  0.04500  0.30390  Biso   1.000  O
  O7       1.0000 0.29590  0.47210  0.19810  Biso   1.000  O
  O8       1.0000 0.64830  0.51510  0.06660  Biso   1.000  O
  O9       1.0000 0.22810  0.31120  0.41350  Biso   1.000  O
  O10      1.0000 0.12770  0.98660  0.42540  Biso   1.000  O
  O11      1.0000 0.06440  0.23410  0.05000  Biso   1.000  O
  O12      1.0000 0.24890  0.20020  0.09040  Biso   1.000  O
  O13      1.0000 0.67620  0.16860  0.37010  Biso   1.000  O
  O14      1.0000 0.32180  0.18890  0.36360  Biso   1.000  O
  O15      1.0000 0.09780  0.15710  0.38270  Biso   1.000  O
  O16      1.0000 0.85190  0.97960  0.43130  Biso   1.000  O
  O17      1.0000 0.54070  0.63480  0.13360  Biso   1.000  O
  O18      1.0000 0.75150  0.02840  0.31080  Biso   1.000  O
  O19      1.0000 0.82430  0.17310  0.16710  Biso   1.000  O
  O20      1.0000 0.69860  0.35670  0.01150  Biso   1.000  O
  O21      1.0000 0.75110  0.46530  0.18490  Biso   1.000  O
  O22      1.0000 0.73640  0.84530  0.35150  Biso   1.000  O
  O23      1.0000 0.50900  0.32030  0.22080  Biso   1.000  O
  O24      1.0000 0.98560  0.18150  0.28220  Biso   1.000  O
  O25      1.0000 0.89650  0.15170  0.38600  Biso   1.000  O
  O26      1.0000 0.09360  0.17370  0.15970  Biso   1.000  O
  O27      1.0000 0.26340  0.36530  0.02310  Biso   1.000  O
  O28      1.0000 0.45370  0.59530  0.25380  Biso   1.000  O
  O29      1.0000 0.85730  0.89380  0.25180  Biso   1.000  O
  O30      1.0000 0.16750  0.32900  0.13920  Biso   1.000  O
  O31      1.0000 0.06050  0.91880  0.24380  Biso   1.000  O
  O32      1.0000 0.68080  0.19440  0.08320  Biso   1.000  O
  O33      1.0000 0.82050  0.32130  0.12120  Biso   1.000  O
  O34      1.0000 0.41630  0.29000  0.45170  Biso   1.000  O
  O35      1.0000 0.22840  0.14480  0.48060  Biso   1.000  O
  O36      1.0000 0.97860  0.03060  0.32870  Biso   1.000  O
  O37      1.0000 0.94370  0.84390  0.15420  Biso   1.000  O
  O38      1.0000 0.39430  0.34900  0.12190  Biso   1.000  O
  O39      1.0000 0.78740  0.13240  0.48730  Biso   1.000  O
  O40      1.0000 0.97260  0.86770  0.36370  Biso   1.000  O
  O41      1.0000 0.56470  0.49720  0.32250  Biso   1.000  O
  O42      1.0000 0.65680  0.60190  0.24590  Biso   1.000  O
  O43      1.0000 0.59580  0.34640  0.11580  Biso   1.000  O
  O44      1.0000 0.93550  0.00450  0.17520  Biso   1.000  O
  O45      1.0000 0.79240  0.29680  0.42320  Biso   1.000  O
  O46      1.0000 0.52290  0.47230  0.17230  Biso   1.000  O
  O47      1.0000 0.64040  0.32140  0.34590  Biso   1.000  O
  O48      1.0000 0.60290  0.26020  0.45570  Biso   1.000  O
  O49      1.0000 0.57680  0.65950  0.34360  Biso   1.000  O
  O50      1.0000 0.37830  0.34610  0.34130  Biso   1.000  O
  O51      1.0000 0.86730  0.19240  0.05250  Biso   1.000  O
  Na2      1.0000 0.24300  0.25320  0.74944  Biso   1.000  Na
  P9       1.0000 0.49498  0.62817  0.84210  Biso   1.000  P
  P10      1.0000 0.20195  0.77800  0.89318  Biso   1.000  P
  P11      1.0000 0.43703  0.41244  0.70827  Biso   1.000  P
  P12      1.0000 0.85812  0.76521  0.89040  Biso   1.000  P
  P13      1.0000 0.01042  0.86915  0.65572  Biso   1.000  P
  P14      1.0000 0.32264  0.73825  0.60125  Biso   1.000  P
  P15      1.0000 0.66294  0.71698  0.60751  Biso   1.000  P
  P16      1.0000 0.05071  0.08443  0.79413  Biso   1.000  P
  Mo13     1.0000 0.63764  0.74056  0.96955  Biso   1.000  Mo
  Mo14     1.0000 0.08910  0.76185  0.52209  Biso   1.000  Mo
  Mo15     1.0000 0.87921  0.75566  0.52641  Biso   1.000  Mo
  Mo16     1.0000 0.42954  0.74371  0.97380  Biso   1.000  Mo
  Mo17     1.0000 0.75942  0.92826  0.60507  Biso   1.000  Mo
  Mo18     1.0000 0.32354  0.43543  0.84715  Biso   1.000  Mo
  Mo19     1.0000 0.88163  0.05766  0.66301  Biso   1.000  Mo
  Mo20     1.0000 0.60935  0.43170  0.83745  Biso   1.000  Mo
  Mo21     1.0000 0.74169  0.55841  0.89243  Biso   1.000  Mo
  Mo22     1.0000 0.24803  0.56643  0.90619  Biso   1.000  Mo
  Mo23     1.0000 0.16978  0.06788  0.65602  Biso   1.000  Mo
  Mo24     1.0000 0.25481  0.94265  0.59804  Biso   1.000  Mo
  Zn3      1.0000 0.04033  0.87359  0.80260  Biso   1.000  Zn
  Zn4      1.0000 0.48082  0.62329  0.69394  Biso   1.000  Zn
  O52      1.0000 0.53720  0.81130  0.92360  Biso   1.000  O
  O53      1.0000 0.98760  0.84600  0.49530  Biso   1.000  O
  O54      1.0000 0.52420  0.65570  0.00200  Biso   1.000  O
  O55      1.0000 0.98560  0.68750  0.57010  Biso   1.000  O
  O56      1.0000 0.62300  0.47950  0.92480  Biso   1.000  O
  O57      1.0000 0.79410  0.95500  0.69610  Biso   1.000  O
  O58      1.0000 0.70410  0.52790  0.80190  Biso   1.000  O
  O59      1.0000 0.35170  0.48490  0.93340  Biso   1.000  O
  O60      1.0000 0.77190  0.68880  0.58650  Biso   1.000  O
  O61      1.0000 0.87230  0.01340  0.57460  Biso   1.000  O
  O62      1.0000 0.93560  0.76590  0.95000  Biso   1.000  O
  O63      1.0000 0.75110  0.79980  0.90960  Biso   1.000  O
  O64      1.0000 0.32380  0.83140  0.62990  Biso   1.000  O
  O65      1.0000 0.67820  0.81110  0.63640  Biso   1.000  O
  O66      1.0000 0.90220  0.84290  0.61730  Biso   1.000  O
  O67      1.0000 0.14810  0.02040  0.56870  Biso   1.000  O
  O68      1.0000 0.45930  0.36520  0.86640  Biso   1.000  O
  O69      1.0000 0.24850  0.97160  0.68920  Biso   1.000  O
  O70      1.0000 0.17570  0.82690  0.83290  Biso   1.000  O
  O71      1.0000 0.30140  0.64330  0.98850  Biso   1.000  O
  O72      1.0000 0.24890  0.53470  0.81510  Biso   1.000  O
  O73      1.0000 0.26360  0.15470  0.64850  Biso   1.000  O
  O74      1.0000 0.49100  0.67970  0.77920  Biso   1.000  O
  O75      1.0000 0.01440  0.81850  0.71780  Biso   1.000  O
  O76      1.0000 0.10350  0.84830  0.61400  Biso   1.000  O
  O77      1.0000 0.90640  0.82630  0.84030  Biso   1.000  O
  O78      1.0000 0.73660  0.63470  0.97690  Biso   1.000  O
  O79      1.0000 0.54630  0.40470  0.74620  Biso   1.000  O
  O80      1.0000 0.14270  0.10620  0.74820  Biso   1.000  O
  O81      1.0000 0.83250  0.67100  0.86080  Biso   1.000  O
  O82      1.0000 0.93950  0.08120  0.75620  Biso   1.000  O
  O83      1.0000 0.31920  0.80560  0.91680  Biso   1.000  O
  O84      1.0000 0.17950  0.67870  0.87880  Biso   1.000  O
  O85      1.0000 0.58370  0.71000  0.54830  Biso   1.000  O
  O86      1.0000 0.77160  0.85520  0.51940  Biso   1.000  O
  O87      1.0000 0.02140  0.96940  0.67130  Biso   1.000  O
  O88      1.0000 0.05630  0.15610  0.84580  Biso   1.000  O
  O89      1.0000 0.60570  0.65100  0.87810  Biso   1.000  O
  O90      1.0000 0.21260  0.86760  0.51270  Biso   1.000  O
  O91      1.0000 0.02740  0.13230  0.63630  Biso   1.000  O
  O92      1.0000 0.43530  0.50280  0.67750  Biso   1.000  O
  O93      1.0000 0.34320  0.39810  0.75410  Biso   1.000  O
  O94      1.0000 0.40420  0.65360  0.88420  Biso   1.000  O
  O95      1.0000 0.06450  0.99550  0.82480  Biso   1.000  O
  O96      1.0000 0.20760  0.70320  0.57680  Biso   1.000  O
  O97      1.0000 0.47710  0.52770  0.82770  Biso   1.000  O
  O98      1.0000 0.35960  0.67860  0.65410  Biso   1.000  O
  O99      1.0000 0.39710  0.73980  0.54430  Biso   1.000  O
  O100     1.0000 0.42320  0.34050  0.65640  Biso   1.000  O
  O101     1.0000 0.62170  0.65390  0.65870  Biso   1.000  O
  O102     1.0000 0.13270  0.80760  0.94750  Biso   1.000  O
  Na3      1.0000 0.50000  0.50000  0.00000  Biso   1.000  Na
  Na4      1.0000 0.00000  0.00000  0.50000  Biso   1.000  Na
