data_image0
_cell_length_a       27.329
_cell_length_b       17.377
_cell_length_c       10.2124
_cell_angle_alpha    90
_cell_angle_beta     90
_cell_angle_gamma    90

_symmetry_space_group_name_H-M    "P 1"
_symmetry_int_tables_number       1

loop_
  _symmetry_equiv_pos_as_xyz
  'x, y, z'

loop_
  _atom_site_label
  _atom_site_occupancy
  _atom_site_fract_x
  _atom_site_fract_y
  _atom_site_fract_z
  _atom_site_thermal_displace_type
  _atom_site_B_iso_or_equiv
  _atom_site_type_symbol
  Ga1      1.0000 0.65650  0.67770  0.11040  Biso   1.000  Ga
  Ga2      1.0000 0.77980  0.73970  0.08860  Biso   1.000  Ga
  Ga3      1.0000 0.75740  0.91330  0.92510  Biso   1.000  Ga
  Ga4      1.0000 0.55310  0.42270  0.90050  Biso   1.000  Ga
  P1       1.0000 0.85790  0.82240  0.90470  Biso   1.000  P
  P2       1.0000 0.55920  0.57340  0.09630  Biso   1.000  P
  P3       1.0000 0.75390  0.06500  0.11160  Biso   1.000  P
  P4       1.0000 0.69610  0.77120  0.88520  Biso   1.000  P
  F1       1.0000 0.76660  0.85370  0.09070  Biso   1.000  F
  F2       1.0000 0.71640  0.73060  0.17870  Biso   1.000  F
  O1       1.0000 0.83860  0.75660  0.98690  Biso   1.000  O
  O2       1.0000 0.87260  0.79510  0.76720  Biso   1.000  O
  O3       1.0000 0.90570  0.85290  0.97020  Biso   1.000  O
  O4       1.0000 0.82230  0.89070  0.88870  Biso   1.000  O
  O5       1.0000 0.59740  0.62810  0.04780  Biso   1.000  O
  O6       1.0000 0.55740  0.50340  0.00910  Biso   1.000  O
  O7       1.0000 0.50900  0.61330  0.09500  Biso   1.000  O
  O8       1.0000 0.57060  0.54450  0.23700  Biso   1.000  O
  O9       1.0000 0.71670  0.12830  0.09120  Biso   1.000  O
  O10      1.0000 0.74050  0.00070  0.01530  Biso   1.000  O
  O11      1.0000 0.75260  0.03290  0.25220  Biso   1.000  O
  O12      1.0000 0.80680  0.09050  0.07890  Biso   1.000  O
  O13      1.0000 0.74370  0.73150  0.92680  Biso   1.000  O
  O14      1.0000 0.70140  0.85910  0.89320  Biso   1.000  O
  O15      1.0000 0.68320  0.74600  0.74530  Biso   1.000  O
  O16      1.0000 0.65230  0.74580  0.97230  Biso   1.000  O
  Ga5      1.0000 0.84350  0.82230  0.61040  Biso   1.000  Ga
  Ga6      1.0000 0.72020  0.76030  0.58860  Biso   1.000  Ga
  Ga7      1.0000 0.74260  0.58670  0.42510  Biso   1.000  Ga
  Ga8      1.0000 0.94690  0.07730  0.40050  Biso   1.000  Ga
  P5       1.0000 0.64210  0.67760  0.40470  Biso   1.000  P
  P6       1.0000 0.94080  0.92660  0.59630  Biso   1.000  P
  P7       1.0000 0.74610  0.43500  0.61160  Biso   1.000  P
  P8       1.0000 0.80390  0.72880  0.38520  Biso   1.000  P
  F3       1.0000 0.73340  0.64630  0.59070  Biso   1.000  F
  F4       1.0000 0.78360  0.76940  0.67870  Biso   1.000  F
  O17      1.0000 0.66140  0.74340  0.48690  Biso   1.000  O
  O18      1.0000 0.62740  0.70490  0.26720  Biso   1.000  O
  O19      1.0000 0.59430  0.64710  0.47020  Biso   1.000  O
  O20      1.0000 0.67770  0.60930  0.38870  Biso   1.000  O
  O21      1.0000 0.90260  0.87190  0.54780  Biso   1.000  O
  O22      1.0000 0.94260  0.99660  0.50910  Biso   1.000  O
  O23      1.0000 0.99100  0.88670  0.59500  Biso   1.000  O
  O24      1.0000 0.92940  0.95550  0.73700  Biso   1.000  O
  O25      1.0000 0.78330  0.37170  0.59120  Biso   1.000  O
  O26      1.0000 0.75950  0.49930  0.51530  Biso   1.000  O
  O27      1.0000 0.74740  0.46710  0.75220  Biso   1.000  O
  O28      1.0000 0.69320  0.40950  0.57890  Biso   1.000  O
  O29      1.0000 0.75630  0.76850  0.42680  Biso   1.000  O
  O30      1.0000 0.79860  0.64090  0.39320  Biso   1.000  O
  O31      1.0000 0.81680  0.75400  0.24530  Biso   1.000  O
  O32      1.0000 0.84770  0.75420  0.47230  Biso   1.000  O
  Ga9      1.0000 0.34350  0.67770  0.38960  Biso   1.000  Ga
  Ga10     1.0000 0.22020  0.73970  0.41140  Biso   1.000  Ga
  Ga11     1.0000 0.24260  0.91330  0.57490  Biso   1.000  Ga
  Ga12     1.0000 0.44690  0.42270  0.59950  Biso   1.000  Ga
  P9       1.0000 0.14210  0.82240  0.59530  Biso   1.000  P
  P10      1.0000 0.44080  0.57340  0.40370  Biso   1.000  P
  P11      1.0000 0.24610  0.06500  0.38840  Biso   1.000  P
  P12      1.0000 0.30390  0.77120  0.61480  Biso   1.000  P
  F5       1.0000 0.23340  0.85370  0.40930  Biso   1.000  F
  F6       1.0000 0.28360  0.73060  0.32130  Biso   1.000  F
  O33      1.0000 0.16140  0.75660  0.51310  Biso   1.000  O
  O34      1.0000 0.12740  0.79510  0.73280  Biso   1.000  O
  O35      1.0000 0.09430  0.85290  0.52980  Biso   1.000  O
  O36      1.0000 0.17770  0.89070  0.61130  Biso   1.000  O
  O37      1.0000 0.40260  0.62810  0.45220  Biso   1.000  O
  O38      1.0000 0.44260  0.50340  0.49090  Biso   1.000  O
  O39      1.0000 0.49100  0.61330  0.40500  Biso   1.000  O
  O40      1.0000 0.42940  0.54450  0.26300  Biso   1.000  O
  O41      1.0000 0.28330  0.12830  0.40880  Biso   1.000  O
  O42      1.0000 0.25950  0.00070  0.48470  Biso   1.000  O
  O43      1.0000 0.24740  0.03290  0.24780  Biso   1.000  O
  O44      1.0000 0.19320  0.09050  0.42110  Biso   1.000  O
  O45      1.0000 0.25630  0.73150  0.57320  Biso   1.000  O
  O46      1.0000 0.29860  0.85910  0.60680  Biso   1.000  O
  O47      1.0000 0.31680  0.74600  0.75470  Biso   1.000  O
  O48      1.0000 0.34770  0.74580  0.52770  Biso   1.000  O
  Ga13     1.0000 0.15650  0.82230  0.88960  Biso   1.000  Ga
  Ga14     1.0000 0.27980  0.76030  0.91140  Biso   1.000  Ga
  Ga15     1.0000 0.25740  0.58670  0.07490  Biso   1.000  Ga
  Ga16     1.0000 0.05310  0.07730  0.09950  Biso   1.000  Ga
  P13      1.0000 0.35790  0.67760  0.09530  Biso   1.000  P
  P14      1.0000 0.05920  0.92660  0.90370  Biso   1.000  P
  P15      1.0000 0.25390  0.43500  0.88840  Biso   1.000  P
  P16      1.0000 0.19610  0.72880  0.11480  Biso   1.000  P
  F7       1.0000 0.26660  0.64630  0.90930  Biso   1.000  F
  F8       1.0000 0.21640  0.76940  0.82130  Biso   1.000  F
  O49      1.0000 0.33860  0.74340  0.01310  Biso   1.000  O
  O50      1.0000 0.37260  0.70490  0.23280  Biso   1.000  O
  O51      1.0000 0.40570  0.64710  0.02980  Biso   1.000  O
  O52      1.0000 0.32230  0.60930  0.11130  Biso   1.000  O
  O53      1.0000 0.09740  0.87190  0.95220  Biso   1.000  O
  O54      1.0000 0.05740  0.99660  0.99090  Biso   1.000  O
  O55      1.0000 0.00900  0.88670  0.90500  Biso   1.000  O
  O56      1.0000 0.07060  0.95550  0.76300  Biso   1.000  O
  O57      1.0000 0.21670  0.37170  0.90880  Biso   1.000  O
  O58      1.0000 0.24050  0.49930  0.98470  Biso   1.000  O
  O59      1.0000 0.25260  0.46710  0.74780  Biso   1.000  O
  O60      1.0000 0.30680  0.40950  0.92110  Biso   1.000  O
  O61      1.0000 0.24370  0.76850  0.07320  Biso   1.000  O
  O62      1.0000 0.20140  0.64090  0.10680  Biso   1.000  O
  O63      1.0000 0.18320  0.75400  0.25470  Biso   1.000  O
  O64      1.0000 0.15230  0.75420  0.02770  Biso   1.000  O
  Ga17     1.0000 0.34350  0.32230  0.88960  Biso   1.000  Ga
  Ga18     1.0000 0.22020  0.26030  0.91140  Biso   1.000  Ga
  Ga19     1.0000 0.24260  0.08670  0.07490  Biso   1.000  Ga
  Ga20     1.0000 0.44690  0.57730  0.09950  Biso   1.000  Ga
  P17      1.0000 0.14210  0.17760  0.09530  Biso   1.000  P
  P18      1.0000 0.44080  0.42660  0.90370  Biso   1.000  P
  P19      1.0000 0.24610  0.93500  0.88840  Biso   1.000  P
  P20      1.0000 0.30390  0.22880  0.11480  Biso   1.000  P
  F9       1.0000 0.23340  0.14630  0.90930  Biso   1.000  F
  F10      1.0000 0.28360  0.26940  0.82130  Biso   1.000  F
  O65      1.0000 0.16140  0.24340  0.01310  Biso   1.000  O
  O66      1.0000 0.12740  0.20490  0.23280  Biso   1.000  O
  O67      1.0000 0.09430  0.14710  0.02980  Biso   1.000  O
  O68      1.0000 0.17770  0.10930  0.11130  Biso   1.000  O
  O69      1.0000 0.40260  0.37190  0.95220  Biso   1.000  O
  O70      1.0000 0.44260  0.49660  0.99090  Biso   1.000  O
  O71      1.0000 0.49100  0.38670  0.90500  Biso   1.000  O
  O72      1.0000 0.42940  0.45550  0.76300  Biso   1.000  O
  O73      1.0000 0.28330  0.87170  0.90880  Biso   1.000  O
  O74      1.0000 0.25950  0.99930  0.98470  Biso   1.000  O
  O75      1.0000 0.24740  0.96710  0.74780  Biso   1.000  O
  O76      1.0000 0.19320  0.90950  0.92110  Biso   1.000  O
  O77      1.0000 0.25630  0.26850  0.07320  Biso   1.000  O
  O78      1.0000 0.29860  0.14090  0.10680  Biso   1.000  O
  O79      1.0000 0.31680  0.25400  0.25470  Biso   1.000  O
  O80      1.0000 0.34770  0.25420  0.02770  Biso   1.000  O
  Ga21     1.0000 0.15650  0.17770  0.38960  Biso   1.000  Ga
  Ga22     1.0000 0.27980  0.23970  0.41140  Biso   1.000  Ga
  Ga23     1.0000 0.25740  0.41330  0.57490  Biso   1.000  Ga
  Ga24     1.0000 0.05310  0.92270  0.59950  Biso   1.000  Ga
  P21      1.0000 0.35790  0.32240  0.59530  Biso   1.000  P
  P22      1.0000 0.05920  0.07340  0.40370  Biso   1.000  P
  P23      1.0000 0.25390  0.56500  0.38840  Biso   1.000  P
  P24      1.0000 0.19610  0.27120  0.61480  Biso   1.000  P
  F11      1.0000 0.26660  0.35370  0.40930  Biso   1.000  F
  F12      1.0000 0.21640  0.23060  0.32130  Biso   1.000  F
  O81      1.0000 0.33860  0.25660  0.51310  Biso   1.000  O
  O82      1.0000 0.37260  0.29510  0.73280  Biso   1.000  O
  O83      1.0000 0.40570  0.35290  0.52980  Biso   1.000  O
  O84      1.0000 0.32230  0.39070  0.61130  Biso   1.000  O
  O85      1.0000 0.09740  0.12810  0.45220  Biso   1.000  O
  O86      1.0000 0.05740  0.00340  0.49090  Biso   1.000  O
  O87      1.0000 0.00900  0.11330  0.40500  Biso   1.000  O
  O88      1.0000 0.07060  0.04450  0.26300  Biso   1.000  O
  O89      1.0000 0.21670  0.62830  0.40880  Biso   1.000  O
  O90      1.0000 0.24050  0.50070  0.48470  Biso   1.000  O
  O91      1.0000 0.25260  0.53290  0.24780  Biso   1.000  O
  O92      1.0000 0.30680  0.59050  0.42110  Biso   1.000  O
  O93      1.0000 0.24370  0.23150  0.57320  Biso   1.000  O
  O94      1.0000 0.20140  0.35910  0.60680  Biso   1.000  O
  O95      1.0000 0.18320  0.24600  0.75470  Biso   1.000  O
  O96      1.0000 0.15230  0.24580  0.52770  Biso   1.000  O
  Ga25     1.0000 0.65650  0.32230  0.61040  Biso   1.000  Ga
  Ga26     1.0000 0.77980  0.26030  0.58860  Biso   1.000  Ga
  Ga27     1.0000 0.75740  0.08670  0.42510  Biso   1.000  Ga
  Ga28     1.0000 0.55310  0.57730  0.40050  Biso   1.000  Ga
  P25      1.0000 0.85790  0.17760  0.40470  Biso   1.000  P
  P26      1.0000 0.55920  0.42660  0.59630  Biso   1.000  P
  P27      1.0000 0.75390  0.93500  0.61160  Biso   1.000  P
  P28      1.0000 0.69610  0.22880  0.38520  Biso   1.000  P
  F13      1.0000 0.76660  0.14630  0.59070  Biso   1.000  F
  F14      1.0000 0.71640  0.26940  0.67870  Biso   1.000  F
  O97      1.0000 0.83860  0.24340  0.48690  Biso   1.000  O
  O98      1.0000 0.87260  0.20490  0.26720  Biso   1.000  O
  O99      1.0000 0.90570  0.14710  0.47020  Biso   1.000  O
  O100     1.0000 0.82230  0.10930  0.38870  Biso   1.000  O
  O101     1.0000 0.59740  0.37190  0.54780  Biso   1.000  O
  O102     1.0000 0.55740  0.49660  0.50910  Biso   1.000  O
  O103     1.0000 0.50900  0.38670  0.59500  Biso   1.000  O
  O104     1.0000 0.57060  0.45550  0.73700  Biso   1.000  O
  O105     1.0000 0.71670  0.87170  0.59120  Biso   1.000  O
  O106     1.0000 0.74050  0.99930  0.51530  Biso   1.000  O
  O107     1.0000 0.75260  0.96710  0.75220  Biso   1.000  O
  O108     1.0000 0.80680  0.90950  0.57890  Biso   1.000  O
  O109     1.0000 0.74370  0.26850  0.42680  Biso   1.000  O
  O110     1.0000 0.70140  0.14090  0.39320  Biso   1.000  O
  O111     1.0000 0.68320  0.25400  0.24530  Biso   1.000  O
  O112     1.0000 0.65230  0.25420  0.47230  Biso   1.000  O
  Ga29     1.0000 0.84350  0.17770  0.11040  Biso   1.000  Ga
  Ga30     1.0000 0.72020  0.23970  0.08860  Biso   1.000  Ga
  Ga31     1.0000 0.74260  0.41330  0.92510  Biso   1.000  Ga
  Ga32     1.0000 0.94690  0.92270  0.90050  Biso   1.000  Ga
  P29      1.0000 0.64210  0.32240  0.90470  Biso   1.000  P
  P30      1.0000 0.94080  0.07340  0.09630  Biso   1.000  P
  P31      1.0000 0.74610  0.56500  0.11160  Biso   1.000  P
  P32      1.0000 0.80390  0.27120  0.88520  Biso   1.000  P
  F15      1.0000 0.73340  0.35370  0.09070  Biso   1.000  F
  F16      1.0000 0.78360  0.23060  0.17870  Biso   1.000  F
  O113     1.0000 0.66140  0.25660  0.98690  Biso   1.000  O
  O114     1.0000 0.62740  0.29510  0.76720  Biso   1.000  O
  O115     1.0000 0.59430  0.35290  0.97020  Biso   1.000  O
  O116     1.0000 0.67770  0.39070  0.88870  Biso   1.000  O
  O117     1.0000 0.90260  0.12810  0.04780  Biso   1.000  O
  O118     1.0000 0.94260  0.00340  0.00910  Biso   1.000  O
  O119     1.0000 0.99100  0.11330  0.09500  Biso   1.000  O
  O120     1.0000 0.92940  0.04450  0.23700  Biso   1.000  O
  O121     1.0000 0.78330  0.62830  0.09120  Biso   1.000  O
  O122     1.0000 0.75950  0.50070  0.01530  Biso   1.000  O
  O123     1.0000 0.74740  0.53290  0.25220  Biso   1.000  O
  O124     1.0000 0.69320  0.59050  0.07890  Biso   1.000  O
  O125     1.0000 0.75630  0.23150  0.92680  Biso   1.000  O
  O126     1.0000 0.79860  0.35910  0.89320  Biso   1.000  O
  O127     1.0000 0.81680  0.24600  0.74530  Biso   1.000  O
  O128     1.0000 0.84770  0.24580  0.97230  Biso   1.000  O
