data_TETZID_clean
_audit_creation_date              2014-07-02
_audit_creation_method            'Materials Studio'
_symmetry_space_group_name_H-M    'P1'
_symmetry_Int_Tables_number       1
_symmetry_cell_setting            triclinic
loop_
_symmetry_equiv_pos_as_xyz
  x,y,z
_cell_length_a                    14.9256
_cell_length_b                    19.5406
_cell_length_c                    20.3874
_cell_angle_alpha                 90.0000
_cell_angle_beta                  94.3790
_cell_angle_gamma                 90.0000
loop_
_atom_site_label
_atom_site_type_symbol
_atom_site_fract_x
_atom_site_fract_y
_atom_site_fract_z
_atom_site_U_iso_or_equiv
_atom_site_adp_type
_atom_site_occupancy
Cd1    Cd    0.37334   0.45283   0.66783   0.01267  Uiso   1.00
Cd2    Cd    0.14328   0.54668   0.67247   0.01267  Uiso   1.00
H1     H     0.38040   0.52060   0.33680   0.01267  Uiso   1.00
H2     H     0.35200   0.41670   0.00110   0.01267  Uiso   1.00
H3     H     0.10450   0.48110   0.33950   0.01267  Uiso   1.00
H4     H     0.16970   0.57930   0.01000   0.01267  Uiso   1.00
H5     H     0.34940   0.55910   0.24090   0.01267  Uiso   1.00
H6     H     0.36630   0.58330   0.13110   0.01267  Uiso   1.00
H7     H     0.38680   0.38750   0.09070   0.01267  Uiso   1.00
H8     H     0.36810   0.36050   0.20110   0.01267  Uiso   1.00
H9     H     0.40120   0.55590   0.54940   0.01267  Uiso   1.00
H10    H     0.39710   0.56770   0.43940   0.01267  Uiso   1.00
H11    H     0.32600   0.37100   0.42130   0.01267  Uiso   1.00
H12    H     0.32980   0.36660   0.53360   0.01267  Uiso   1.00
H13    H     0.41400   0.54730   0.79470   0.01267  Uiso   1.00
H14    H     0.41010   0.55320   0.90610   0.01267  Uiso   1.00
H15    H     0.32150   0.36310   0.90010   0.01267  Uiso   1.00
H16    H     0.32730   0.36200   0.79030   0.01267  Uiso   1.00
H17    H     0.11300   0.63950   0.20520   0.01267  Uiso   1.00
H18    H     0.10780   0.61340   0.09210   0.01267  Uiso   1.00
H19    H     0.11850   0.41640   0.13640   0.01267  Uiso   1.00
H20    H     0.12610   0.44230   0.24770   0.01267  Uiso   1.00
H21    H     0.16530   0.63480   0.54160   0.01267  Uiso   1.00
H22    H     0.16340   0.63090   0.42850   0.01267  Uiso   1.00
H23    H     0.09440   0.43350   0.44140   0.01267  Uiso   1.00
H24    H     0.09800   0.44520   0.55150   0.01267  Uiso   1.00
H25    H     0.20090   0.63340   0.80180   0.01267  Uiso   1.00
H26    H     0.19580   0.63410   0.91310   0.01267  Uiso   1.00
H27    H     0.10270   0.44620   0.90590   0.01267  Uiso   1.00
H28    H     0.11140   0.44940   0.79360   0.01267  Uiso   1.00
H29    H     0.26450   0.71820   0.65640   0.01267  Uiso   1.00
H30    H     0.33500   0.83120   0.65110   0.01267  Uiso   1.00
H31    H     0.24830   0.28240   0.65460   0.01267  Uiso   1.00
H32    H     0.17810   0.16890   0.65380   0.01267  Uiso   1.00
C1     C     0.34090   0.43370   0.30070   0.01267  Uiso   1.00
C2     C     0.37880   0.50670   0.02910   0.01267  Uiso   1.00
C3     C     0.35660   0.45740   0.23190   0.01267  Uiso   1.00
C4     C     0.35580   0.52360   0.21120   0.01267  Uiso   1.00
C5     C     0.36480   0.53780   0.14440   0.01267  Uiso   1.00
C6     C     0.37130   0.48870   0.09930   0.01267  Uiso   1.00
C7     C     0.37670   0.42220   0.12050   0.01267  Uiso   1.00
C8     C     0.36720   0.40590   0.18740   0.01267  Uiso   1.00
C9     C     0.38430   0.51840   0.52340   0.01267  Uiso   1.00
C10    C     0.38300   0.52570   0.45750   0.01267  Uiso   1.00
C11    C     0.36090   0.47070   0.41700   0.01267  Uiso   1.00
C12    C     0.34070   0.40970   0.44630   0.01267  Uiso   1.00
C13    C     0.34310   0.40800   0.51400   0.01267  Uiso   1.00
C14    C     0.39530   0.50870   0.81650   0.01267  Uiso   1.00
C15    C     0.39350   0.51290   0.88410   0.01267  Uiso   1.00
C16    C     0.36760   0.45800   0.91760   0.01267  Uiso   1.00
C17    C     0.34190   0.40190   0.87950   0.01267  Uiso   1.00
C18    C     0.34520   0.40140   0.81320   0.01267  Uiso   1.00
C19    C     0.14390   0.56640   0.30710   0.01267  Uiso   1.00
C20    C     0.11630   0.49490   0.03240   0.01267  Uiso   1.00
C21    C     0.12840   0.54330   0.23660   0.01267  Uiso   1.00
C22    C     0.11760   0.59430   0.19150   0.01267  Uiso   1.00
C23    C     0.11320   0.57850   0.12320   0.01267  Uiso   1.00
C24    C     0.11700   0.51190   0.10330   0.01267  Uiso   1.00
C25    C     0.11990   0.46190   0.14960   0.01267  Uiso   1.00
C26    C     0.12500   0.47740   0.21680   0.01267  Uiso   1.00
C27    C     0.15170   0.59330   0.52090   0.01267  Uiso   1.00
C28    C     0.15050   0.59210   0.45240   0.01267  Uiso   1.00
C29    C     0.12890   0.53000   0.42130   0.01267  Uiso   1.00
C30    C     0.10960   0.47560   0.46040   0.01267  Uiso   1.00
C31    C     0.11270   0.48300   0.52680   0.01267  Uiso   1.00
C32    C     0.17890   0.59490   0.82210   0.01267  Uiso   1.00
C33    C     0.17630   0.59540   0.88960   0.01267  Uiso   1.00
C34    C     0.14520   0.53980   0.92290   0.01267  Uiso   1.00
C35    C     0.12220   0.48590   0.88630   0.01267  Uiso   1.00
C36    C     0.12700   0.48850   0.81790   0.01267  Uiso   1.00
C37    C     0.37110   0.59900   0.66910   0.01267  Uiso   1.00
C38    C     0.99150   0.15480   0.66630   0.01267  Uiso   1.00
C39    C     0.38620   0.67390   0.66560   0.01267  Uiso   1.00
C40    C     0.32630   0.72500   0.65920   0.01267  Uiso   1.00
C41    C     0.36710   0.79060   0.65730   0.01267  Uiso   1.00
C42    C     0.45760   0.78740   0.66540   0.01267  Uiso   1.00
C43    C     0.14500   0.40020   0.66900   0.01267  Uiso   1.00
C44    C     0.52380   0.84520   0.67050   0.01267  Uiso   1.00
C45    C     0.12790   0.32660   0.66540   0.01267  Uiso   1.00
C46    C     0.18730   0.27540   0.65840   0.01267  Uiso   1.00
C47    C     0.14670   0.20970   0.65760   0.01267  Uiso   1.00
C48    C     0.05790   0.21320   0.66300   0.01267  Uiso   1.00
S1     S     0.02116   0.29566   0.66976   0.01267  Uiso   1.00
S2     S     0.49487   0.70444   0.67159   0.01267  Uiso   1.00
N1     N     0.36330   0.48100   0.34920   0.01267  Uiso   1.00
N2     N     0.36280   0.46080   0.55340   0.01267  Uiso   1.00
N3     N     0.36460   0.45590   0.98500   0.01267  Uiso   1.00
N4     N     0.37240   0.45410   0.78000   0.01267  Uiso   1.00
N5     N     0.12320   0.52050   0.35360   0.01267  Uiso   1.00
N6     N     0.13510   0.54060   0.55910   0.01267  Uiso   1.00
N7     N     0.14690   0.54300   0.99170   0.01267  Uiso   1.00
N8     N     0.15230   0.54330   0.78570   0.01267  Uiso   1.00
O1     O     0.30640   0.37970   0.31115   0.01267  Uiso   1.00
O2     O     0.39790   0.56370   0.01290   0.01267  Uiso   1.00
O3     O     0.17510   0.62210   0.32060   0.01267  Uiso   1.00
O4     O     0.09190   0.43680   0.01320   0.01267  Uiso   1.00
O5     O     0.22180   0.42430   0.66590   0.01267  Uiso   1.00
O6     O     0.07610   0.43886   0.67430   0.01267  Uiso   1.00
O7     O     0.91050   0.16795   0.66870   0.01267  Uiso   1.00
O8     O     0.02110   0.09537   0.66395   0.01267  Uiso   1.00
O9     O     0.29260   0.57783   0.66770   0.01267  Uiso   1.00
O10    O     0.43820   0.56127   0.67300   0.01267  Uiso   1.00
O11    O     0.60570   0.83295   0.67330   0.01267  Uiso   1.00
O12    O     0.49260   0.90509   0.66777   0.01267  Uiso   1.00
Cd3    Cd    0.12666   0.95283   0.33217   0.01267  Uiso   1.00
Cd4    Cd    0.35672   0.04668   0.32753   0.01267  Uiso   1.00
H33    H     0.11960   0.02060   0.66320   0.01267  Uiso   1.00
H34    H     0.14800   0.91670   0.99890   0.01267  Uiso   1.00
H35    H     0.39550   0.98110   0.66050   0.01267  Uiso   1.00
H36    H     0.33030   0.07930   0.99000   0.01267  Uiso   1.00
H37    H     0.15060   0.05910   0.75910   0.01267  Uiso   1.00
H38    H     0.13370   0.08330   0.86890   0.01267  Uiso   1.00
H39    H     0.11320   0.88750   0.90930   0.01267  Uiso   1.00
H40    H     0.13190   0.86050   0.79890   0.01267  Uiso   1.00
H41    H     0.09880   0.05590   0.45060   0.01267  Uiso   1.00
H42    H     0.10290   0.06770   0.56060   0.01267  Uiso   1.00
H43    H     0.17400   0.87100   0.57870   0.01267  Uiso   1.00
H44    H     0.17020   0.86660   0.46640   0.01267  Uiso   1.00
H45    H     0.08600   0.04730   0.20530   0.01267  Uiso   1.00
H46    H     0.08990   0.05320   0.09390   0.01267  Uiso   1.00
H47    H     0.17850   0.86310   0.09990   0.01267  Uiso   1.00
H48    H     0.17270   0.86200   0.20970   0.01267  Uiso   1.00
H49    H     0.38700   0.13950   0.79480   0.01267  Uiso   1.00
H50    H     0.39220   0.11340   0.90790   0.01267  Uiso   1.00
H51    H     0.38150   0.91640   0.86360   0.01267  Uiso   1.00
H52    H     0.37390   0.94230   0.75230   0.01267  Uiso   1.00
H53    H     0.33470   0.13480   0.45840   0.01267  Uiso   1.00
H54    H     0.33660   0.13090   0.57150   0.01267  Uiso   1.00
H55    H     0.40560   0.93350   0.55860   0.01267  Uiso   1.00
H56    H     0.40200   0.94520   0.44850   0.01267  Uiso   1.00
H57    H     0.29910   0.13340   0.19820   0.01267  Uiso   1.00
H58    H     0.30420   0.13410   0.08690   0.01267  Uiso   1.00
H59    H     0.39730   0.94620   0.09410   0.01267  Uiso   1.00
H60    H     0.38860   0.94940   0.20640   0.01267  Uiso   1.00
H61    H     0.23550   0.21820   0.34360   0.01267  Uiso   1.00
H62    H     0.16500   0.33120   0.34890   0.01267  Uiso   1.00
H63    H     0.25170   0.78240   0.34540   0.01267  Uiso   1.00
H64    H     0.32190   0.66890   0.34620   0.01267  Uiso   1.00
C49    C     0.15910   0.93370   0.69930   0.01267  Uiso   1.00
C50    C     0.12120   0.00670   0.97090   0.01267  Uiso   1.00
C51    C     0.14340   0.95740   0.76810   0.01267  Uiso   1.00
C52    C     0.14420   0.02360   0.78880   0.01267  Uiso   1.00
C53    C     0.13520   0.03780   0.85560   0.01267  Uiso   1.00
C54    C     0.12870   0.98870   0.90070   0.01267  Uiso   1.00
C55    C     0.12330   0.92220   0.87950   0.01267  Uiso   1.00
C56    C     0.13280   0.90590   0.81260   0.01267  Uiso   1.00
C57    C     0.11570   0.01840   0.47660   0.01267  Uiso   1.00
C58    C     0.11700   0.02570   0.54250   0.01267  Uiso   1.00
C59    C     0.13910   0.97070   0.58300   0.01267  Uiso   1.00
C60    C     0.15930   0.90970   0.55370   0.01267  Uiso   1.00
C61    C     0.15690   0.90800   0.48600   0.01267  Uiso   1.00
C62    C     0.10470   0.00870   0.18350   0.01267  Uiso   1.00
C63    C     0.10650   0.01290   0.11590   0.01267  Uiso   1.00
C64    C     0.13240   0.95800   0.08240   0.01267  Uiso   1.00
C65    C     0.15810   0.90190   0.12050   0.01267  Uiso   1.00
C66    C     0.15480   0.90140   0.18680   0.01267  Uiso   1.00
C67    C     0.35610   0.06640   0.69290   0.01267  Uiso   1.00
C68    C     0.38370   0.99490   0.96760   0.01267  Uiso   1.00
C69    C     0.37160   0.04330   0.76340   0.01267  Uiso   1.00
C70    C     0.38240   0.09430   0.80850   0.01267  Uiso   1.00
C71    C     0.38680   0.07850   0.87680   0.01267  Uiso   1.00
C72    C     0.38300   0.01190   0.89670   0.01267  Uiso   1.00
C73    C     0.38010   0.96190   0.85040   0.01267  Uiso   1.00
C74    C     0.37500   0.97740   0.78320   0.01267  Uiso   1.00
C75    C     0.34830   0.09330   0.47910   0.01267  Uiso   1.00
C76    C     0.34950   0.09210   0.54760   0.01267  Uiso   1.00
C77    C     0.37110   0.03000   0.57870   0.01267  Uiso   1.00
C78    C     0.39040   0.97560   0.53960   0.01267  Uiso   1.00
C79    C     0.38730   0.98300   0.47320   0.01267  Uiso   1.00
C80    C     0.32110   0.09490   0.17790   0.01267  Uiso   1.00
C81    C     0.32370   0.09540   0.11040   0.01267  Uiso   1.00
C82    C     0.35480   0.03980   0.07710   0.01267  Uiso   1.00
C83    C     0.37780   0.98590   0.11370   0.01267  Uiso   1.00
C84    C     0.37300   0.98850   0.18210   0.01267  Uiso   1.00
C85    C     0.12890   0.09900   0.33090   0.01267  Uiso   1.00
C86    C     0.50850   0.65480   0.33370   0.01267  Uiso   1.00
C87    C     0.11380   0.17390   0.33440   0.01267  Uiso   1.00
C88    C     0.17370   0.22500   0.34080   0.01267  Uiso   1.00
C89    C     0.13290   0.29060   0.34270   0.01267  Uiso   1.00
C90    C     0.04240   0.28740   0.33460   0.01267  Uiso   1.00
C91    C     0.35500   0.90020   0.33100   0.01267  Uiso   1.00
C92    C     0.97620   0.34520   0.32950   0.01267  Uiso   1.00
C93    C     0.37210   0.82660   0.33460   0.01267  Uiso   1.00
C94    C     0.31270   0.77540   0.34160   0.01267  Uiso   1.00
C95    C     0.35330   0.70970   0.34240   0.01267  Uiso   1.00
C96    C     0.44210   0.71320   0.33700   0.01267  Uiso   1.00
S3     S     0.47884   0.79566   0.33024   0.01267  Uiso   1.00
S4     S     0.00513   0.20444   0.32841   0.01267  Uiso   1.00
N9     N     0.13670   0.98100   0.65080   0.01267  Uiso   1.00
N10    N     0.13720   0.96080   0.44660   0.01267  Uiso   1.00
N11    N     0.13540   0.95590   0.01500   0.01267  Uiso   1.00
N12    N     0.12760   0.95410   0.22000   0.01267  Uiso   1.00
N13    N     0.37680   0.02050   0.64640   0.01267  Uiso   1.00
N14    N     0.36490   0.04060   0.44090   0.01267  Uiso   1.00
N15    N     0.35310   0.04300   0.00830   0.01267  Uiso   1.00
N16    N     0.34770   0.04330   0.21430   0.01267  Uiso   1.00
O13    O     0.19360   0.87970   0.68885   0.01267  Uiso   1.00
O14    O     0.10210   0.06370   0.98710   0.01267  Uiso   1.00
O15    O     0.32490   0.12210   0.67940   0.01267  Uiso   1.00
O16    O     0.40810   0.93680   0.98680   0.01267  Uiso   1.00
O17    O     0.27820   0.92430   0.33410   0.01267  Uiso   1.00
O18    O     0.42390   0.93886   0.32570   0.01267  Uiso   1.00
O19    O     0.58950   0.66795   0.33130   0.01267  Uiso   1.00
O20    O     0.47890   0.59537   0.33605   0.01267  Uiso   1.00
O21    O     0.20740   0.07783   0.33230   0.01267  Uiso   1.00
O22    O     0.06180   0.06127   0.32700   0.01267  Uiso   1.00
O23    O     0.89430   0.33295   0.32670   0.01267  Uiso   1.00
O24    O     0.00740   0.40509   0.33223   0.01267  Uiso   1.00
Cd5    Cd    0.62666   0.54717   0.33217   0.01267  Uiso   1.00
Cd6    Cd    0.85672   0.45332   0.32753   0.01267  Uiso   1.00
H65    H     0.61960   0.47940   0.66320   0.01267  Uiso   1.00
H66    H     0.64800   0.58330   0.99890   0.01267  Uiso   1.00
H67    H     0.89550   0.51890   0.66050   0.01267  Uiso   1.00
H68    H     0.83030   0.42070   0.99000   0.01267  Uiso   1.00
H69    H     0.65060   0.44090   0.75910   0.01267  Uiso   1.00
H70    H     0.63370   0.41670   0.86890   0.01267  Uiso   1.00
H71    H     0.61320   0.61250   0.90930   0.01267  Uiso   1.00
H72    H     0.63190   0.63950   0.79890   0.01267  Uiso   1.00
H73    H     0.59880   0.44410   0.45060   0.01267  Uiso   1.00
H74    H     0.60290   0.43230   0.56060   0.01267  Uiso   1.00
H75    H     0.67400   0.62900   0.57870   0.01267  Uiso   1.00
H76    H     0.67020   0.63340   0.46640   0.01267  Uiso   1.00
H77    H     0.58600   0.45270   0.20530   0.01267  Uiso   1.00
H78    H     0.58990   0.44680   0.09390   0.01267  Uiso   1.00
H79    H     0.67850   0.63690   0.09990   0.01267  Uiso   1.00
H80    H     0.67270   0.63800   0.20970   0.01267  Uiso   1.00
H81    H     0.88700   0.36050   0.79480   0.01267  Uiso   1.00
H82    H     0.89220   0.38660   0.90790   0.01267  Uiso   1.00
H83    H     0.88150   0.58360   0.86360   0.01267  Uiso   1.00
H84    H     0.87390   0.55770   0.75230   0.01267  Uiso   1.00
H85    H     0.83470   0.36520   0.45840   0.01267  Uiso   1.00
H86    H     0.83660   0.36910   0.57150   0.01267  Uiso   1.00
H87    H     0.90560   0.56650   0.55860   0.01267  Uiso   1.00
H88    H     0.90200   0.55480   0.44850   0.01267  Uiso   1.00
H89    H     0.79910   0.36660   0.19820   0.01267  Uiso   1.00
H90    H     0.80420   0.36590   0.08690   0.01267  Uiso   1.00
H91    H     0.89730   0.55380   0.09410   0.01267  Uiso   1.00
H92    H     0.88860   0.55060   0.20640   0.01267  Uiso   1.00
H93    H     0.73550   0.28180   0.34360   0.01267  Uiso   1.00
H94    H     0.66500   0.16880   0.34890   0.01267  Uiso   1.00
H95    H     0.75170   0.71760   0.34540   0.01267  Uiso   1.00
H96    H     0.82190   0.83110   0.34620   0.01267  Uiso   1.00
C97    C     0.65910   0.56630   0.69930   0.01267  Uiso   1.00
C98    C     0.62120   0.49330   0.97090   0.01267  Uiso   1.00
C99    C     0.64340   0.54260   0.76810   0.01267  Uiso   1.00
C100   C     0.64420   0.47640   0.78880   0.01267  Uiso   1.00
C101   C     0.63520   0.46220   0.85560   0.01267  Uiso   1.00
C102   C     0.62870   0.51130   0.90070   0.01267  Uiso   1.00
C103   C     0.62330   0.57780   0.87950   0.01267  Uiso   1.00
C104   C     0.63280   0.59410   0.81260   0.01267  Uiso   1.00
C105   C     0.61570   0.48160   0.47660   0.01267  Uiso   1.00
C106   C     0.61700   0.47430   0.54250   0.01267  Uiso   1.00
C107   C     0.63910   0.52930   0.58300   0.01267  Uiso   1.00
C108   C     0.65930   0.59030   0.55370   0.01267  Uiso   1.00
C109   C     0.65690   0.59200   0.48600   0.01267  Uiso   1.00
C110   C     0.60470   0.49130   0.18350   0.01267  Uiso   1.00
C111   C     0.60650   0.48710   0.11590   0.01267  Uiso   1.00
C112   C     0.63240   0.54200   0.08240   0.01267  Uiso   1.00
C113   C     0.65810   0.59810   0.12050   0.01267  Uiso   1.00
C114   C     0.65480   0.59860   0.18680   0.01267  Uiso   1.00
C115   C     0.85610   0.43360   0.69290   0.01267  Uiso   1.00
C116   C     0.88370   0.50510   0.96760   0.01267  Uiso   1.00
C117   C     0.87160   0.45670   0.76340   0.01267  Uiso   1.00
C118   C     0.88240   0.40570   0.80850   0.01267  Uiso   1.00
C119   C     0.88680   0.42150   0.87680   0.01267  Uiso   1.00
C120   C     0.88300   0.48810   0.89670   0.01267  Uiso   1.00
C121   C     0.88010   0.53810   0.85040   0.01267  Uiso   1.00
C122   C     0.87500   0.52260   0.78320   0.01267  Uiso   1.00
C123   C     0.84830   0.40670   0.47910   0.01267  Uiso   1.00
C124   C     0.84950   0.40790   0.54760   0.01267  Uiso   1.00
C125   C     0.87110   0.47000   0.57870   0.01267  Uiso   1.00
C126   C     0.89040   0.52440   0.53960   0.01267  Uiso   1.00
C127   C     0.88730   0.51700   0.47320   0.01267  Uiso   1.00
C128   C     0.82110   0.40510   0.17790   0.01267  Uiso   1.00
C129   C     0.82370   0.40460   0.11040   0.01267  Uiso   1.00
C130   C     0.85480   0.46020   0.07710   0.01267  Uiso   1.00
C131   C     0.87780   0.51410   0.11370   0.01267  Uiso   1.00
C132   C     0.87300   0.51150   0.18210   0.01267  Uiso   1.00
C133   C     0.62890   0.40100   0.33090   0.01267  Uiso   1.00
C134   C     0.00850   0.84520   0.33370   0.01267  Uiso   1.00
C135   C     0.61380   0.32610   0.33440   0.01267  Uiso   1.00
C136   C     0.67370   0.27500   0.34080   0.01267  Uiso   1.00
C137   C     0.63290   0.20940   0.34270   0.01267  Uiso   1.00
C138   C     0.54240   0.21260   0.33460   0.01267  Uiso   1.00
C139   C     0.85500   0.59980   0.33100   0.01267  Uiso   1.00
C140   C     0.47620   0.15480   0.32950   0.01267  Uiso   1.00
C141   C     0.87210   0.67340   0.33460   0.01267  Uiso   1.00
C142   C     0.81270   0.72460   0.34160   0.01267  Uiso   1.00
C143   C     0.85330   0.79030   0.34240   0.01267  Uiso   1.00
C144   C     0.94210   0.78680   0.33700   0.01267  Uiso   1.00
S5     S     0.97884   0.70434   0.33024   0.01267  Uiso   1.00
S6     S     0.50513   0.29556   0.32841   0.01267  Uiso   1.00
N17    N     0.63670   0.51900   0.65080   0.01267  Uiso   1.00
N18    N     0.63720   0.53920   0.44660   0.01267  Uiso   1.00
N19    N     0.63540   0.54410   0.01500   0.01267  Uiso   1.00
N20    N     0.62760   0.54590   0.22000   0.01267  Uiso   1.00
N21    N     0.87680   0.47950   0.64640   0.01267  Uiso   1.00
N22    N     0.86490   0.45940   0.44090   0.01267  Uiso   1.00
N23    N     0.85310   0.45700   0.00830   0.01267  Uiso   1.00
N24    N     0.84770   0.45670   0.21430   0.01267  Uiso   1.00
O25    O     0.69360   0.62030   0.68885   0.01267  Uiso   1.00
O26    O     0.60210   0.43630   0.98710   0.01267  Uiso   1.00
O27    O     0.82490   0.37790   0.67940   0.01267  Uiso   1.00
O28    O     0.90810   0.56320   0.98680   0.01267  Uiso   1.00
O29    O     0.77820   0.57570   0.33410   0.01267  Uiso   1.00
O30    O     0.92390   0.56114   0.32570   0.01267  Uiso   1.00
O31    O     0.08950   0.83205   0.33130   0.01267  Uiso   1.00
O32    O     0.97890   0.90463   0.33605   0.01267  Uiso   1.00
O33    O     0.70740   0.42217   0.33230   0.01267  Uiso   1.00
O34    O     0.56180   0.43873   0.32700   0.01267  Uiso   1.00
O35    O     0.39430   0.16705   0.32670   0.01267  Uiso   1.00
O36    O     0.50740   0.09491   0.33223   0.01267  Uiso   1.00
Cd7    Cd    0.87334   0.04717   0.66783   0.01267  Uiso   1.00
Cd8    Cd    0.64328   0.95332   0.67247   0.01267  Uiso   1.00
H97    H     0.88040   0.97940   0.33680   0.01267  Uiso   1.00
H98    H     0.85200   0.08330   0.00110   0.01267  Uiso   1.00
H99    H     0.60450   0.01890   0.33950   0.01267  Uiso   1.00
H100   H     0.66970   0.92070   0.01000   0.01267  Uiso   1.00
H101   H     0.84940   0.94090   0.24090   0.01267  Uiso   1.00
H102   H     0.86630   0.91670   0.13110   0.01267  Uiso   1.00
H103   H     0.88680   0.11250   0.09070   0.01267  Uiso   1.00
H104   H     0.86810   0.13950   0.20110   0.01267  Uiso   1.00
H105   H     0.90120   0.94410   0.54940   0.01267  Uiso   1.00
H106   H     0.89710   0.93230   0.43940   0.01267  Uiso   1.00
H107   H     0.82600   0.12900   0.42130   0.01267  Uiso   1.00
H108   H     0.82980   0.13340   0.53360   0.01267  Uiso   1.00
H109   H     0.91400   0.95270   0.79470   0.01267  Uiso   1.00
H110   H     0.91010   0.94680   0.90610   0.01267  Uiso   1.00
H111   H     0.82150   0.13690   0.90010   0.01267  Uiso   1.00
H112   H     0.82730   0.13800   0.79030   0.01267  Uiso   1.00
H113   H     0.61300   0.86050   0.20520   0.01267  Uiso   1.00
H114   H     0.60780   0.88660   0.09210   0.01267  Uiso   1.00
H115   H     0.61850   0.08360   0.13640   0.01267  Uiso   1.00
H116   H     0.62610   0.05770   0.24770   0.01267  Uiso   1.00
H117   H     0.66530   0.86520   0.54160   0.01267  Uiso   1.00
H118   H     0.66340   0.86910   0.42850   0.01267  Uiso   1.00
H119   H     0.59440   0.06650   0.44140   0.01267  Uiso   1.00
H120   H     0.59800   0.05480   0.55150   0.01267  Uiso   1.00
H121   H     0.70090   0.86660   0.80180   0.01267  Uiso   1.00
H122   H     0.69580   0.86590   0.91310   0.01267  Uiso   1.00
H123   H     0.60270   0.05380   0.90590   0.01267  Uiso   1.00
H124   H     0.61140   0.05060   0.79360   0.01267  Uiso   1.00
H125   H     0.76450   0.78180   0.65640   0.01267  Uiso   1.00
H126   H     0.83500   0.66880   0.65110   0.01267  Uiso   1.00
H127   H     0.74830   0.21760   0.65460   0.01267  Uiso   1.00
H128   H     0.67810   0.33110   0.65380   0.01267  Uiso   1.00
C145   C     0.84090   0.06630   0.30070   0.01267  Uiso   1.00
C146   C     0.87880   0.99330   0.02910   0.01267  Uiso   1.00
C147   C     0.85660   0.04260   0.23190   0.01267  Uiso   1.00
C148   C     0.85580   0.97640   0.21120   0.01267  Uiso   1.00
C149   C     0.86480   0.96220   0.14440   0.01267  Uiso   1.00
C150   C     0.87130   0.01130   0.09930   0.01267  Uiso   1.00
C151   C     0.87670   0.07780   0.12050   0.01267  Uiso   1.00
C152   C     0.86720   0.09410   0.18740   0.01267  Uiso   1.00
C153   C     0.88430   0.98160   0.52340   0.01267  Uiso   1.00
C154   C     0.88300   0.97430   0.45750   0.01267  Uiso   1.00
C155   C     0.86090   0.02930   0.41700   0.01267  Uiso   1.00
C156   C     0.84070   0.09030   0.44630   0.01267  Uiso   1.00
C157   C     0.84310   0.09200   0.51400   0.01267  Uiso   1.00
C158   C     0.89530   0.99130   0.81650   0.01267  Uiso   1.00
C159   C     0.89350   0.98710   0.88410   0.01267  Uiso   1.00
C160   C     0.86760   0.04200   0.91760   0.01267  Uiso   1.00
C161   C     0.84190   0.09810   0.87950   0.01267  Uiso   1.00
C162   C     0.84520   0.09860   0.81320   0.01267  Uiso   1.00
C163   C     0.64390   0.93360   0.30710   0.01267  Uiso   1.00
C164   C     0.61630   0.00510   0.03240   0.01267  Uiso   1.00
C165   C     0.62840   0.95670   0.23660   0.01267  Uiso   1.00
C166   C     0.61760   0.90570   0.19150   0.01267  Uiso   1.00
C167   C     0.61320   0.92150   0.12320   0.01267  Uiso   1.00
C168   C     0.61700   0.98810   0.10330   0.01267  Uiso   1.00
C169   C     0.61990   0.03810   0.14960   0.01267  Uiso   1.00
C170   C     0.62500   0.02260   0.21680   0.01267  Uiso   1.00
C171   C     0.65170   0.90670   0.52090   0.01267  Uiso   1.00
C172   C     0.65050   0.90790   0.45240   0.01267  Uiso   1.00
C173   C     0.62890   0.97000   0.42130   0.01267  Uiso   1.00
C174   C     0.60960   0.02440   0.46040   0.01267  Uiso   1.00
C175   C     0.61270   0.01700   0.52680   0.01267  Uiso   1.00
C176   C     0.67890   0.90510   0.82210   0.01267  Uiso   1.00
C177   C     0.67630   0.90460   0.88960   0.01267  Uiso   1.00
C178   C     0.64520   0.96020   0.92290   0.01267  Uiso   1.00
C179   C     0.62220   0.01410   0.88630   0.01267  Uiso   1.00
C180   C     0.62700   0.01150   0.81790   0.01267  Uiso   1.00
C181   C     0.87110   0.90100   0.66910   0.01267  Uiso   1.00
C182   C     0.49150   0.34520   0.66630   0.01267  Uiso   1.00
C183   C     0.88620   0.82610   0.66560   0.01267  Uiso   1.00
C184   C     0.82630   0.77500   0.65920   0.01267  Uiso   1.00
C185   C     0.86710   0.70940   0.65730   0.01267  Uiso   1.00
C186   C     0.95760   0.71260   0.66540   0.01267  Uiso   1.00
C187   C     0.64500   0.09980   0.66900   0.01267  Uiso   1.00
C188   C     0.02380   0.65480   0.67050   0.01267  Uiso   1.00
C189   C     0.62790   0.17340   0.66540   0.01267  Uiso   1.00
C190   C     0.68730   0.22460   0.65840   0.01267  Uiso   1.00
C191   C     0.64670   0.29030   0.65760   0.01267  Uiso   1.00
C192   C     0.55790   0.28680   0.66300   0.01267  Uiso   1.00
S7     S     0.52116   0.20434   0.66976   0.01267  Uiso   1.00
S8     S     0.99487   0.79556   0.67159   0.01267  Uiso   1.00
N25    N     0.86330   0.01900   0.34920   0.01267  Uiso   1.00
N26    N     0.86280   0.03920   0.55340   0.01267  Uiso   1.00
N27    N     0.86460   0.04410   0.98500   0.01267  Uiso   1.00
N28    N     0.87240   0.04590   0.78000   0.01267  Uiso   1.00
N29    N     0.62320   0.97950   0.35360   0.01267  Uiso   1.00
N30    N     0.63510   0.95940   0.55910   0.01267  Uiso   1.00
N31    N     0.64690   0.95700   0.99170   0.01267  Uiso   1.00
N32    N     0.65230   0.95670   0.78570   0.01267  Uiso   1.00
O37    O     0.80640   0.12030   0.31115   0.01267  Uiso   1.00
O38    O     0.89790   0.93630   0.01290   0.01267  Uiso   1.00
O39    O     0.67510   0.87790   0.32060   0.01267  Uiso   1.00
O40    O     0.59190   0.06320   0.01320   0.01267  Uiso   1.00
O41    O     0.72180   0.07570   0.66590   0.01267  Uiso   1.00
O42    O     0.57610   0.06114   0.67430   0.01267  Uiso   1.00
O43    O     0.41050   0.33205   0.66870   0.01267  Uiso   1.00
O44    O     0.52110   0.40463   0.66395   0.01267  Uiso   1.00
O45    O     0.79260   0.92217   0.66770   0.01267  Uiso   1.00
O46    O     0.93820   0.93873   0.67300   0.01267  Uiso   1.00
O47    O     0.10570   0.66705   0.67330   0.01267  Uiso   1.00
O48    O     0.99260   0.59491   0.66777   0.01267  Uiso   1.00
