data_TEWFUY_clean
_audit_creation_date              2014-07-02
_audit_creation_method            'Materials Studio'
_symmetry_space_group_name_H-M    'P1'
_symmetry_Int_Tables_number       1
_symmetry_cell_setting            triclinic
loop_
_symmetry_equiv_pos_as_xyz
  x,y,z
_cell_length_a                    14.9179
_cell_length_b                    16.7660
_cell_length_c                    17.8057
_cell_angle_alpha                 61.9134
_cell_angle_beta                  65.2343
_cell_angle_gamma                 90.0000
loop_
_atom_site_label
_atom_site_type_symbol
_atom_site_fract_x
_atom_site_fract_y
_atom_site_fract_z
_atom_site_U_iso_or_equiv
_atom_site_adp_type
_atom_site_occupancy
Cu1    Cu    0.00000   0.00000   0.50000   0.01267  Uiso   1.00
Cu2    Cu    0.50000   0.00000   0.50000   0.01267  Uiso   1.00
H1     H     0.97610   0.19470   0.41580   0.01267  Uiso   1.00
H2     H     0.06300   0.34480   0.35320   0.01267  Uiso   1.00
H3     H     0.28940   0.23970   0.39740   0.01267  Uiso   1.00
H4     H     0.19530   0.08920   0.46380   0.01267  Uiso   1.00
H5     H     0.27650   0.40250   0.36460   0.01267  Uiso   1.00
H6     H     0.19930   0.44620   0.32440   0.01267  Uiso   1.00
H7     H     0.37810   0.54980   0.94440   0.01267  Uiso   1.00
H8     H     0.05190   0.17980   0.20160   0.01267  Uiso   1.00
H9     H     0.04940   0.23840   0.05520   0.01267  Uiso   1.00
H10    H     0.60810   0.88950   0.41580   0.01267  Uiso   1.00
H11    H     0.58380   0.80200   0.35320   0.01267  Uiso   1.00
H12    H     0.31320   0.86290   0.39740   0.01267  Uiso   1.00
H13    H     0.34090   0.94700   0.46380   0.01267  Uiso   1.00
H14    H     0.35890   0.73290   0.36460   0.01267  Uiso   1.00
H15    H     0.47630   0.72940   0.32440   0.01267  Uiso   1.00
H16    H     0.67750   0.00580   0.94440   0.01267  Uiso   1.00
H17    H     0.74650   0.11860   0.20160   0.01267  Uiso   1.00
H18    H     0.89540   0.20640   0.05520   0.01267  Uiso   1.00
H19    H     0.02390   0.80530   0.58420   0.01267  Uiso   1.00
H20    H     0.93700   0.65520   0.64680   0.01267  Uiso   1.00
H21    H     0.71060   0.76030   0.60260   0.01267  Uiso   1.00
H22    H     0.80470   0.91080   0.53620   0.01267  Uiso   1.00
H23    H     0.72350   0.59750   0.63540   0.01267  Uiso   1.00
H24    H     0.80070   0.55380   0.67560   0.01267  Uiso   1.00
H25    H     0.62190   0.45020   0.05560   0.01267  Uiso   1.00
H26    H     0.94810   0.82020   0.79840   0.01267  Uiso   1.00
H27    H     0.95060   0.76160   0.94480   0.01267  Uiso   1.00
H28    H     0.39190   0.11050   0.58420   0.01267  Uiso   1.00
H29    H     0.41620   0.19800   0.64680   0.01267  Uiso   1.00
H30    H     0.68680   0.13710   0.60260   0.01267  Uiso   1.00
H31    H     0.65910   0.05300   0.53620   0.01267  Uiso   1.00
H32    H     0.64110   0.26710   0.63540   0.01267  Uiso   1.00
H33    H     0.52370   0.27060   0.67560   0.01267  Uiso   1.00
H34    H     0.32250   0.99420   0.05560   0.01267  Uiso   1.00
H35    H     0.25350   0.88140   0.79840   0.01267  Uiso   1.00
H36    H     0.10460   0.79360   0.94480   0.01267  Uiso   1.00
C1     C     0.04060   0.20330   0.41300   0.01267  Uiso   1.00
C2     C     0.09250   0.29380   0.37440   0.01267  Uiso   1.00
C3     C     0.18610   0.30770   0.36740   0.01267  Uiso   1.00
C4     C     0.22440   0.23160   0.40100   0.01267  Uiso   1.00
C5     C     0.16770   0.14120   0.44080   0.01267  Uiso   1.00
C6     C     0.24550   0.40380   0.32460   0.01267  Uiso   1.00
C7     C     0.42430   0.42770   0.20040   0.01267  Uiso   1.00
C8     C     0.30830   0.47830   0.14600   0.01267  Uiso   1.00
C9     C     0.40480   0.49390   0.06220   0.01267  Uiso   1.00
C10    C     0.42660   0.53010   0.96640   0.01267  Uiso   1.00
C11    C     0.52490   0.53460   0.90640   0.01267  Uiso   1.00
C12    C     0.90540   0.08340   0.38120   0.01267  Uiso   1.00
C13    C     0.90110   0.11530   0.28780   0.01267  Uiso   1.00
C14    C     0.98990   0.16760   0.20140   0.01267  Uiso   1.00
C15    C     0.98860   0.20210   0.11460   0.01267  Uiso   1.00
C16    C     0.54640   0.88370   0.41300   0.01267  Uiso   1.00
C17    C     0.53310   0.83180   0.37440   0.01267  Uiso   1.00
C18    C     0.44650   0.82490   0.36740   0.01267  Uiso   1.00
C19    C     0.37460   0.86740   0.40100   0.01267  Uiso   1.00
C20    C     0.39150   0.91800   0.44080   0.01267  Uiso   1.00
C21    C     0.42990   0.77160   0.32460   0.01267  Uiso   1.00
C22    C     0.37530   0.87190   0.20040   0.01267  Uiso   1.00
C23    C     0.54570   0.87570   0.14600   0.01267  Uiso   1.00
C24    C     0.53300   0.94390   0.06220   0.01267  Uiso   1.00
C25    C     0.60700   0.00350   0.96640   0.01267  Uiso   1.00
C26    C     0.56870   0.05900   0.90640   0.01267  Uiso   1.00
C27    C     0.71340   0.03540   0.38120   0.01267  Uiso   1.00
C28    C     0.81110   0.09690   0.28780   0.01267  Uiso   1.00
C29    C     0.80870   0.13100   0.20140   0.01267  Uiso   1.00
C30    C     0.89680   0.18330   0.11460   0.01267  Uiso   1.00
C31    C     0.95940   0.79670   0.58700   0.01267  Uiso   1.00
C32    C     0.90750   0.70620   0.62560   0.01267  Uiso   1.00
C33    C     0.81390   0.69230   0.63260   0.01267  Uiso   1.00
C34    C     0.77560   0.76840   0.59900   0.01267  Uiso   1.00
C35    C     0.83230   0.85880   0.55920   0.01267  Uiso   1.00
C36    C     0.75450   0.59620   0.67540   0.01267  Uiso   1.00
C37    C     0.57570   0.57230   0.79960   0.01267  Uiso   1.00
C38    C     0.69170   0.52170   0.85400   0.01267  Uiso   1.00
C39    C     0.59520   0.50610   0.93780   0.01267  Uiso   1.00
C40    C     0.57340   0.46990   0.03360   0.01267  Uiso   1.00
C41    C     0.47510   0.46540   0.09360   0.01267  Uiso   1.00
C42    C     0.09460   0.91660   0.61880   0.01267  Uiso   1.00
C43    C     0.09890   0.88470   0.71220   0.01267  Uiso   1.00
C44    C     0.01010   0.83240   0.79860   0.01267  Uiso   1.00
C45    C     0.01140   0.79790   0.88540   0.01267  Uiso   1.00
C46    C     0.45360   0.11630   0.58700   0.01267  Uiso   1.00
C47    C     0.46690   0.16820   0.62560   0.01267  Uiso   1.00
C48    C     0.55350   0.17510   0.63260   0.01267  Uiso   1.00
C49    C     0.62540   0.13260   0.59900   0.01267  Uiso   1.00
C50    C     0.60850   0.08200   0.55920   0.01267  Uiso   1.00
C51    C     0.57010   0.22840   0.67540   0.01267  Uiso   1.00
C52    C     0.62470   0.12810   0.79960   0.01267  Uiso   1.00
C53    C     0.45430   0.12430   0.85400   0.01267  Uiso   1.00
C54    C     0.46700   0.05610   0.93780   0.01267  Uiso   1.00
C55    C     0.39300   0.99650   0.03360   0.01267  Uiso   1.00
C56    C     0.43130   0.94100   0.09360   0.01267  Uiso   1.00
C57    C     0.28660   0.96460   0.61880   0.01267  Uiso   1.00
C58    C     0.18890   0.90310   0.71220   0.01267  Uiso   1.00
C59    C     0.19130   0.86900   0.79860   0.01267  Uiso   1.00
C60    C     0.10320   0.81670   0.88540   0.01267  Uiso   1.00
N1     N     0.07660   0.12750   0.44640   0.01267  Uiso   1.00
N2     N     0.32604   0.43854   0.22512   0.01267  Uiso   1.00
N3     N     0.47700   0.92610   0.44640   0.01267  Uiso   1.00
N4     N     0.44884   0.83634   0.22512   0.01267  Uiso   1.00
N5     N     0.92340   0.87250   0.55360   0.01267  Uiso   1.00
N6     N     0.67396   0.56146   0.77488   0.01267  Uiso   1.00
N7     N     0.52300   0.07390   0.55360   0.01267  Uiso   1.00
N8     N     0.55116   0.16366   0.77488   0.01267  Uiso   1.00
O1     O     0.97817   0.04717   0.38766   0.01267  Uiso   1.00
O2     O     0.83958   0.09598   0.44324   0.01267  Uiso   1.00
O3     O     0.45833   0.39483   0.25614   0.01267  Uiso   1.00
O4     O     0.22826   0.49416   0.14868   0.01267  Uiso   1.00
O5     O     0.63417   0.06517   0.38766   0.01267  Uiso   1.00
O6     O     0.71718   0.96078   0.44324   0.01267  Uiso   1.00
O7     O     0.28553   0.84903   0.25614   0.01267  Uiso   1.00
O8     O     0.62306   0.85716   0.14868   0.01267  Uiso   1.00
O9     O     0.02183   0.95283   0.61234   0.01267  Uiso   1.00
O10    O     0.16042   0.90402   0.55676   0.01267  Uiso   1.00
O11    O     0.54167   0.60517   0.74386   0.01267  Uiso   1.00
O12    O     0.77174   0.50584   0.85132   0.01267  Uiso   1.00
O13    O     0.36583   0.93483   0.61234   0.01267  Uiso   1.00
O14    O     0.28282   0.03922   0.55676   0.01267  Uiso   1.00
O15    O     0.71447   0.15097   0.74386   0.01267  Uiso   1.00
O16    O     0.37694   0.14284   0.85132   0.01267  Uiso   1.00
Cu3    Cu    0.50000   0.50000   0.50000   0.01267  Uiso   1.00
Cu4    Cu    0.00000   0.50000   0.50000   0.01267  Uiso   1.00
H37    H     0.52390   0.61050   0.58420   0.01267  Uiso   1.00
H38    H     0.43700   0.69800   0.64680   0.01267  Uiso   1.00
H39    H     0.21060   0.63710   0.60260   0.01267  Uiso   1.00
H40    H     0.30470   0.55300   0.53620   0.01267  Uiso   1.00
H41    H     0.22350   0.76710   0.63540   0.01267  Uiso   1.00
H42    H     0.30070   0.77060   0.67560   0.01267  Uiso   1.00
H43    H     0.12190   0.49420   0.05560   0.01267  Uiso   1.00
H44    H     0.44810   0.38140   0.79840   0.01267  Uiso   1.00
H45    H     0.45060   0.29360   0.94480   0.01267  Uiso   1.00
H46    H     0.89190   0.30530   0.58420   0.01267  Uiso   1.00
H47    H     0.91620   0.15520   0.64680   0.01267  Uiso   1.00
H48    H     0.18680   0.26030   0.60260   0.01267  Uiso   1.00
H49    H     0.15910   0.41080   0.53620   0.01267  Uiso   1.00
H50    H     0.14110   0.09750   0.63540   0.01267  Uiso   1.00
H51    H     0.02370   0.05380   0.67560   0.01267  Uiso   1.00
H52    H     0.82250   0.95020   0.05560   0.01267  Uiso   1.00
H53    H     0.75350   0.32020   0.79840   0.01267  Uiso   1.00
H54    H     0.60460   0.26160   0.94480   0.01267  Uiso   1.00
H55    H     0.47610   0.38950   0.41580   0.01267  Uiso   1.00
H56    H     0.56300   0.30200   0.35320   0.01267  Uiso   1.00
H57    H     0.78940   0.36290   0.39740   0.01267  Uiso   1.00
H58    H     0.69530   0.44700   0.46380   0.01267  Uiso   1.00
H59    H     0.77650   0.23290   0.36460   0.01267  Uiso   1.00
H60    H     0.69930   0.22940   0.32440   0.01267  Uiso   1.00
H61    H     0.87810   0.50580   0.94440   0.01267  Uiso   1.00
H62    H     0.55190   0.61860   0.20160   0.01267  Uiso   1.00
H63    H     0.54940   0.70640   0.05520   0.01267  Uiso   1.00
H64    H     0.10810   0.69470   0.41580   0.01267  Uiso   1.00
H65    H     0.08380   0.84480   0.35320   0.01267  Uiso   1.00
H66    H     0.81320   0.73970   0.39740   0.01267  Uiso   1.00
H67    H     0.84090   0.58920   0.46380   0.01267  Uiso   1.00
H68    H     0.85890   0.90250   0.36460   0.01267  Uiso   1.00
H69    H     0.97630   0.94620   0.32440   0.01267  Uiso   1.00
H70    H     0.17750   0.04980   0.94440   0.01267  Uiso   1.00
H71    H     0.24650   0.67980   0.20160   0.01267  Uiso   1.00
H72    H     0.39540   0.73840   0.05520   0.01267  Uiso   1.00
C61    C     0.45940   0.61630   0.58700   0.01267  Uiso   1.00
C62    C     0.40750   0.66820   0.62560   0.01267  Uiso   1.00
C63    C     0.31390   0.67510   0.63260   0.01267  Uiso   1.00
C64    C     0.27560   0.63260   0.59900   0.01267  Uiso   1.00
C65    C     0.33230   0.58200   0.55920   0.01267  Uiso   1.00
C66    C     0.25450   0.72840   0.67540   0.01267  Uiso   1.00
C67    C     0.07570   0.62810   0.79960   0.01267  Uiso   1.00
C68    C     0.19170   0.62430   0.85400   0.01267  Uiso   1.00
C69    C     0.09520   0.55610   0.93780   0.01267  Uiso   1.00
C70    C     0.07340   0.49650   0.03360   0.01267  Uiso   1.00
C71    C     0.97510   0.44100   0.09360   0.01267  Uiso   1.00
C72    C     0.59460   0.46460   0.61880   0.01267  Uiso   1.00
C73    C     0.59890   0.40310   0.71220   0.01267  Uiso   1.00
C74    C     0.51010   0.36900   0.79860   0.01267  Uiso   1.00
C75    C     0.51140   0.31670   0.88540   0.01267  Uiso   1.00
C76    C     0.95360   0.29670   0.58700   0.01267  Uiso   1.00
C77    C     0.96690   0.20620   0.62560   0.01267  Uiso   1.00
C78    C     0.05350   0.19230   0.63260   0.01267  Uiso   1.00
C79    C     0.12540   0.26840   0.59900   0.01267  Uiso   1.00
C80    C     0.10850   0.35880   0.55920   0.01267  Uiso   1.00
C81    C     0.07010   0.09620   0.67540   0.01267  Uiso   1.00
C82    C     0.12470   0.07230   0.79960   0.01267  Uiso   1.00
C83    C     0.95430   0.02170   0.85400   0.01267  Uiso   1.00
C84    C     0.96700   0.00610   0.93780   0.01267  Uiso   1.00
C85    C     0.89300   0.96990   0.03360   0.01267  Uiso   1.00
C86    C     0.93130   0.96540   0.09360   0.01267  Uiso   1.00
C87    C     0.78660   0.41660   0.61880   0.01267  Uiso   1.00
C88    C     0.68890   0.38470   0.71220   0.01267  Uiso   1.00
C89    C     0.69130   0.33240   0.79860   0.01267  Uiso   1.00
C90    C     0.60320   0.29790   0.88540   0.01267  Uiso   1.00
C91    C     0.54060   0.38370   0.41300   0.01267  Uiso   1.00
C92    C     0.59250   0.33180   0.37440   0.01267  Uiso   1.00
C93    C     0.68610   0.32490   0.36740   0.01267  Uiso   1.00
C94    C     0.72440   0.36740   0.40100   0.01267  Uiso   1.00
C95    C     0.66770   0.41800   0.44080   0.01267  Uiso   1.00
C96    C     0.74550   0.27160   0.32460   0.01267  Uiso   1.00
C97    C     0.92430   0.37190   0.20040   0.01267  Uiso   1.00
C98    C     0.80830   0.37570   0.14600   0.01267  Uiso   1.00
C99    C     0.90480   0.44390   0.06220   0.01267  Uiso   1.00
C100   C     0.92660   0.50350   0.96640   0.01267  Uiso   1.00
C101   C     0.02490   0.55900   0.90640   0.01267  Uiso   1.00
C102   C     0.40540   0.53540   0.38120   0.01267  Uiso   1.00
C103   C     0.40110   0.59690   0.28780   0.01267  Uiso   1.00
C104   C     0.48990   0.63100   0.20140   0.01267  Uiso   1.00
C105   C     0.48860   0.68330   0.11460   0.01267  Uiso   1.00
C106   C     0.04640   0.70330   0.41300   0.01267  Uiso   1.00
C107   C     0.03310   0.79380   0.37440   0.01267  Uiso   1.00
C108   C     0.94650   0.80770   0.36740   0.01267  Uiso   1.00
C109   C     0.87460   0.73160   0.40100   0.01267  Uiso   1.00
C110   C     0.89150   0.64120   0.44080   0.01267  Uiso   1.00
C111   C     0.92990   0.90380   0.32460   0.01267  Uiso   1.00
C112   C     0.87530   0.92770   0.20040   0.01267  Uiso   1.00
C113   C     0.04570   0.97830   0.14600   0.01267  Uiso   1.00
C114   C     0.03300   0.99390   0.06220   0.01267  Uiso   1.00
C115   C     0.10700   0.03010   0.96640   0.01267  Uiso   1.00
C116   C     0.06870   0.03460   0.90640   0.01267  Uiso   1.00
C117   C     0.21340   0.58340   0.38120   0.01267  Uiso   1.00
C118   C     0.31110   0.61530   0.28780   0.01267  Uiso   1.00
C119   C     0.30870   0.66760   0.20140   0.01267  Uiso   1.00
C120   C     0.39680   0.70210   0.11460   0.01267  Uiso   1.00
N9     N     0.42340   0.57390   0.55360   0.01267  Uiso   1.00
N10    N     0.17396   0.66366   0.77488   0.01267  Uiso   1.00
N11    N     0.02300   0.37250   0.55360   0.01267  Uiso   1.00
N12    N     0.05116   0.06146   0.77488   0.01267  Uiso   1.00
N13    N     0.57660   0.42610   0.44640   0.01267  Uiso   1.00
N14    N     0.82604   0.33634   0.22512   0.01267  Uiso   1.00
N15    N     0.97700   0.62750   0.44640   0.01267  Uiso   1.00
N16    N     0.94884   0.93854   0.22512   0.01267  Uiso   1.00
O17    O     0.52183   0.43483   0.61234   0.01267  Uiso   1.00
O18    O     0.66042   0.53922   0.55676   0.01267  Uiso   1.00
O19    O     0.04167   0.65097   0.74386   0.01267  Uiso   1.00
O20    O     0.27174   0.64284   0.85132   0.01267  Uiso   1.00
O21    O     0.86583   0.45283   0.61234   0.01267  Uiso   1.00
O22    O     0.78282   0.40402   0.55676   0.01267  Uiso   1.00
O23    O     0.21447   0.10517   0.74386   0.01267  Uiso   1.00
O24    O     0.87694   0.00584   0.85132   0.01267  Uiso   1.00
O25    O     0.47817   0.56517   0.38766   0.01267  Uiso   1.00
O26    O     0.33958   0.46078   0.44324   0.01267  Uiso   1.00
O27    O     0.95833   0.34903   0.25614   0.01267  Uiso   1.00
O28    O     0.72826   0.35716   0.14868   0.01267  Uiso   1.00
O29    O     0.13417   0.54717   0.38766   0.01267  Uiso   1.00
O30    O     0.21718   0.59598   0.44324   0.01267  Uiso   1.00
O31    O     0.78553   0.89483   0.25614   0.01267  Uiso   1.00
O32    O     0.12306   0.99416   0.14868   0.01267  Uiso   1.00
