data_image0
_cell_length_a       14.7932
_cell_length_b       16.7885
_cell_length_c       27.7725
_cell_angle_alpha    90
_cell_angle_beta     90
_cell_angle_gamma    90

_symmetry_space_group_name_H-M    "P 1"
_symmetry_int_tables_number       1

loop_
  _symmetry_equiv_pos_as_xyz
  'x, y, z'

loop_
  _atom_site_label
  _atom_site_occupancy
  _atom_site_fract_x
  _atom_site_fract_y
  _atom_site_fract_z
  _atom_site_thermal_displace_type
  _atom_site_B_iso_or_equiv
  _atom_site_type_symbol
  N1       1.0000 0.43910  0.94923  0.38777  Biso   1.000  N
  O1       1.0000 0.32461  0.23776  0.19270  Biso   1.000  O
  O2       1.0000 0.30105  0.93097  0.42549  Biso   1.000  O
  C1       1.0000 0.38020  0.94850  0.42698  Biso   1.000  C
  O3       1.0000 0.43497  0.31497  0.22202  Biso   1.000  O
  N2       1.0000 0.30120  0.14826  0.27694  Biso   1.000  N
  O4       1.0000 0.58824  0.98134  0.37253  Biso   1.000  O
  C2       1.0000 0.40280  0.27180  0.19074  Biso   1.000  C
  C3       1.0000 0.38950  0.13780  0.28023  Biso   1.000  C
  H1       1.0000 0.42840  0.17890  0.26910  Biso   1.000  H
  C4       1.0000 0.40860  0.26490  0.10087  Biso   1.000  C
  H2       1.0000 0.34530  0.27470  0.10080  Biso   1.000  H
  C5       1.0000 0.45380  0.25805  0.14428  Biso   1.000  C
  C6       1.0000 0.42800  0.06910  0.29938  Biso   1.000  C
  H3       1.0000 0.49180  0.06350  0.30110  Biso   1.000  H
  C7       1.0000 0.40950  0.98400  0.51655  Biso   1.000  C
  H4       1.0000 0.34980  0.97390  0.52740  Biso   1.000  H
  C8       1.0000 0.52570  0.97420  0.40031  Biso   1.000  C
  C9       1.0000 0.43520  0.97370  0.46926  Biso   1.000  C
  C10      1.0000 0.41070  0.93381  0.33845  Biso   1.000  C
  H5       1.0000 0.36440  0.89130  0.33820  Biso   1.000  H
  H6       1.0000 0.46310  0.91520  0.31930  Biso   1.000  H
  C11      1.0000 0.28050  0.02020  0.31271  Biso   1.000  C
  H7       1.0000 0.24030  0.98020  0.32390  Biso   1.000  H
  C12      1.0000 0.37190  0.00902  0.31585  Biso   1.000  C
  C13      1.0000 0.47730  0.01030  0.54702  Biso   1.000  C
  C14      1.0000 0.24710  0.08970  0.29325  Biso   1.000  C
  H8       1.0000 0.18340  0.09650  0.29120  Biso   1.000  H
  C15      1.0000 0.45380  0.25760  0.05792  Biso   1.000  C
  H9       1.0000 0.42210  0.26290  0.02830  Biso   1.000  H
  N3       1.0000 0.93910  0.44923  0.88777  Biso   1.000  N
  O5       1.0000 0.82461  0.73776  0.69270  Biso   1.000  O
  O6       1.0000 0.80105  0.43097  0.92549  Biso   1.000  O
  C16      1.0000 0.88020  0.44850  0.92698  Biso   1.000  C
  O7       1.0000 0.93497  0.81497  0.72202  Biso   1.000  O
  N4       1.0000 0.80120  0.64826  0.77694  Biso   1.000  N
  O8       1.0000 0.08824  0.48134  0.87253  Biso   1.000  O
  C17      1.0000 0.90280  0.77180  0.69074  Biso   1.000  C
  C18      1.0000 0.88950  0.63780  0.78023  Biso   1.000  C
  H10      1.0000 0.92840  0.67890  0.76910  Biso   1.000  H
  C19      1.0000 0.90860  0.76490  0.60087  Biso   1.000  C
  H11      1.0000 0.84530  0.77470  0.60080  Biso   1.000  H
  C20      1.0000 0.95380  0.75805  0.64428  Biso   1.000  C
  C21      1.0000 0.92800  0.56910  0.79938  Biso   1.000  C
  H12      1.0000 0.99180  0.56350  0.80110  Biso   1.000  H
  C22      1.0000 0.90950  0.48400  0.01655  Biso   1.000  C
  H13      1.0000 0.84980  0.47390  0.02740  Biso   1.000  H
  C23      1.0000 0.02570  0.47420  0.90031  Biso   1.000  C
  C24      1.0000 0.93520  0.47370  0.96926  Biso   1.000  C
  C25      1.0000 0.91070  0.43381  0.83845  Biso   1.000  C
  H14      1.0000 0.86440  0.39130  0.83820  Biso   1.000  H
  H15      1.0000 0.96310  0.41520  0.81930  Biso   1.000  H
  C26      1.0000 0.78050  0.52020  0.81271  Biso   1.000  C
  H16      1.0000 0.74030  0.48020  0.82390  Biso   1.000  H
  C27      1.0000 0.87190  0.50902  0.81585  Biso   1.000  C
  C28      1.0000 0.97730  0.51030  0.04702  Biso   1.000  C
  C29      1.0000 0.74710  0.58970  0.79325  Biso   1.000  C
  H17      1.0000 0.68340  0.59650  0.79120  Biso   1.000  H
  C30      1.0000 0.95380  0.75760  0.55792  Biso   1.000  C
  H18      1.0000 0.92210  0.76290  0.52830  Biso   1.000  H
  N5       1.0000 0.06090  0.05077  0.88777  Biso   1.000  N
  O9       1.0000 0.17539  0.76224  0.69270  Biso   1.000  O
  O10      1.0000 0.19895  0.06903  0.92549  Biso   1.000  O
  C31      1.0000 0.11980  0.05150  0.92698  Biso   1.000  C
  O11      1.0000 0.06503  0.68503  0.72202  Biso   1.000  O
  N6       1.0000 0.19880  0.85174  0.77694  Biso   1.000  N
  O12      1.0000 0.91176  0.01866  0.87253  Biso   1.000  O
  C32      1.0000 0.09720  0.72820  0.69074  Biso   1.000  C
  C33      1.0000 0.11050  0.86220  0.78023  Biso   1.000  C
  H19      1.0000 0.07160  0.82110  0.76910  Biso   1.000  H
  C34      1.0000 0.09140  0.73510  0.60087  Biso   1.000  C
  H20      1.0000 0.15470  0.72530  0.60080  Biso   1.000  H
  C35      1.0000 0.04620  0.74195  0.64428  Biso   1.000  C
  C36      1.0000 0.07200  0.93090  0.79938  Biso   1.000  C
  H21      1.0000 0.00820  0.93650  0.80110  Biso   1.000  H
  C37      1.0000 0.09050  0.01600  0.01655  Biso   1.000  C
  H22      1.0000 0.15020  0.02610  0.02740  Biso   1.000  H
  C38      1.0000 0.97430  0.02580  0.90031  Biso   1.000  C
  C39      1.0000 0.06480  0.02630  0.96926  Biso   1.000  C
  C40      1.0000 0.08930  0.06619  0.83845  Biso   1.000  C
  H23      1.0000 0.13560  0.10870  0.83820  Biso   1.000  H
  H24      1.0000 0.03690  0.08480  0.81930  Biso   1.000  H
  C41      1.0000 0.21950  0.97980  0.81271  Biso   1.000  C
  H25      1.0000 0.25970  0.01980  0.82390  Biso   1.000  H
  C42      1.0000 0.12810  0.99098  0.81585  Biso   1.000  C
  C43      1.0000 0.02270  0.98970  0.04702  Biso   1.000  C
  C44      1.0000 0.25290  0.91030  0.79325  Biso   1.000  C
  H26      1.0000 0.31660  0.90350  0.79120  Biso   1.000  H
  C45      1.0000 0.04620  0.74240  0.55792  Biso   1.000  C
  H27      1.0000 0.07790  0.73710  0.52830  Biso   1.000  H
  N7       1.0000 0.56090  0.55077  0.38777  Biso   1.000  N
  O13      1.0000 0.67539  0.26224  0.19270  Biso   1.000  O
  O14      1.0000 0.69895  0.56903  0.42549  Biso   1.000  O
  C46      1.0000 0.61980  0.55150  0.42698  Biso   1.000  C
  O15      1.0000 0.56503  0.18503  0.22202  Biso   1.000  O
  N8       1.0000 0.69880  0.35174  0.27694  Biso   1.000  N
  O16      1.0000 0.41176  0.51866  0.37253  Biso   1.000  O
  C47      1.0000 0.59720  0.22820  0.19074  Biso   1.000  C
  C48      1.0000 0.61050  0.36220  0.28023  Biso   1.000  C
  H28      1.0000 0.57160  0.32110  0.26910  Biso   1.000  H
  C49      1.0000 0.59140  0.23510  0.10087  Biso   1.000  C
  H29      1.0000 0.65470  0.22530  0.10080  Biso   1.000  H
  C50      1.0000 0.54620  0.24195  0.14428  Biso   1.000  C
  C51      1.0000 0.57200  0.43090  0.29938  Biso   1.000  C
  H30      1.0000 0.50820  0.43650  0.30110  Biso   1.000  H
  C52      1.0000 0.59050  0.51600  0.51655  Biso   1.000  C
  H31      1.0000 0.65020  0.52610  0.52740  Biso   1.000  H
  C53      1.0000 0.47430  0.52580  0.40031  Biso   1.000  C
  C54      1.0000 0.56480  0.52630  0.46926  Biso   1.000  C
  C55      1.0000 0.58930  0.56619  0.33845  Biso   1.000  C
  H32      1.0000 0.63560  0.60870  0.33820  Biso   1.000  H
  H33      1.0000 0.53690  0.58480  0.31930  Biso   1.000  H
  C56      1.0000 0.71950  0.47980  0.31271  Biso   1.000  C
  H34      1.0000 0.75970  0.51980  0.32390  Biso   1.000  H
  C57      1.0000 0.62810  0.49098  0.31585  Biso   1.000  C
  C58      1.0000 0.52270  0.48970  0.54702  Biso   1.000  C
  C59      1.0000 0.75290  0.41030  0.29325  Biso   1.000  C
  H35      1.0000 0.81660  0.40350  0.29120  Biso   1.000  H
  C60      1.0000 0.54620  0.24240  0.05792  Biso   1.000  C
  H36      1.0000 0.57790  0.23710  0.02830  Biso   1.000  H
  N9       1.0000 0.56090  0.05077  0.61223  Biso   1.000  N
  O17      1.0000 0.67539  0.76224  0.80730  Biso   1.000  O
  O18      1.0000 0.69895  0.06903  0.57451  Biso   1.000  O
  C61      1.0000 0.61980  0.05150  0.57302  Biso   1.000  C
  O19      1.0000 0.56503  0.68503  0.77798  Biso   1.000  O
  N10      1.0000 0.69880  0.85174  0.72306  Biso   1.000  N
  O20      1.0000 0.41176  0.01866  0.62747  Biso   1.000  O
  C62      1.0000 0.59720  0.72820  0.80926  Biso   1.000  C
  C63      1.0000 0.61050  0.86220  0.71977  Biso   1.000  C
  H37      1.0000 0.57160  0.82110  0.73090  Biso   1.000  H
  C64      1.0000 0.59140  0.73510  0.89913  Biso   1.000  C
  H38      1.0000 0.65470  0.72530  0.89920  Biso   1.000  H
  C65      1.0000 0.54620  0.74195  0.85572  Biso   1.000  C
  C66      1.0000 0.57200  0.93090  0.70062  Biso   1.000  C
  H39      1.0000 0.50820  0.93650  0.69890  Biso   1.000  H
  C67      1.0000 0.59050  0.01600  0.48345  Biso   1.000  C
  H40      1.0000 0.65020  0.02610  0.47260  Biso   1.000  H
  C68      1.0000 0.47430  0.02580  0.59969  Biso   1.000  C
  C69      1.0000 0.56480  0.02630  0.53074  Biso   1.000  C
  C70      1.0000 0.58930  0.06619  0.66155  Biso   1.000  C
  H41      1.0000 0.63560  0.10870  0.66180  Biso   1.000  H
  H42      1.0000 0.53690  0.08480  0.68070  Biso   1.000  H
  C71      1.0000 0.71950  0.97980  0.68729  Biso   1.000  C
  H43      1.0000 0.75970  0.01980  0.67610  Biso   1.000  H
  C72      1.0000 0.62810  0.99098  0.68415  Biso   1.000  C
  C73      1.0000 0.52270  0.98970  0.45298  Biso   1.000  C
  C74      1.0000 0.75290  0.91030  0.70675  Biso   1.000  C
  H44      1.0000 0.81660  0.90350  0.70880  Biso   1.000  H
  C75      1.0000 0.54620  0.74240  0.94208  Biso   1.000  C
  H45      1.0000 0.57790  0.73710  0.97170  Biso   1.000  H
  N11      1.0000 0.06090  0.55077  0.11223  Biso   1.000  N
  O21      1.0000 0.17539  0.26224  0.30730  Biso   1.000  O
  O22      1.0000 0.19895  0.56903  0.07451  Biso   1.000  O
  C76      1.0000 0.11980  0.55150  0.07302  Biso   1.000  C
  O23      1.0000 0.06503  0.18503  0.27798  Biso   1.000  O
  N12      1.0000 0.19880  0.35174  0.22306  Biso   1.000  N
  O24      1.0000 0.91176  0.51866  0.12747  Biso   1.000  O
  C77      1.0000 0.09720  0.22820  0.30926  Biso   1.000  C
  C78      1.0000 0.11050  0.36220  0.21977  Biso   1.000  C
  H46      1.0000 0.07160  0.32110  0.23090  Biso   1.000  H
  C79      1.0000 0.09140  0.23510  0.39913  Biso   1.000  C
  H47      1.0000 0.15470  0.22530  0.39920  Biso   1.000  H
  C80      1.0000 0.04620  0.24195  0.35572  Biso   1.000  C
  C81      1.0000 0.07200  0.43090  0.20062  Biso   1.000  C
  H48      1.0000 0.00820  0.43650  0.19890  Biso   1.000  H
  C82      1.0000 0.09050  0.51600  0.98345  Biso   1.000  C
  H49      1.0000 0.15020  0.52610  0.97260  Biso   1.000  H
  C83      1.0000 0.97430  0.52580  0.09969  Biso   1.000  C
  C84      1.0000 0.06480  0.52630  0.03074  Biso   1.000  C
  C85      1.0000 0.08930  0.56619  0.16155  Biso   1.000  C
  H50      1.0000 0.13560  0.60870  0.16180  Biso   1.000  H
  H51      1.0000 0.03690  0.58480  0.18070  Biso   1.000  H
  C86      1.0000 0.21950  0.47980  0.18729  Biso   1.000  C
  H52      1.0000 0.25970  0.51980  0.17610  Biso   1.000  H
  C87      1.0000 0.12810  0.49098  0.18415  Biso   1.000  C
  C88      1.0000 0.02270  0.48970  0.95298  Biso   1.000  C
  C89      1.0000 0.25290  0.41030  0.20675  Biso   1.000  C
  H53      1.0000 0.31660  0.40350  0.20880  Biso   1.000  H
  C90      1.0000 0.04620  0.24240  0.44208  Biso   1.000  C
  H54      1.0000 0.07790  0.23710  0.47170  Biso   1.000  H
  N13      1.0000 0.93910  0.94923  0.11223  Biso   1.000  N
  O25      1.0000 0.82461  0.23776  0.30730  Biso   1.000  O
  O26      1.0000 0.80105  0.93097  0.07451  Biso   1.000  O
  C91      1.0000 0.88020  0.94850  0.07302  Biso   1.000  C
  O27      1.0000 0.93497  0.31497  0.27798  Biso   1.000  O
  N14      1.0000 0.80120  0.14826  0.22306  Biso   1.000  N
  O28      1.0000 0.08824  0.98134  0.12747  Biso   1.000  O
  C92      1.0000 0.90280  0.27180  0.30926  Biso   1.000  C
  C93      1.0000 0.88950  0.13780  0.21977  Biso   1.000  C
  H55      1.0000 0.92840  0.17890  0.23090  Biso   1.000  H
  C94      1.0000 0.90860  0.26490  0.39913  Biso   1.000  C
  H56      1.0000 0.84530  0.27470  0.39920  Biso   1.000  H
  C95      1.0000 0.95380  0.25805  0.35572  Biso   1.000  C
  C96      1.0000 0.92800  0.06910  0.20062  Biso   1.000  C
  H57      1.0000 0.99180  0.06350  0.19890  Biso   1.000  H
  C97      1.0000 0.90950  0.98400  0.98345  Biso   1.000  C
  H58      1.0000 0.84980  0.97390  0.97260  Biso   1.000  H
  C98      1.0000 0.02570  0.97420  0.09969  Biso   1.000  C
  C99      1.0000 0.93520  0.97370  0.03074  Biso   1.000  C
  C100     1.0000 0.91070  0.93381  0.16155  Biso   1.000  C
  H59      1.0000 0.86440  0.89130  0.16180  Biso   1.000  H
  H60      1.0000 0.96310  0.91520  0.18070  Biso   1.000  H
  C101     1.0000 0.78050  0.02020  0.18729  Biso   1.000  C
  H61      1.0000 0.74030  0.98020  0.17610  Biso   1.000  H
  C102     1.0000 0.87190  0.00902  0.18415  Biso   1.000  C
  C103     1.0000 0.97730  0.01030  0.95298  Biso   1.000  C
  C104     1.0000 0.74710  0.08970  0.20675  Biso   1.000  C
  H62      1.0000 0.68340  0.09650  0.20880  Biso   1.000  H
  C105     1.0000 0.95380  0.25760  0.44208  Biso   1.000  C
  H63      1.0000 0.92210  0.26290  0.47170  Biso   1.000  H
  N15      1.0000 0.43910  0.44923  0.61223  Biso   1.000  N
  O29      1.0000 0.32461  0.73776  0.80730  Biso   1.000  O
  O30      1.0000 0.30105  0.43097  0.57451  Biso   1.000  O
  C106     1.0000 0.38020  0.44850  0.57302  Biso   1.000  C
  O31      1.0000 0.43497  0.81497  0.77798  Biso   1.000  O
  N16      1.0000 0.30120  0.64826  0.72306  Biso   1.000  N
  O32      1.0000 0.58824  0.48134  0.62747  Biso   1.000  O
  C107     1.0000 0.40280  0.77180  0.80926  Biso   1.000  C
  C108     1.0000 0.38950  0.63780  0.71977  Biso   1.000  C
  H64      1.0000 0.42840  0.67890  0.73090  Biso   1.000  H
  C109     1.0000 0.40860  0.76490  0.89913  Biso   1.000  C
  H65      1.0000 0.34530  0.77470  0.89920  Biso   1.000  H
  C110     1.0000 0.45380  0.75805  0.85572  Biso   1.000  C
  C111     1.0000 0.42800  0.56910  0.70062  Biso   1.000  C
  H66      1.0000 0.49180  0.56350  0.69890  Biso   1.000  H
  C112     1.0000 0.40950  0.48400  0.48345  Biso   1.000  C
  H67      1.0000 0.34980  0.47390  0.47260  Biso   1.000  H
  C113     1.0000 0.52570  0.47420  0.59969  Biso   1.000  C
  C114     1.0000 0.43520  0.47370  0.53074  Biso   1.000  C
  C115     1.0000 0.41070  0.43381  0.66155  Biso   1.000  C
  H68      1.0000 0.36440  0.39130  0.66180  Biso   1.000  H
  H69      1.0000 0.46310  0.41520  0.68070  Biso   1.000  H
  C116     1.0000 0.28050  0.52020  0.68729  Biso   1.000  C
  H70      1.0000 0.24030  0.48020  0.67610  Biso   1.000  H
  C117     1.0000 0.37190  0.50902  0.68415  Biso   1.000  C
  C118     1.0000 0.47730  0.51030  0.45298  Biso   1.000  C
  C119     1.0000 0.24710  0.58970  0.70675  Biso   1.000  C
  H71      1.0000 0.18340  0.59650  0.70880  Biso   1.000  H
  C120     1.0000 0.45380  0.75760  0.94208  Biso   1.000  C
  H72      1.0000 0.42210  0.76290  0.97170  Biso   1.000  H
  Cu1      1.0000 0.25000  0.25000  0.25000  Biso   1.000  Cu
  Cu2      1.0000 0.25000  0.75000  0.75000  Biso   1.000  Cu
  Cu3      1.0000 0.75000  0.75000  0.75000  Biso   1.000  Cu
  Cu4      1.0000 0.75000  0.25000  0.25000  Biso   1.000  Cu
  N17      1.0000 0.56090  0.44923  0.11223  Biso   1.000  N
  O33      1.0000 0.67539  0.73776  0.30730  Biso   1.000  O
  O34      1.0000 0.69895  0.43097  0.07451  Biso   1.000  O
  C121     1.0000 0.61980  0.44850  0.07302  Biso   1.000  C
  O35      1.0000 0.56503  0.81497  0.27798  Biso   1.000  O
  N18      1.0000 0.69880  0.64826  0.22306  Biso   1.000  N
  O36      1.0000 0.41176  0.48134  0.12747  Biso   1.000  O
  C122     1.0000 0.59720  0.77180  0.30926  Biso   1.000  C
  C123     1.0000 0.61050  0.63780  0.21977  Biso   1.000  C
  H73      1.0000 0.57160  0.67890  0.23090  Biso   1.000  H
  C124     1.0000 0.59140  0.76490  0.39913  Biso   1.000  C
  H74      1.0000 0.65470  0.77470  0.39920  Biso   1.000  H
  C125     1.0000 0.54620  0.75805  0.35572  Biso   1.000  C
  C126     1.0000 0.57200  0.56910  0.20062  Biso   1.000  C
  H75      1.0000 0.50820  0.56350  0.19890  Biso   1.000  H
  C127     1.0000 0.59050  0.48400  0.98345  Biso   1.000  C
  H76      1.0000 0.65020  0.47390  0.97260  Biso   1.000  H
  C128     1.0000 0.47430  0.47420  0.09969  Biso   1.000  C
  C129     1.0000 0.56480  0.47370  0.03074  Biso   1.000  C
  C130     1.0000 0.58930  0.43381  0.16155  Biso   1.000  C
  H77      1.0000 0.63560  0.39130  0.16180  Biso   1.000  H
  H78      1.0000 0.53690  0.41520  0.18070  Biso   1.000  H
  C131     1.0000 0.71950  0.52020  0.18729  Biso   1.000  C
  H79      1.0000 0.75970  0.48020  0.17610  Biso   1.000  H
  C132     1.0000 0.62810  0.50902  0.18415  Biso   1.000  C
  C133     1.0000 0.52270  0.51030  0.95298  Biso   1.000  C
  C134     1.0000 0.75290  0.58970  0.20675  Biso   1.000  C
  H80      1.0000 0.81660  0.59650  0.20880  Biso   1.000  H
  C135     1.0000 0.54620  0.75760  0.44208  Biso   1.000  C
  H81      1.0000 0.57790  0.76290  0.47170  Biso   1.000  H
  N19      1.0000 0.06090  0.94923  0.61223  Biso   1.000  N
  O37      1.0000 0.17539  0.23776  0.80730  Biso   1.000  O
  O38      1.0000 0.19895  0.93097  0.57451  Biso   1.000  O
  C136     1.0000 0.11980  0.94850  0.57302  Biso   1.000  C
  O39      1.0000 0.06503  0.31497  0.77798  Biso   1.000  O
  N20      1.0000 0.19880  0.14826  0.72306  Biso   1.000  N
  O40      1.0000 0.91176  0.98134  0.62747  Biso   1.000  O
  C137     1.0000 0.09720  0.27180  0.80926  Biso   1.000  C
  C138     1.0000 0.11050  0.13780  0.71977  Biso   1.000  C
  H82      1.0000 0.07160  0.17890  0.73090  Biso   1.000  H
  C139     1.0000 0.09140  0.26490  0.89913  Biso   1.000  C
  H83      1.0000 0.15470  0.27470  0.89920  Biso   1.000  H
  C140     1.0000 0.04620  0.25805  0.85572  Biso   1.000  C
  C141     1.0000 0.07200  0.06910  0.70062  Biso   1.000  C
  H84      1.0000 0.00820  0.06350  0.69890  Biso   1.000  H
  C142     1.0000 0.09050  0.98400  0.48345  Biso   1.000  C
  H85      1.0000 0.15020  0.97390  0.47260  Biso   1.000  H
  C143     1.0000 0.97430  0.97420  0.59969  Biso   1.000  C
  C144     1.0000 0.06480  0.97370  0.53074  Biso   1.000  C
  C145     1.0000 0.08930  0.93381  0.66155  Biso   1.000  C
  H86      1.0000 0.13560  0.89130  0.66180  Biso   1.000  H
  H87      1.0000 0.03690  0.91520  0.68070  Biso   1.000  H
  C146     1.0000 0.21950  0.02020  0.68729  Biso   1.000  C
  H88      1.0000 0.25970  0.98020  0.67610  Biso   1.000  H
  C147     1.0000 0.12810  0.00902  0.68415  Biso   1.000  C
  C148     1.0000 0.02270  0.01030  0.45298  Biso   1.000  C
  C149     1.0000 0.25290  0.08970  0.70675  Biso   1.000  C
  H89      1.0000 0.31660  0.09650  0.70880  Biso   1.000  H
  C150     1.0000 0.04620  0.25760  0.94208  Biso   1.000  C
  H90      1.0000 0.07790  0.26290  0.97170  Biso   1.000  H
  N21      1.0000 0.93910  0.55077  0.61223  Biso   1.000  N
  O41      1.0000 0.82461  0.26224  0.80730  Biso   1.000  O
  O42      1.0000 0.80105  0.56903  0.57451  Biso   1.000  O
  C151     1.0000 0.88020  0.55150  0.57302  Biso   1.000  C
  O43      1.0000 0.93497  0.18503  0.77798  Biso   1.000  O
  N22      1.0000 0.80120  0.35174  0.72306  Biso   1.000  N
  O44      1.0000 0.08824  0.51866  0.62747  Biso   1.000  O
  C152     1.0000 0.90280  0.22820  0.80926  Biso   1.000  C
  C153     1.0000 0.88950  0.36220  0.71977  Biso   1.000  C
  H91      1.0000 0.92840  0.32110  0.73090  Biso   1.000  H
  C154     1.0000 0.90860  0.23510  0.89913  Biso   1.000  C
  H92      1.0000 0.84530  0.22530  0.89920  Biso   1.000  H
  C155     1.0000 0.95380  0.24195  0.85572  Biso   1.000  C
  C156     1.0000 0.92800  0.43090  0.70062  Biso   1.000  C
  H93      1.0000 0.99180  0.43650  0.69890  Biso   1.000  H
  C157     1.0000 0.90950  0.51600  0.48345  Biso   1.000  C
  H94      1.0000 0.84980  0.52610  0.47260  Biso   1.000  H
  C158     1.0000 0.02570  0.52580  0.59969  Biso   1.000  C
  C159     1.0000 0.93520  0.52630  0.53074  Biso   1.000  C
  C160     1.0000 0.91070  0.56619  0.66155  Biso   1.000  C
  H95      1.0000 0.86440  0.60870  0.66180  Biso   1.000  H
  H96      1.0000 0.96310  0.58480  0.68070  Biso   1.000  H
  C161     1.0000 0.78050  0.47980  0.68729  Biso   1.000  C
  H97      1.0000 0.74030  0.51980  0.67610  Biso   1.000  H
  C162     1.0000 0.87190  0.49098  0.68415  Biso   1.000  C
  C163     1.0000 0.97730  0.48970  0.45298  Biso   1.000  C
  C164     1.0000 0.74710  0.41030  0.70675  Biso   1.000  C
  H98      1.0000 0.68340  0.40350  0.70880  Biso   1.000  H
  C165     1.0000 0.95380  0.24240  0.94208  Biso   1.000  C
  H99      1.0000 0.92210  0.23710  0.97170  Biso   1.000  H
  N23      1.0000 0.43910  0.05077  0.11223  Biso   1.000  N
  O45      1.0000 0.32461  0.76224  0.30730  Biso   1.000  O
  O46      1.0000 0.30105  0.06903  0.07451  Biso   1.000  O
  C166     1.0000 0.38020  0.05150  0.07302  Biso   1.000  C
  O47      1.0000 0.43497  0.68503  0.27798  Biso   1.000  O
  N24      1.0000 0.30120  0.85174  0.22306  Biso   1.000  N
  O48      1.0000 0.58824  0.01866  0.12747  Biso   1.000  O
  C167     1.0000 0.40280  0.72820  0.30926  Biso   1.000  C
  C168     1.0000 0.38950  0.86220  0.21977  Biso   1.000  C
  H100     1.0000 0.42840  0.82110  0.23090  Biso   1.000  H
  C169     1.0000 0.40860  0.73510  0.39913  Biso   1.000  C
  H101     1.0000 0.34530  0.72530  0.39920  Biso   1.000  H
  C170     1.0000 0.45380  0.74195  0.35572  Biso   1.000  C
  C171     1.0000 0.42800  0.93090  0.20062  Biso   1.000  C
  H102     1.0000 0.49180  0.93650  0.19890  Biso   1.000  H
  C172     1.0000 0.40950  0.01600  0.98345  Biso   1.000  C
  H103     1.0000 0.34980  0.02610  0.97260  Biso   1.000  H
  C173     1.0000 0.52570  0.02580  0.09969  Biso   1.000  C
  C174     1.0000 0.43520  0.02630  0.03074  Biso   1.000  C
  C175     1.0000 0.41070  0.06619  0.16155  Biso   1.000  C
  H104     1.0000 0.36440  0.10870  0.16180  Biso   1.000  H
  H105     1.0000 0.46310  0.08480  0.18070  Biso   1.000  H
  C176     1.0000 0.28050  0.97980  0.18729  Biso   1.000  C
  H106     1.0000 0.24030  0.01980  0.17610  Biso   1.000  H
  C177     1.0000 0.37190  0.99098  0.18415  Biso   1.000  C
  C178     1.0000 0.47730  0.98970  0.95298  Biso   1.000  C
  C179     1.0000 0.24710  0.91030  0.20675  Biso   1.000  C
  H107     1.0000 0.18340  0.90350  0.20880  Biso   1.000  H
  C180     1.0000 0.45380  0.74240  0.44208  Biso   1.000  C
  H108     1.0000 0.42210  0.73710  0.47170  Biso   1.000  H
  N25      1.0000 0.43910  0.55077  0.88777  Biso   1.000  N
  O49      1.0000 0.32461  0.26224  0.69270  Biso   1.000  O
  O50      1.0000 0.30105  0.56903  0.92549  Biso   1.000  O
  C181     1.0000 0.38020  0.55150  0.92698  Biso   1.000  C
  O51      1.0000 0.43497  0.18503  0.72202  Biso   1.000  O
  N26      1.0000 0.30120  0.35174  0.77694  Biso   1.000  N
  O52      1.0000 0.58824  0.51866  0.87253  Biso   1.000  O
  C182     1.0000 0.40280  0.22820  0.69074  Biso   1.000  C
  C183     1.0000 0.38950  0.36220  0.78023  Biso   1.000  C
  H109     1.0000 0.42840  0.32110  0.76910  Biso   1.000  H
  C184     1.0000 0.40860  0.23510  0.60087  Biso   1.000  C
  H110     1.0000 0.34530  0.22530  0.60080  Biso   1.000  H
  C185     1.0000 0.45380  0.24195  0.64428  Biso   1.000  C
  C186     1.0000 0.42800  0.43090  0.79938  Biso   1.000  C
  H111     1.0000 0.49180  0.43650  0.80110  Biso   1.000  H
  C187     1.0000 0.40950  0.51600  0.01655  Biso   1.000  C
  H112     1.0000 0.34980  0.52610  0.02740  Biso   1.000  H
  C188     1.0000 0.52570  0.52580  0.90031  Biso   1.000  C
  C189     1.0000 0.43520  0.52630  0.96926  Biso   1.000  C
  C190     1.0000 0.41070  0.56619  0.83845  Biso   1.000  C
  H113     1.0000 0.36440  0.60870  0.83820  Biso   1.000  H
  H114     1.0000 0.46310  0.58480  0.81930  Biso   1.000  H
  C191     1.0000 0.28050  0.47980  0.81271  Biso   1.000  C
  H115     1.0000 0.24030  0.51980  0.82390  Biso   1.000  H
  C192     1.0000 0.37190  0.49098  0.81585  Biso   1.000  C
  C193     1.0000 0.47730  0.48970  0.04702  Biso   1.000  C
  C194     1.0000 0.24710  0.41030  0.79325  Biso   1.000  C
  H116     1.0000 0.18340  0.40350  0.79120  Biso   1.000  H
  C195     1.0000 0.45380  0.24240  0.55792  Biso   1.000  C
  H117     1.0000 0.42210  0.23710  0.52830  Biso   1.000  H
  N27      1.0000 0.93910  0.05077  0.38777  Biso   1.000  N
  O53      1.0000 0.82461  0.76224  0.19270  Biso   1.000  O
  O54      1.0000 0.80105  0.06903  0.42549  Biso   1.000  O
  C196     1.0000 0.88020  0.05150  0.42698  Biso   1.000  C
  O55      1.0000 0.93497  0.68503  0.22202  Biso   1.000  O
  N28      1.0000 0.80120  0.85174  0.27694  Biso   1.000  N
  O56      1.0000 0.08824  0.01866  0.37253  Biso   1.000  O
  C197     1.0000 0.90280  0.72820  0.19074  Biso   1.000  C
  C198     1.0000 0.88950  0.86220  0.28023  Biso   1.000  C
  H118     1.0000 0.92840  0.82110  0.26910  Biso   1.000  H
  C199     1.0000 0.90860  0.73510  0.10087  Biso   1.000  C
  H119     1.0000 0.84530  0.72530  0.10080  Biso   1.000  H
  C200     1.0000 0.95380  0.74195  0.14428  Biso   1.000  C
  C201     1.0000 0.92800  0.93090  0.29938  Biso   1.000  C
  H120     1.0000 0.99180  0.93650  0.30110  Biso   1.000  H
  C202     1.0000 0.90950  0.01600  0.51655  Biso   1.000  C
  H121     1.0000 0.84980  0.02610  0.52740  Biso   1.000  H
  C203     1.0000 0.02570  0.02580  0.40031  Biso   1.000  C
  C204     1.0000 0.93520  0.02630  0.46926  Biso   1.000  C
  C205     1.0000 0.91070  0.06619  0.33845  Biso   1.000  C
  H122     1.0000 0.86440  0.10870  0.33820  Biso   1.000  H
  H123     1.0000 0.96310  0.08480  0.31930  Biso   1.000  H
  C206     1.0000 0.78050  0.97980  0.31271  Biso   1.000  C
  H124     1.0000 0.74030  0.01980  0.32390  Biso   1.000  H
  C207     1.0000 0.87190  0.99098  0.31585  Biso   1.000  C
  C208     1.0000 0.97730  0.98970  0.54702  Biso   1.000  C
  C209     1.0000 0.74710  0.91030  0.29325  Biso   1.000  C
  H125     1.0000 0.68340  0.90350  0.29120  Biso   1.000  H
  C210     1.0000 0.95380  0.74240  0.05792  Biso   1.000  C
  H126     1.0000 0.92210  0.73710  0.02830  Biso   1.000  H
  N29      1.0000 0.06090  0.44923  0.38777  Biso   1.000  N
  O57      1.0000 0.17539  0.73776  0.19270  Biso   1.000  O
  O58      1.0000 0.19895  0.43097  0.42549  Biso   1.000  O
  C211     1.0000 0.11980  0.44850  0.42698  Biso   1.000  C
  O59      1.0000 0.06503  0.81497  0.22202  Biso   1.000  O
  N30      1.0000 0.19880  0.64826  0.27694  Biso   1.000  N
  O60      1.0000 0.91176  0.48134  0.37253  Biso   1.000  O
  C212     1.0000 0.09720  0.77180  0.19074  Biso   1.000  C
  C213     1.0000 0.11050  0.63780  0.28023  Biso   1.000  C
  H127     1.0000 0.07160  0.67890  0.26910  Biso   1.000  H
  C214     1.0000 0.09140  0.76490  0.10087  Biso   1.000  C
  H128     1.0000 0.15470  0.77470  0.10080  Biso   1.000  H
  C215     1.0000 0.04620  0.75805  0.14428  Biso   1.000  C
  C216     1.0000 0.07200  0.56910  0.29938  Biso   1.000  C
  H129     1.0000 0.00820  0.56350  0.30110  Biso   1.000  H
  C217     1.0000 0.09050  0.48400  0.51655  Biso   1.000  C
  H130     1.0000 0.15020  0.47390  0.52740  Biso   1.000  H
  C218     1.0000 0.97430  0.47420  0.40031  Biso   1.000  C
  C219     1.0000 0.06480  0.47370  0.46926  Biso   1.000  C
  C220     1.0000 0.08930  0.43381  0.33845  Biso   1.000  C
  H131     1.0000 0.13560  0.39130  0.33820  Biso   1.000  H
  H132     1.0000 0.03690  0.41520  0.31930  Biso   1.000  H
  C221     1.0000 0.21950  0.52020  0.31271  Biso   1.000  C
  H133     1.0000 0.25970  0.48020  0.32390  Biso   1.000  H
  C222     1.0000 0.12810  0.50902  0.31585  Biso   1.000  C
  C223     1.0000 0.02270  0.51030  0.54702  Biso   1.000  C
  C224     1.0000 0.25290  0.58970  0.29325  Biso   1.000  C
  H134     1.0000 0.31660  0.59650  0.29120  Biso   1.000  H
  C225     1.0000 0.04620  0.75760  0.05792  Biso   1.000  C
  H135     1.0000 0.07790  0.76290  0.02830  Biso   1.000  H
  N31      1.0000 0.56090  0.94923  0.88777  Biso   1.000  N
  O61      1.0000 0.67539  0.23776  0.69270  Biso   1.000  O
  O62      1.0000 0.69895  0.93097  0.92549  Biso   1.000  O
  C226     1.0000 0.61980  0.94850  0.92698  Biso   1.000  C
  O63      1.0000 0.56503  0.31497  0.72202  Biso   1.000  O
  N32      1.0000 0.69880  0.14826  0.77694  Biso   1.000  N
  O64      1.0000 0.41176  0.98134  0.87253  Biso   1.000  O
  C227     1.0000 0.59720  0.27180  0.69074  Biso   1.000  C
  C228     1.0000 0.61050  0.13780  0.78023  Biso   1.000  C
  H136     1.0000 0.57160  0.17890  0.76910  Biso   1.000  H
  C229     1.0000 0.59140  0.26490  0.60087  Biso   1.000  C
  H137     1.0000 0.65470  0.27470  0.60080  Biso   1.000  H
  C230     1.0000 0.54620  0.25805  0.64428  Biso   1.000  C
  C231     1.0000 0.57200  0.06910  0.79938  Biso   1.000  C
  H138     1.0000 0.50820  0.06350  0.80110  Biso   1.000  H
  C232     1.0000 0.59050  0.98400  0.01655  Biso   1.000  C
  H139     1.0000 0.65020  0.97390  0.02740  Biso   1.000  H
  C233     1.0000 0.47430  0.97420  0.90031  Biso   1.000  C
  C234     1.0000 0.56480  0.97370  0.96926  Biso   1.000  C
  C235     1.0000 0.58930  0.93381  0.83845  Biso   1.000  C
  H140     1.0000 0.63560  0.89130  0.83820  Biso   1.000  H
  H141     1.0000 0.53690  0.91520  0.81930  Biso   1.000  H
  C236     1.0000 0.71950  0.02020  0.81271  Biso   1.000  C
  H142     1.0000 0.75970  0.98020  0.82390  Biso   1.000  H
  C237     1.0000 0.62810  0.00902  0.81585  Biso   1.000  C
  C238     1.0000 0.52270  0.01030  0.04702  Biso   1.000  C
  C239     1.0000 0.75290  0.08970  0.79325  Biso   1.000  C
  H143     1.0000 0.81660  0.09650  0.79120  Biso   1.000  H
  C240     1.0000 0.54620  0.25760  0.55792  Biso   1.000  C
  H144     1.0000 0.57790  0.26290  0.52830  Biso   1.000  H
  Cu5      1.0000 0.75000  0.75000  0.25000  Biso   1.000  Cu
  Cu6      1.0000 0.75000  0.25000  0.75000  Biso   1.000  Cu
  Cu7      1.0000 0.25000  0.25000  0.75000  Biso   1.000  Cu
  Cu8      1.0000 0.25000  0.75000  0.25000  Biso   1.000  Cu
