data_TEXTOH_clean
_audit_creation_date              2014-07-02
_audit_creation_method            'Materials Studio'
_symmetry_space_group_name_H-M    'P1'
_symmetry_Int_Tables_number       1
_symmetry_cell_setting            triclinic
loop_
_symmetry_equiv_pos_as_xyz
  x,y,z
_cell_length_a                    9.3824
_cell_length_b                    13.6113
_cell_length_c                    18.2701
_cell_angle_alpha                 74.7319
_cell_angle_beta                  86.3824
_cell_angle_gamma                 88.5107
loop_
_atom_site_label
_atom_site_type_symbol
_atom_site_fract_x
_atom_site_fract_y
_atom_site_fract_z
_atom_site_U_iso_or_equiv
_atom_site_adp_type
_atom_site_occupancy
Eu1    Eu    0.22305   0.03201   0.99712   0.01267  Uiso   1.00
Eu2    Eu    0.77695   0.96799   0.00288   0.01267  Uiso   1.00
H1     H     0.33660   0.80950   0.02980   0.01267  Uiso   1.00
H2     H     0.75990   0.02180   0.18560   0.01267  Uiso   1.00
H3     H     0.67420   0.03160   0.30550   0.01267  Uiso   1.00
H4     H     0.98850   0.23030   0.30670   0.01267  Uiso   1.00
H5     H     0.07810   0.21420   0.18910   0.01267  Uiso   1.00
H6     H     0.50730   0.12160   0.52220   0.01267  Uiso   1.00
H7     H     0.98030   0.12310   0.43270   0.01267  Uiso   1.00
H8     H     0.49970   0.19760   0.62450   0.01267  Uiso   1.00
H9     H     0.41670   0.16100   0.75010   0.01267  Uiso   1.00
H10    H     0.73280   0.95270   0.80790   0.01267  Uiso   1.00
H11    H     0.81440   0.98650   0.68070   0.01267  Uiso   1.00
H12    H     0.01180   0.04590   0.59950   0.01267  Uiso   1.00
H13    H     0.94620   0.14610   0.62000   0.01267  Uiso   1.00
H14    H     0.28120   0.22100   0.54080   0.01267  Uiso   1.00
H15    H     0.18960   0.18760   0.62000   0.01267  Uiso   1.00
H16    H     0.25530   0.10280   0.58100   0.01267  Uiso   1.00
H17    H     0.46250   0.08750   0.37840   0.01267  Uiso   1.00
H18    H     0.54480   0.18300   0.32280   0.01267  Uiso   1.00
H19    H     0.21750   0.27170   0.38380   0.01267  Uiso   1.00
H20    H     0.30160   0.25670   0.30850   0.01267  Uiso   1.00
H21    H     0.24100   0.15990   0.37210   0.01267  Uiso   1.00
H22    H     0.18740   0.26530   0.79520   0.01267  Uiso   1.00
H23    H     0.19730   0.38100   0.67580   0.01267  Uiso   1.00
H24    H     0.78370   0.32400   0.65290   0.01267  Uiso   1.00
H25    H     0.77570   0.20580   0.77140   0.01267  Uiso   1.00
H26    H     0.91020   0.33590   0.52530   0.01267  Uiso   1.00
H27    H     0.05500   0.54590   0.67010   0.01267  Uiso   1.00
H28    H     0.07530   0.65410   0.60880   0.01267  Uiso   1.00
H29    H     0.40760   0.57160   0.68840   0.01267  Uiso   1.00
H30    H     0.30620   0.67030   0.67460   0.01267  Uiso   1.00
H31    H     0.25240   0.56520   0.73100   0.01267  Uiso   1.00
H32    H     0.66340   0.19050   0.97020   0.01267  Uiso   1.00
H33    H     0.24010   0.97820   0.81440   0.01267  Uiso   1.00
H34    H     0.32580   0.96840   0.69450   0.01267  Uiso   1.00
H35    H     0.01150   0.76970   0.69330   0.01267  Uiso   1.00
H36    H     0.92190   0.78580   0.81090   0.01267  Uiso   1.00
H37    H     0.49270   0.87840   0.47780   0.01267  Uiso   1.00
H38    H     0.01970   0.87690   0.56730   0.01267  Uiso   1.00
H39    H     0.50030   0.80240   0.37550   0.01267  Uiso   1.00
H40    H     0.58330   0.83900   0.24990   0.01267  Uiso   1.00
H41    H     0.26720   0.04730   0.19210   0.01267  Uiso   1.00
H42    H     0.18560   0.01350   0.31930   0.01267  Uiso   1.00
H43    H     0.98820   0.95410   0.40050   0.01267  Uiso   1.00
H44    H     0.05380   0.85390   0.38000   0.01267  Uiso   1.00
H45    H     0.71880   0.77900   0.45920   0.01267  Uiso   1.00
H46    H     0.81040   0.81240   0.38000   0.01267  Uiso   1.00
H47    H     0.74470   0.89720   0.41900   0.01267  Uiso   1.00
H48    H     0.53750   0.91250   0.62160   0.01267  Uiso   1.00
H49    H     0.45520   0.81700   0.67720   0.01267  Uiso   1.00
H50    H     0.78250   0.72830   0.61620   0.01267  Uiso   1.00
H51    H     0.69840   0.74330   0.69150   0.01267  Uiso   1.00
H52    H     0.75900   0.84010   0.62790   0.01267  Uiso   1.00
H53    H     0.81260   0.73470   0.20480   0.01267  Uiso   1.00
H54    H     0.80270   0.61900   0.32420   0.01267  Uiso   1.00
H55    H     0.21630   0.67600   0.34710   0.01267  Uiso   1.00
H56    H     0.22430   0.79420   0.22860   0.01267  Uiso   1.00
H57    H     0.08980   0.66410   0.47470   0.01267  Uiso   1.00
H58    H     0.94500   0.45410   0.32990   0.01267  Uiso   1.00
H59    H     0.92470   0.34590   0.39120   0.01267  Uiso   1.00
H60    H     0.59240   0.42840   0.31160   0.01267  Uiso   1.00
H61    H     0.69380   0.32970   0.32540   0.01267  Uiso   1.00
H62    H     0.74760   0.43480   0.26900   0.01267  Uiso   1.00
C1     C     0.99040   0.10170   0.10170   0.01267  Uiso   1.00
C2     C     0.92820   0.11640   0.17600   0.01267  Uiso   1.00
C3     C     0.80760   0.06300   0.21080   0.01267  Uiso   1.00
C4     C     0.75620   0.06930   0.28200   0.01267  Uiso   1.00
C5     C     0.82390   0.13110   0.32020   0.01267  Uiso   1.00
C6     C     0.94290   0.18620   0.28310   0.01267  Uiso   1.00
C7     C     0.99520   0.17770   0.21260   0.01267  Uiso   1.00
C8     C     0.77850   0.13020   0.40030   0.01267  Uiso   1.00
C9     C     0.63350   0.13320   0.42720   0.01267  Uiso   1.00
C10    C     0.60440   0.12190   0.50400   0.01267  Uiso   1.00
C11    C     0.71070   0.11070   0.55670   0.01267  Uiso   1.00
C12    C     0.85370   0.11470   0.52940   0.01267  Uiso   1.00
C13    C     0.88330   0.12280   0.45110   0.01267  Uiso   1.00
C14    C     0.66470   0.09420   0.63830   0.01267  Uiso   1.00
C15    C     0.54660   0.14670   0.66130   0.01267  Uiso   1.00
C16    C     0.49800   0.12540   0.73610   0.01267  Uiso   1.00
C17    C     0.56540   0.05300   0.79160   0.01267  Uiso   1.00
C18    C     0.68450   0.00180   0.77040   0.01267  Uiso   1.00
C19    C     0.73310   0.02220   0.69450   0.01267  Uiso   1.00
C20    C     0.51020   0.02800   0.87390   0.01267  Uiso   1.00
C21    C     0.97710   0.11620   0.57770   0.01267  Uiso   1.00
C22    C     0.21290   0.17130   0.57150   0.01267  Uiso   1.00
C23    C     0.50980   0.15250   0.37600   0.01267  Uiso   1.00
C24    C     0.28340   0.22730   0.36320   0.01267  Uiso   1.00
C25    C     0.97680   0.15040   0.87320   0.01267  Uiso   1.00
C26    C     0.98020   0.22520   0.79570   0.01267  Uiso   1.00
C27    C     0.10500   0.27720   0.76630   0.01267  Uiso   1.00
C28    C     0.11090   0.34620   0.69540   0.01267  Uiso   1.00
C29    C     0.98970   0.36480   0.65270   0.01267  Uiso   1.00
C30    C     0.86630   0.31220   0.68170   0.01267  Uiso   1.00
C31    C     0.86110   0.24220   0.75250   0.01267  Uiso   1.00
C32    C     0.94630   0.40300   0.51510   0.01267  Uiso   1.00
C33    C     0.99530   0.43670   0.57470   0.01267  Uiso   1.00
C34    C     0.05100   0.53520   0.55860   0.01267  Uiso   1.00
C35    C     0.10110   0.58090   0.62010   0.01267  Uiso   1.00
C36    C     0.30850   0.59610   0.68390   0.01267  Uiso   1.00
C37    C     0.00960   0.89830   0.89830   0.01267  Uiso   1.00
C38    C     0.07180   0.88360   0.82400   0.01267  Uiso   1.00
C39    C     0.19240   0.93700   0.78920   0.01267  Uiso   1.00
C40    C     0.24380   0.93070   0.71800   0.01267  Uiso   1.00
C41    C     0.17610   0.86890   0.67980   0.01267  Uiso   1.00
C42    C     0.05710   0.81380   0.71690   0.01267  Uiso   1.00
C43    C     0.00480   0.82230   0.78740   0.01267  Uiso   1.00
C44    C     0.22150   0.86980   0.59970   0.01267  Uiso   1.00
C45    C     0.36650   0.86680   0.57280   0.01267  Uiso   1.00
C46    C     0.39560   0.87810   0.49600   0.01267  Uiso   1.00
C47    C     0.28930   0.88930   0.44330   0.01267  Uiso   1.00
C48    C     0.14630   0.88530   0.47060   0.01267  Uiso   1.00
C49    C     0.11670   0.87720   0.54890   0.01267  Uiso   1.00
C50    C     0.33530   0.90580   0.36170   0.01267  Uiso   1.00
C51    C     0.45340   0.85330   0.33870   0.01267  Uiso   1.00
C52    C     0.50200   0.87460   0.26390   0.01267  Uiso   1.00
C53    C     0.43460   0.94700   0.20840   0.01267  Uiso   1.00
C54    C     0.31550   0.99820   0.22960   0.01267  Uiso   1.00
C55    C     0.26690   0.97780   0.30550   0.01267  Uiso   1.00
C56    C     0.48980   0.97200   0.12610   0.01267  Uiso   1.00
C57    C     0.02290   0.88380   0.42230   0.01267  Uiso   1.00
C58    C     0.78710   0.82870   0.42850   0.01267  Uiso   1.00
C59    C     0.49020   0.84750   0.62400   0.01267  Uiso   1.00
C60    C     0.71660   0.77270   0.63680   0.01267  Uiso   1.00
C61    C     0.02320   0.84960   0.12680   0.01267  Uiso   1.00
C62    C     0.01980   0.77480   0.20430   0.01267  Uiso   1.00
C63    C     0.89500   0.72280   0.23370   0.01267  Uiso   1.00
C64    C     0.88910   0.65380   0.30460   0.01267  Uiso   1.00
C65    C     0.01030   0.63520   0.34730   0.01267  Uiso   1.00
C66    C     0.13370   0.68780   0.31830   0.01267  Uiso   1.00
C67    C     0.13890   0.75780   0.24750   0.01267  Uiso   1.00
C68    C     0.05370   0.59700   0.48490   0.01267  Uiso   1.00
C69    C     0.00470   0.56330   0.42530   0.01267  Uiso   1.00
C70    C     0.94900   0.46480   0.44140   0.01267  Uiso   1.00
C71    C     0.89890   0.41910   0.37990   0.01267  Uiso   1.00
C72    C     0.69150   0.40390   0.31610   0.01267  Uiso   1.00
O1     O     0.11760   0.12870   0.08210   0.01267  Uiso   1.00
O2     O     0.91570   0.06020   0.06350   0.01267  Uiso   1.00
O3     O     0.41380   0.21810   0.39970   0.01267  Uiso   1.00
O4     O     0.08720   0.17480   0.53220   0.01267  Uiso   1.00
O5     O     0.38970   0.06060   0.88880   0.01267  Uiso   1.00
O6     O     0.58820   0.97420   0.92190   0.01267  Uiso   1.00
O7     O     0.86690   0.09660   0.89450   0.01267  Uiso   1.00
O8     O     0.08340   0.14870   0.91120   0.01267  Uiso   1.00
O9     O     0.24900   0.56840   0.62160   0.01267  Uiso   1.00
O10    O     0.35210   0.86940   0.00200   0.01267  Uiso   1.00
O11    O     0.88240   0.87130   0.91790   0.01267  Uiso   1.00
O12    O     0.08430   0.93980   0.93650   0.01267  Uiso   1.00
O13    O     0.58620   0.78190   0.60030   0.01267  Uiso   1.00
O14    O     0.91280   0.82520   0.46780   0.01267  Uiso   1.00
O15    O     0.61030   0.93940   0.11120   0.01267  Uiso   1.00
O16    O     0.41180   0.02580   0.07810   0.01267  Uiso   1.00
O17    O     0.13310   0.90340   0.10550   0.01267  Uiso   1.00
O18    O     0.91660   0.85130   0.08880   0.01267  Uiso   1.00
O19    O     0.75100   0.43160   0.37840   0.01267  Uiso   1.00
O20    O     0.64790   0.13060   0.99800   0.01267  Uiso   1.00
