data_TEYLIU_clean
_audit_creation_date              2014-07-02
_audit_creation_method            'Materials Studio'
_symmetry_space_group_name_H-M    'P1'
_symmetry_Int_Tables_number       1
_symmetry_cell_setting            triclinic
loop_
_symmetry_equiv_pos_as_xyz
  x,y,z
_cell_length_a                    6.2035
_cell_length_b                    12.0445
_cell_length_c                    22.7373
_cell_angle_alpha                 90.0000
_cell_angle_beta                  90.0000
_cell_angle_gamma                 91.6690
loop_
_atom_site_label
_atom_site_type_symbol
_atom_site_fract_x
_atom_site_fract_y
_atom_site_fract_z
_atom_site_U_iso_or_equiv
_atom_site_adp_type
_atom_site_occupancy
Ce1    Ce    0.44066   0.93666   0.85339   0.01267  Uiso   1.00
Ce2    Ce    0.05934   0.56334   0.35339   0.01267  Uiso   1.00
Ce3    Ce    0.55934   0.06334   0.14661   0.01267  Uiso   1.00
Ce4    Ce    0.94066   0.43666   0.64661   0.01267  Uiso   1.00
Co1    Co    0.00000   0.50000   0.00000   0.01267  Uiso   1.00
Co2    Co    0.50000  -0.00000   0.50000   0.01267  Uiso   1.00
H1     H     0.05480   0.60180   0.78590   0.01267  Uiso   1.00
H2     H     0.52830   0.42170   0.81960   0.01267  Uiso   1.00
H3     H     0.91620   0.74150   0.84280   0.01267  Uiso   1.00
H4     H     0.81230   0.38820   0.88100   0.01267  Uiso   1.00
H5     H     0.44520   0.89820   0.28590   0.01267  Uiso   1.00
H6     H     0.97170   0.07830   0.31960   0.01267  Uiso   1.00
H7     H     0.58380   0.75850   0.34280   0.01267  Uiso   1.00
H8     H     0.68770   0.11180   0.38100   0.01267  Uiso   1.00
H9     H     0.94520   0.39820   0.21410   0.01267  Uiso   1.00
H10    H     0.47170   0.57830   0.18040   0.01267  Uiso   1.00
H11    H     0.08380   0.25850   0.15720   0.01267  Uiso   1.00
H12    H     0.18770   0.61180   0.11900   0.01267  Uiso   1.00
H13    H     0.55480   0.10180   0.71410   0.01267  Uiso   1.00
H14    H     0.02830   0.92170   0.68040   0.01267  Uiso   1.00
H15    H     0.41620   0.24150   0.65720   0.01267  Uiso   1.00
H16    H     0.31230   0.88820   0.61900   0.01267  Uiso   1.00
C1     C     0.46320   0.53780   0.68670   0.01267  Uiso   1.00
C2     C     0.91670   0.62620   0.77830   0.01267  Uiso   1.00
C3     C     0.59880   0.61330   0.72736   0.01267  Uiso   1.00
C4     C     0.65770   0.65140   0.00660   0.01267  Uiso   1.00
C5     C     0.60960   0.58560   0.95073   0.01267  Uiso   1.00
C6     C     0.33010   0.76970   0.73660   0.01267  Uiso   1.00
C7     C     0.26190   0.68350   0.92570   0.01267  Uiso   1.00
C8     C     0.52840   0.70740   0.75531   0.01267  Uiso   1.00
C9     C     0.54540   0.46470   0.85340   0.01267  Uiso   1.00
C10    C     0.43670   0.60190   0.91330   0.01267  Uiso   1.00
C11    C     0.83660   0.71340   0.81120   0.01267  Uiso   1.00
C12    C     0.71810   0.44430   0.89010   0.01267  Uiso   1.00
C13    C     0.03680   0.96220   0.18670   0.01267  Uiso   1.00
C14    C     0.58330   0.87380   0.27830   0.01267  Uiso   1.00
C15    C     0.90120   0.88670   0.22736   0.01267  Uiso   1.00
C16    C     0.84230   0.84860   0.50660   0.01267  Uiso   1.00
C17    C     0.89040   0.91440   0.45073   0.01267  Uiso   1.00
C18    C     0.16990   0.73030   0.23660   0.01267  Uiso   1.00
C19    C     0.23810   0.81650   0.42570   0.01267  Uiso   1.00
C20    C     0.97160   0.79260   0.25531   0.01267  Uiso   1.00
C21    C     0.95460   0.03530   0.35340   0.01267  Uiso   1.00
C22    C     0.06330   0.89810   0.41330   0.01267  Uiso   1.00
C23    C     0.66340   0.78660   0.31120   0.01267  Uiso   1.00
C24    C     0.78190   0.05570   0.39010   0.01267  Uiso   1.00
C25    C     0.53680   0.46220   0.31330   0.01267  Uiso   1.00
C26    C     0.08330   0.37380   0.22170   0.01267  Uiso   1.00
C27    C     0.40120   0.38670   0.27264   0.01267  Uiso   1.00
C28    C     0.34230   0.34860   0.99340   0.01267  Uiso   1.00
C29    C     0.39040   0.41440   0.04927   0.01267  Uiso   1.00
C30    C     0.66990   0.23030   0.26340   0.01267  Uiso   1.00
C31    C     0.73810   0.31650   0.07430   0.01267  Uiso   1.00
C32    C     0.47160   0.29260   0.24469   0.01267  Uiso   1.00
C33    C     0.45460   0.53530   0.14660   0.01267  Uiso   1.00
C34    C     0.56330   0.39810   0.08670   0.01267  Uiso   1.00
C35    C     0.16340   0.28660   0.18880   0.01267  Uiso   1.00
C36    C     0.28190   0.55570   0.10990   0.01267  Uiso   1.00
C37    C     0.96320   0.03780   0.81330   0.01267  Uiso   1.00
C38    C     0.41670   0.12620   0.72170   0.01267  Uiso   1.00
C39    C     0.09880   0.11330   0.77264   0.01267  Uiso   1.00
C40    C     0.15770   0.15140   0.49340   0.01267  Uiso   1.00
C41    C     0.10960   0.08560   0.54927   0.01267  Uiso   1.00
C42    C     0.83010   0.26970   0.76340   0.01267  Uiso   1.00
C43    C     0.76190   0.18350   0.57430   0.01267  Uiso   1.00
C44    C     0.02840   0.20740   0.74469   0.01267  Uiso   1.00
C45    C     0.04540   0.96470   0.64660   0.01267  Uiso   1.00
C46    C     0.93670   0.10190   0.58670   0.01267  Uiso   1.00
C47    C     0.33660   0.21340   0.68880   0.01267  Uiso   1.00
C48    C     0.21810   0.94430   0.60990   0.01267  Uiso   1.00
N1     N     0.80010   0.57710   0.73611   0.01267  Uiso   1.00
N2     N     0.74930   0.50480   0.93863   0.01267  Uiso   1.00
N3     N     0.64700   0.75760   0.79809   0.01267  Uiso   1.00
N4     N     0.40420   0.54210   0.86382   0.01267  Uiso   1.00
N5     N     0.69990   0.92290   0.23611   0.01267  Uiso   1.00
N6     N     0.75070   0.99520   0.43863   0.01267  Uiso   1.00
N7     N     0.85300   0.74240   0.29809   0.01267  Uiso   1.00
N8     N     0.09580   0.95790   0.36382   0.01267  Uiso   1.00
N9     N     0.19990   0.42290   0.26389   0.01267  Uiso   1.00
N10    N     0.25070   0.49520   0.06137   0.01267  Uiso   1.00
N11    N     0.35300   0.24240   0.20191   0.01267  Uiso   1.00
N12    N     0.59580   0.45790   0.13618   0.01267  Uiso   1.00
N13    N     0.30010   0.07710   0.76389   0.01267  Uiso   1.00
N14    N     0.24930   0.00480   0.56137   0.01267  Uiso   1.00
N15    N     0.14700   0.25760   0.70191   0.01267  Uiso   1.00
N16    N     0.90420   0.04210   0.63618   0.01267  Uiso   1.00
O1     O     0.56390   0.49910   0.64303   0.01267  Uiso   1.00
O2     O     0.27140   0.51500   0.69961   0.01267  Uiso   1.00
O3     O     0.79940   0.61160   0.04002   0.01267  Uiso   1.00
O4     O     0.11110   0.65190   0.95844   0.01267  Uiso   1.00
O5     O     0.26450   0.84120   0.77175   0.01267  Uiso   1.00
O6     O     0.55720   0.73790   0.01396   0.01267  Uiso   1.00
O7     O     0.27120   0.77480   0.89950   0.01267  Uiso   1.00
O8     O     0.25900   0.74850   0.68752   0.01267  Uiso   1.00
O9     O     0.93610   0.00090   0.14303   0.01267  Uiso   1.00
O10    O     0.22860   0.98500   0.19961   0.01267  Uiso   1.00
O11    O     0.70060   0.88840   0.54002   0.01267  Uiso   1.00
O12    O     0.38890   0.84810   0.45844   0.01267  Uiso   1.00
O13    O     0.23550   0.65880   0.27175   0.01267  Uiso   1.00
O14    O     0.94280   0.76210   0.51396   0.01267  Uiso   1.00
O15    O     0.22880   0.72520   0.39950   0.01267  Uiso   1.00
O16    O     0.24100   0.75150   0.18752   0.01267  Uiso   1.00
O17    O     0.43610   0.50090   0.35697   0.01267  Uiso   1.00
O18    O     0.72860   0.48500   0.30039   0.01267  Uiso   1.00
O19    O     0.20060   0.38840   0.95998   0.01267  Uiso   1.00
O20    O     0.88890   0.34810   0.04156   0.01267  Uiso   1.00
O21    O     0.73550   0.15880   0.22825   0.01267  Uiso   1.00
O22    O     0.44280   0.26210   0.98604   0.01267  Uiso   1.00
O23    O     0.72880   0.22520   0.10050   0.01267  Uiso   1.00
O24    O     0.74100   0.25150   0.31248   0.01267  Uiso   1.00
O25    O     0.06390   0.99910   0.85697   0.01267  Uiso   1.00
O26    O     0.77140   0.01500   0.80039   0.01267  Uiso   1.00
O27    O     0.29940   0.11160   0.45998   0.01267  Uiso   1.00
O28    O     0.61110   0.15190   0.54156   0.01267  Uiso   1.00
O29    O     0.76450   0.34120   0.72825   0.01267  Uiso   1.00
O30    O     0.05720   0.23790   0.48604   0.01267  Uiso   1.00
O31    O     0.77120   0.27480   0.60050   0.01267  Uiso   1.00
O32    O     0.75900   0.24850   0.81248   0.01267  Uiso   1.00
